MODEL 1
REMARK VINA RESULT:      -8.7      0.000      0.000
REMARK  3 active torsions:
REMARK  status: ('A' for Active; 'I' for Inactive)
REMARK    1  A    between atoms: O_2  and  C_3 
REMARK    2  A    between atoms: C_7  and  C_8 
REMARK    3  A    between atoms: C_19  and  N_20 
ROOT
HETATM    1  C   UNL     1       5.752  25.401  54.026  1.00  0.00     0.244 A 
HETATM    2  N   UNL     1       6.503  26.625  54.178  1.00  0.00    -0.151 N 
HETATM    3  C   UNL     1       6.496  27.578  53.191  1.00  0.00     0.734 A 
HETATM    4  N   UNL     1       7.243  28.596  53.559  1.00  0.00    -0.060 NA
HETATM    5  C   UNL     1       7.719  28.297  54.812  1.00  0.00     0.103 A 
HETATM    6  C   UNL     1       7.249  27.060  55.240  1.00  0.00     0.083 A 
HETATM    7  C   UNL     1       8.560  29.043  55.649  1.00  0.00     0.034 A 
HETATM    8  C   UNL     1       8.900  28.519  56.900  1.00  0.00     0.002 A 
HETATM    9  C   UNL     1       8.410  27.278  57.312  1.00  0.00     0.002 A 
HETATM   10  C   UNL     1       7.569  26.518  56.490  1.00  0.00     0.033 A 
HETATM   11  N   UNL     1       5.808  27.433  52.037  1.00  0.00    -0.033 NA
HETATM   12  C   UNL     1       5.108  26.372  51.856  1.00  0.00     0.193 A 
HETATM   13  N   UNL     1       5.003  25.320  52.773  1.00  0.00    -0.339 N 
HETATM   14  H   UNL     1       4.530  24.466  52.521  1.00  0.00     0.164 HD
ENDROOT
BRANCH   1  15
HETATM   15  C   UNL     1       6.646  24.175  54.096  1.00  0.00    -0.014 A 
HETATM   16  C   UNL     1       6.952  23.568  55.329  1.00  0.00     0.033 A 
HETATM   17  C   UNL     1       7.759  22.427  55.381  1.00  0.00     0.044 A 
HETATM   18  C   UNL     1       8.263  21.872  54.203  1.00  0.00     0.085 A 
HETATM   19 BR   UNL     1       8.120  21.658  57.076  1.00  0.00    -0.048 Br
HETATM   20  C   UNL     1       8.001  22.489  52.979  1.00  0.00     0.039 A 
HETATM   21  C   UNL     1       7.198  23.632  52.924  1.00  0.00     0.014 A 
BRANCH  18  22
HETATM   22  O   UNL     1       9.073  20.769  54.266  1.00  0.00    -0.355 OA
HETATM   23  C   UNL     1       8.911  19.920  53.129  1.00  0.00     0.210 C 
ENDBRANCH  18  22
ENDBRANCH   1  15
BRANCH  12  24
HETATM   24  N   UNL     1       4.398  26.149  50.732  1.00  0.00    -0.272 NA
HETATM   25  H   UNL     1       3.533  26.686  50.734  1.00  0.00     0.127 HD
HETATM   26  H   UNL     1       4.221  25.183  50.489  1.00  0.00     0.127 HD
ENDBRANCH  12  24
TORSDOF 3
ENDMDL
MODEL 2
REMARK VINA RESULT:      -8.1     12.357     14.970
REMARK  3 active torsions:
REMARK  status: ('A' for Active; 'I' for Inactive)
REMARK    1  A    between atoms: O_2  and  C_3 
REMARK    2  A    between atoms: C_7  and  C_8 
REMARK    3  A    between atoms: C_19  and  N_20 
ROOT
HETATM    1  C   UNL     1       3.976  34.978  63.535  1.00  0.00     0.244 A 
HETATM    2  N   UNL     1       5.161  34.241  63.905  1.00  0.00    -0.151 N 
HETATM    3  C   UNL     1       5.454  34.002  65.224  1.00  0.00     0.734 A 
HETATM    4  N   UNL     1       6.572  33.314  65.307  1.00  0.00    -0.060 NA
HETATM    5  C   UNL     1       6.990  33.092  64.018  1.00  0.00     0.103 A 
HETATM    6  C   UNL     1       6.103  33.652  63.104  1.00  0.00     0.083 A 
HETATM    7  C   UNL     1       8.124  32.413  63.551  1.00  0.00     0.034 A 
HETATM    8  C   UNL     1       8.327  32.314  62.171  1.00  0.00     0.002 A 
HETATM    9  C   UNL     1       7.418  32.877  61.273  1.00  0.00     0.002 A 
HETATM   10  C   UNL     1       6.281  33.560  61.719  1.00  0.00     0.033 A 
HETATM   11  N   UNL     1       4.674  34.436  66.238  1.00  0.00    -0.033 NA
HETATM   12  C   UNL     1       3.597  35.079  65.967  1.00  0.00     0.193 A 
HETATM   13  N   UNL     1       3.157  35.389  64.675  1.00  0.00    -0.339 N 
HETATM   14  H   UNL     1       2.365  35.996  64.536  1.00  0.00     0.164 HD
ENDROOT
BRANCH   1  15
HETATM   15  C   UNL     1       4.310  36.231  62.746  1.00  0.00    -0.014 A 
HETATM   16  C   UNL     1       5.157  37.222  63.279  1.00  0.00     0.033 A 
HETATM   17  C   UNL     1       5.475  38.363  62.535  1.00  0.00     0.044 A 
HETATM   18  C   UNL     1       4.961  38.525  61.247  1.00  0.00     0.085 A 
HETATM   19 BR   UNL     1       6.628  39.650  63.313  1.00  0.00    -0.048 Br
HETATM   20  C   UNL     1       4.088  37.569  60.724  1.00  0.00     0.039 A 
HETATM   21  C   UNL     1       3.765  36.430  61.466  1.00  0.00     0.014 A 
BRANCH  18  22
HETATM   22  O   UNL     1       5.259  39.656  60.535  1.00  0.00    -0.355 OA
HETATM   23  C   UNL     1       6.139  39.386  59.443  1.00  0.00     0.210 C 
ENDBRANCH  18  22
ENDBRANCH   1  15
BRANCH  12  24
HETATM   24  N   UNL     1       2.768  35.550  66.921  1.00  0.00    -0.272 NA
HETATM   25  H   UNL     1       3.147  35.379  67.850  1.00  0.00     0.127 HD
HETATM   26  H   UNL     1       1.801  35.260  66.867  1.00  0.00     0.127 HD
ENDBRANCH  12  24
TORSDOF 3
ENDMDL
MODEL 3
REMARK VINA RESULT:      -8.1      3.589      6.460
REMARK  3 active torsions:
REMARK  status: ('A' for Active; 'I' for Inactive)
REMARK    1  A    between atoms: O_2  and  C_3 
REMARK    2  A    between atoms: C_7  and  C_8 
REMARK    3  A    between atoms: C_19  and  N_20 
ROOT
HETATM    1  C   UNL     1       6.174  25.590  56.295  1.00  0.00     0.244 A 
HETATM    2  N   UNL     1       6.429  25.362  54.892  1.00  0.00    -0.151 N 
HETATM    3  C   UNL     1       7.301  24.383  54.489  1.00  0.00     0.734 A 
HETATM    4  N   UNL     1       7.363  24.364  53.175  1.00  0.00    -0.060 NA
HETATM    5  C   UNL     1       6.500  25.335  52.730  1.00  0.00     0.103 A 
HETATM    6  C   UNL     1       5.876  25.972  53.798  1.00  0.00     0.083 A 
HETATM    7  C   UNL     1       6.195  25.726  51.420  1.00  0.00     0.034 A 
HETATM    8  C   UNL     1       5.262  26.750  51.224  1.00  0.00     0.002 A 
HETATM    9  C   UNL     1       4.643  27.370  52.311  1.00  0.00     0.002 A 
HETATM   10  C   UNL     1       4.935  26.994  53.626  1.00  0.00     0.033 A 
HETATM   11  N   UNL     1       7.968  23.591  55.359  1.00  0.00    -0.033 NA
HETATM   12  C   UNL     1       7.765  23.737  56.617  1.00  0.00     0.193 A 
HETATM   13  N   UNL     1       6.897  24.680  57.182  1.00  0.00    -0.339 N 
HETATM   14  H   UNL     1       6.872  24.820  58.179  1.00  0.00     0.164 HD
ENDROOT
BRANCH   1  15
HETATM   15  C   UNL     1       6.531  27.006  56.713  1.00  0.00    -0.014 A 
HETATM   16  C   UNL     1       7.864  27.458  56.683  1.00  0.00     0.033 A 
HETATM   17  C   UNL     1       8.179  28.770  57.051  1.00  0.00     0.044 A 
HETATM   18  C   UNL     1       7.169  29.650  57.443  1.00  0.00     0.085 A 
HETATM   19 BR   UNL     1       9.994  29.312  56.977  1.00  0.00    -0.048 Br
HETATM   20  C   UNL     1       5.849  29.201  57.516  1.00  0.00     0.039 A 
HETATM   21  C   UNL     1       5.531  27.889  57.154  1.00  0.00     0.014 A 
BRANCH  18  22
HETATM   22  O   UNL     1       7.490  30.925  57.824  1.00  0.00    -0.355 OA
HETATM   23  C   UNL     1       7.477  31.080  59.244  1.00  0.00     0.210 C 
ENDBRANCH  18  22
ENDBRANCH   1  15
BRANCH  12  24
HETATM   24  N   UNL     1       8.393  22.993  57.550  1.00  0.00    -0.272 NA
HETATM   25  H   UNL     1       9.404  23.083  57.467  1.00  0.00     0.127 HD
HETATM   26  H   UNL     1       8.122  22.020  57.614  1.00  0.00     0.127 HD
ENDBRANCH  12  24
TORSDOF 3
ENDMDL
MODEL 4
REMARK VINA RESULT:      -8.1      3.634      6.034
REMARK  3 active torsions:
REMARK  status: ('A' for Active; 'I' for Inactive)
REMARK    1  A    between atoms: O_2  and  C_3 
REMARK    2  A    between atoms: C_7  and  C_8 
REMARK    3  A    between atoms: C_19  and  N_20 
ROOT
HETATM    1  C   UNL     1       5.141  26.040  54.633  1.00  0.00     0.244 A 
HETATM    2  N   UNL     1       6.350  25.359  55.033  1.00  0.00    -0.151 N 
HETATM    3  C   UNL     1       6.975  25.677  56.211  1.00  0.00     0.734 A 
HETATM    4  N   UNL     1       8.045  24.925  56.357  1.00  0.00    -0.060 NA
HETATM    5  C   UNL     1       8.092  24.098  55.262  1.00  0.00     0.103 A 
HETATM    6  C   UNL     1       7.017  24.337  54.412  1.00  0.00     0.083 A 
HETATM    7  C   UNL     1       9.029  23.111  54.928  1.00  0.00     0.034 A 
HETATM    8  C   UNL     1       8.850  22.387  53.745  1.00  0.00     0.002 A 
HETATM    9  C   UNL     1       7.759  22.639  52.911  1.00  0.00     0.002 A 
HETATM   10  C   UNL     1       6.813  23.621  53.227  1.00  0.00     0.033 A 
HETATM   11  N   UNL     1       6.514  26.630  57.052  1.00  0.00    -0.033 NA
HETATM   12  C   UNL     1       5.433  27.253  56.756  1.00  0.00     0.193 A 
HETATM   13  N   UNL     1       4.676  27.033  55.600  1.00  0.00    -0.339 N 
HETATM   14  H   UNL     1       3.901  27.636  55.372  1.00  0.00     0.164 HD
ENDROOT
BRANCH   1  15
HETATM   15  C   UNL     1       5.304  26.750  53.301  1.00  0.00    -0.014 A 
HETATM   16  C   UNL     1       4.839  26.168  52.106  1.00  0.00     0.033 A 
HETATM   17  C   UNL     1       4.976  26.840  50.886  1.00  0.00     0.044 A 
HETATM   18  C   UNL     1       5.568  28.104  50.845  1.00  0.00     0.085 A 
HETATM   19 BR   UNL     1       4.318  26.001  49.319  1.00  0.00    -0.048 Br
HETATM   20  C   UNL     1       6.069  28.673  52.017  1.00  0.00     0.039 A 
HETATM   21  C   UNL     1       5.939  28.002  53.237  1.00  0.00     0.014 A 
BRANCH  18  22
HETATM   22  O   UNL     1       5.719  28.744  49.644  1.00  0.00    -0.355 OA
HETATM   23  C   UNL     1       5.676  30.164  49.784  1.00  0.00     0.210 C 
ENDBRANCH  18  22
ENDBRANCH   1  15
BRANCH  12  24
HETATM   24  N   UNL     1       4.911  28.220  57.538  1.00  0.00    -0.272 NA
HETATM   25  H   UNL     1       5.400  28.272  58.429  1.00  0.00     0.127 HD
HETATM   26  H   UNL     1       3.909  28.201  57.678  1.00  0.00     0.127 HD
ENDBRANCH  12  24
TORSDOF 3
ENDMDL
MODEL 5
REMARK VINA RESULT:      -8.1      3.750      5.790
REMARK  3 active torsions:
REMARK  status: ('A' for Active; 'I' for Inactive)
REMARK    1  A    between atoms: O_2  and  C_3 
REMARK    2  A    between atoms: C_7  and  C_8 
REMARK    3  A    between atoms: C_19  and  N_20 
ROOT
HETATM    1  C   UNL     1       8.536  29.347  56.106  1.00  0.00     0.244 A 
HETATM    2  N   UNL     1       7.928  30.157  57.136  1.00  0.00    -0.151 N 
HETATM    3  C   UNL     1       8.701  30.801  58.068  1.00  0.00     0.734 A 
HETATM    4  N   UNL     1       7.926  31.473  58.891  1.00  0.00    -0.060 NA
HETATM    5  C   UNL     1       6.636  31.272  58.465  1.00  0.00     0.103 A 
HETATM    6  C   UNL     1       6.607  30.456  57.338  1.00  0.00     0.083 A 
HETATM    7  C   UNL     1       5.434  31.761  58.993  1.00  0.00     0.034 A 
HETATM    8  C   UNL     1       4.234  31.415  58.364  1.00  0.00     0.002 A 
HETATM    9  C   UNL     1       4.230  30.601  57.231  1.00  0.00     0.002 A 
HETATM   10  C   UNL     1       5.419  30.102  56.688  1.00  0.00     0.033 A 
HETATM   11  N   UNL     1      10.050  30.716  58.087  1.00  0.00    -0.033 NA
HETATM   12  C   UNL     1      10.645  30.026  57.184  1.00  0.00     0.193 A 
HETATM   13  N   UNL     1       9.997  29.324  56.160  1.00  0.00    -0.339 N 
HETATM   14  H   UNL     1      10.516  28.709  55.553  1.00  0.00     0.164 HD
ENDROOT
BRANCH   1  15
HETATM   15  C   UNL     1       8.061  27.906  56.163  1.00  0.00    -0.014 A 
HETATM   16  C   UNL     1       7.356  27.331  55.088  1.00  0.00     0.033 A 
HETATM   17  C   UNL     1       6.940  25.997  55.142  1.00  0.00     0.044 A 
HETATM   18  C   UNL     1       7.231  25.217  56.262  1.00  0.00     0.085 A 
HETATM   19 BR   UNL     1       6.005  25.286  53.653  1.00  0.00    -0.048 Br
HETATM   20  C   UNL     1       7.892  25.788  57.351  1.00  0.00     0.039 A 
HETATM   21  C   UNL     1       8.305  27.123  57.303  1.00  0.00     0.014 A 
BRANCH  18  22
HETATM   22  O   UNL     1       6.799  23.919  56.316  1.00  0.00    -0.355 OA
HETATM   23  C   UNL     1       7.854  22.992  56.057  1.00  0.00     0.210 C 
ENDBRANCH  18  22
ENDBRANCH   1  15
BRANCH  12  24
HETATM   24  N   UNL     1      11.985  29.886  57.136  1.00  0.00    -0.272 NA
HETATM   25  H   UNL     1      12.451  30.729  57.468  1.00  0.00     0.127 HD
HETATM   26  H   UNL     1      12.380  29.580  56.257  1.00  0.00     0.127 HD
ENDBRANCH  12  24
TORSDOF 3
ENDMDL
MODEL 6
REMARK VINA RESULT:      -7.9     11.855     14.431
REMARK  3 active torsions:
REMARK  status: ('A' for Active; 'I' for Inactive)
REMARK    1  A    between atoms: O_2  and  C_3 
REMARK    2  A    between atoms: C_7  and  C_8 
REMARK    3  A    between atoms: C_19  and  N_20 
ROOT
HETATM    1  C   UNL     1       3.548  34.305  63.630  1.00  0.00     0.244 A 
HETATM    2  N   UNL     1       4.897  33.893  63.941  1.00  0.00    -0.151 N 
HETATM    3  C   UNL     1       5.393  34.023  65.213  1.00  0.00     0.734 A 
HETATM    4  N   UNL     1       6.630  33.580  65.249  1.00  0.00    -0.060 NA
HETATM    5  C   UNL     1       6.924  33.140  63.983  1.00  0.00     0.103 A 
HETATM    6  C   UNL     1       5.835  33.308  63.133  1.00  0.00     0.083 A 
HETATM    7  C   UNL     1       8.107  32.579  63.484  1.00  0.00     0.034 A 
HETATM    8  C   UNL     1       8.156  32.198  62.139  1.00  0.00     0.002 A 
HETATM    9  C   UNL     1       7.047  32.369  61.307  1.00  0.00     0.002 A 
HETATM   10  C   UNL     1       5.857  32.928  61.787  1.00  0.00     0.033 A 
HETATM   11  N   UNL     1       4.669  34.538  66.233  1.00  0.00    -0.033 NA
HETATM   12  C   UNL     1       3.458  34.903  66.017  1.00  0.00     0.193 A 
HETATM   13  N   UNL     1       2.808  34.821  64.780  1.00  0.00    -0.339 N 
HETATM   14  H   UNL     1       1.897  35.231  64.653  1.00  0.00     0.164 HD
ENDROOT
BRANCH   1  15
HETATM   15  C   UNL     1       3.517  35.378  62.556  1.00  0.00    -0.014 A 
HETATM   16  C   UNL     1       2.694  35.246  61.421  1.00  0.00     0.033 A 
HETATM   17  C   UNL     1       2.657  36.250  60.447  1.00  0.00     0.044 A 
HETATM   18  C   UNL     1       3.431  37.402  60.599  1.00  0.00     0.085 A 
HETATM   19 BR   UNL     1       1.519  36.009  58.950  1.00  0.00    -0.048 Br
HETATM   20  C   UNL     1       4.281  37.526  61.700  1.00  0.00     0.039 A 
HETATM   21  C   UNL     1       4.325  36.522  62.672  1.00  0.00     0.014 A 
BRANCH  18  22
HETATM   22  O   UNL     1       3.407  38.369  59.630  1.00  0.00    -0.355 OA
HETATM   23  C   UNL     1       4.618  38.401  58.875  1.00  0.00     0.210 C 
ENDBRANCH  18  22
ENDBRANCH   1  15
BRANCH  12  24
HETATM   24  N   UNL     1       2.673  35.431  66.978  1.00  0.00    -0.272 NA
HETATM   25  H   UNL     1       3.230  35.924  67.673  1.00  0.00     0.127 HD
HETATM   26  H   UNL     1       2.013  34.806  67.422  1.00  0.00     0.127 HD
ENDBRANCH  12  24
TORSDOF 3
ENDMDL
MODEL 7
REMARK VINA RESULT:      -7.8      3.572      5.806
REMARK  3 active torsions:
REMARK  status: ('A' for Active; 'I' for Inactive)
REMARK    1  A    between atoms: O_2  and  C_3 
REMARK    2  A    between atoms: C_7  and  C_8 
REMARK    3  A    between atoms: C_19  and  N_20 
ROOT
HETATM    1  C   UNL     1       7.246  26.900  53.904  1.00  0.00     0.244 A 
HETATM    2  N   UNL     1       7.213  25.476  54.146  1.00  0.00    -0.151 N 
HETATM    3  C   UNL     1       6.678  24.621  53.217  1.00  0.00     0.734 A 
HETATM    4  N   UNL     1       6.766  23.385  53.658  1.00  0.00    -0.060 NA
HETATM    5  C   UNL     1       7.386  23.450  54.881  1.00  0.00     0.103 A 
HETATM    6  C   UNL     1       7.700  24.765  55.209  1.00  0.00     0.083 A 
HETATM    7  C   UNL     1       7.717  22.419  55.771  1.00  0.00     0.034 A 
HETATM    8  C   UNL     1       8.362  22.746  56.968  1.00  0.00     0.002 A 
HETATM    9  C   UNL     1       8.675  24.072  57.272  1.00  0.00     0.002 A 
HETATM   10  C   UNL     1       8.352  25.115  56.397  1.00  0.00     0.033 A 
HETATM   11  N   UNL     1       6.154  25.045  52.045  1.00  0.00    -0.033 NA
HETATM   12  C   UNL     1       6.174  26.298  51.770  1.00  0.00     0.193 A 
HETATM   13  N   UNL     1       6.696  27.291  52.607  1.00  0.00    -0.339 N 
HETATM   14  H   UNL     1       6.576  28.266  52.381  1.00  0.00     0.164 HD
ENDROOT
BRANCH   1  15
HETATM   15  C   UNL     1       6.485  27.674  54.967  1.00  0.00    -0.014 A 
HETATM   16  C   UNL     1       7.160  28.498  55.887  1.00  0.00     0.033 A 
HETATM   17  C   UNL     1       6.448  29.223  56.849  1.00  0.00     0.044 A 
HETATM   18  C   UNL     1       5.055  29.142  56.898  1.00  0.00     0.085 A 
HETATM   19 BR   UNL     1       7.422  30.320  58.050  1.00  0.00    -0.048 Br
HETATM   20  C   UNL     1       4.379  28.296  56.018  1.00  0.00     0.039 A 
HETATM   21  C   UNL     1       5.087  27.567  55.058  1.00  0.00     0.014 A 
BRANCH  18  22
HETATM   22  O   UNL     1       4.369  29.836  57.859  1.00  0.00    -0.355 OA
HETATM   23  C   UNL     1       3.401  30.719  57.292  1.00  0.00     0.210 C 
ENDBRANCH  18  22
ENDBRANCH   1  15
BRANCH  12  24
HETATM   24  N   UNL     1       5.667  26.802  50.626  1.00  0.00    -0.272 NA
HETATM   25  H   UNL     1       5.755  27.816  50.605  1.00  0.00     0.127 HD
HETATM   26  H   UNL     1       4.728  26.516  50.380  1.00  0.00     0.127 HD
ENDBRANCH  12  24
TORSDOF 3
ENDMDL
MODEL 8
REMARK VINA RESULT:      -7.6     10.560     12.977
REMARK  3 active torsions:
REMARK  status: ('A' for Active; 'I' for Inactive)
REMARK    1  A    between atoms: O_2  and  C_3 
REMARK    2  A    between atoms: C_7  and  C_8 
REMARK    3  A    between atoms: C_19  and  N_20 
ROOT
HETATM    1  C   UNL     1       4.813  33.070  62.409  1.00  0.00     0.244 A 
HETATM    2  N   UNL     1       6.231  32.815  62.513  1.00  0.00    -0.151 N 
HETATM    3  C   UNL     1       6.870  32.899  63.724  1.00  0.00     0.734 A 
HETATM    4  N   UNL     1       8.146  32.622  63.566  1.00  0.00    -0.060 NA
HETATM    5  C   UNL     1       8.321  32.335  62.235  1.00  0.00     0.103 A 
HETATM    6  C   UNL     1       7.117  32.430  61.544  1.00  0.00     0.083 A 
HETATM    7  C   UNL     1       9.487  31.981  61.544  1.00  0.00     0.034 A 
HETATM    8  C   UNL     1       9.404  31.728  60.171  1.00  0.00     0.002 A 
HETATM    9  C   UNL     1       8.184  31.822  59.500  1.00  0.00     0.002 A 
HETATM   10  C   UNL     1       7.008  32.174  60.172  1.00  0.00     0.033 A 
HETATM   11  N   UNL     1       6.230  33.224  64.870  1.00  0.00    -0.033 NA
HETATM   12  C   UNL     1       4.966  33.442  64.839  1.00  0.00     0.193 A 
HETATM   13  N   UNL     1       4.174  33.382  63.686  1.00  0.00    -0.339 N 
HETATM   14  H   UNL     1       3.210  33.677  63.711  1.00  0.00     0.164 HD
ENDROOT
BRANCH   1  15
HETATM   15  C   UNL     1       4.511  34.218  61.462  1.00  0.00    -0.014 A 
HETATM   16  C   UNL     1       4.863  35.541  61.789  1.00  0.00     0.033 A 
HETATM   17  C   UNL     1       4.599  36.589  60.900  1.00  0.00     0.044 A 
HETATM   18  C   UNL     1       3.991  36.328  59.671  1.00  0.00     0.085 A 
HETATM   19 BR   UNL     1       5.111  38.344  61.403  1.00  0.00    -0.048 Br
HETATM   20  C   UNL     1       3.600  35.026  59.353  1.00  0.00     0.039 A 
HETATM   21  C   UNL     1       3.858  33.977  60.241  1.00  0.00     0.014 A 
BRANCH  18  22
HETATM   22  O   UNL     1       3.715  37.363  58.818  1.00  0.00    -0.355 OA
HETATM   23  C   UNL     1       4.561  37.349  57.667  1.00  0.00     0.210 C 
ENDBRANCH  18  22
ENDBRANCH   1  15
BRANCH  12  24
HETATM   24  N   UNL     1       4.256  33.777  65.935  1.00  0.00    -0.272 NA
HETATM   25  H   UNL     1       3.908  34.732  65.866  1.00  0.00     0.127 HD
HETATM   26  H   UNL     1       4.699  33.619  66.831  1.00  0.00     0.127 HD
ENDBRANCH  12  24
TORSDOF 3
ENDMDL
MODEL 9
REMARK VINA RESULT:      -7.4     10.617     13.042
REMARK  3 active torsions:
REMARK  status: ('A' for Active; 'I' for Inactive)
REMARK    1  A    between atoms: O_2  and  C_3 
REMARK    2  A    between atoms: C_7  and  C_8 
REMARK    3  A    between atoms: C_19  and  N_20 
ROOT
HETATM    1  C   UNL     1       3.018  33.775  61.955  1.00  0.00     0.244 A 
HETATM    2  N   UNL     1       3.389  34.695  60.904  1.00  0.00    -0.151 N 
HETATM    3  C   UNL     1       3.578  34.251  59.621  1.00  0.00     0.734 A 
HETATM    4  N   UNL     1       3.903  35.266  58.850  1.00  0.00    -0.060 NA
HETATM    5  C   UNL     1       3.902  36.380  59.651  1.00  0.00     0.103 A 
HETATM    6  C   UNL     1       3.560  36.052  60.959  1.00  0.00     0.083 A 
HETATM    7  C   UNL     1       4.183  37.714  59.326  1.00  0.00     0.034 A 
HETATM    8  C   UNL     1       4.105  38.682  60.333  1.00  0.00     0.002 A 
HETATM    9  C   UNL     1       3.751  38.330  61.636  1.00  0.00     0.002 A 
HETATM   10  C   UNL     1       3.468  37.004  61.981  1.00  0.00     0.033 A 
HETATM   11  N   UNL     1       3.438  32.954  59.265  1.00  0.00    -0.033 NA
HETATM   12  C   UNL     1       3.091  32.097  60.154  1.00  0.00     0.193 A 
HETATM   13  N   UNL     1       2.849  32.396  61.500  1.00  0.00    -0.339 N 
HETATM   14  H   UNL     1       2.693  31.658  62.168  1.00  0.00     0.164 HD
ENDROOT
BRANCH   1  15
HETATM   15  C   UNL     1       4.039  33.757  63.079  1.00  0.00    -0.014 A 
HETATM   16  C   UNL     1       5.345  33.276  62.867  1.00  0.00     0.033 A 
HETATM   17  C   UNL     1       6.283  33.283  63.905  1.00  0.00     0.044 A 
HETATM   18  C   UNL     1       5.934  33.778  65.162  1.00  0.00     0.085 A 
HETATM   19 BR   UNL     1       8.026  32.629  63.544  1.00  0.00    -0.048 Br
HETATM   20  C   UNL     1       4.630  34.219  65.396  1.00  0.00     0.039 A 
HETATM   21  C   UNL     1       3.688  34.210  64.363  1.00  0.00     0.014 A 
BRANCH  18  22
HETATM   22  O   UNL     1       6.852  33.758  66.178  1.00  0.00    -0.355 OA
HETATM   23  C   UNL     1       6.320  34.290  67.392  1.00  0.00     0.210 C 
ENDBRANCH  18  22
ENDBRANCH   1  15
BRANCH  12  24
HETATM   24  N   UNL     1       2.936  30.785  59.882  1.00  0.00    -0.272 NA
HETATM   25  H   UNL     1       3.191  30.214  60.685  1.00  0.00     0.127 HD
HETATM   26  H   UNL     1       3.377  30.440  59.039  1.00  0.00     0.127 HD
ENDBRANCH  12  24
TORSDOF 3
ENDMDL
MODEL 10
REMARK VINA RESULT:      -7.4      3.554      6.217
REMARK  3 active torsions:
REMARK  status: ('A' for Active; 'I' for Inactive)
REMARK    1  A    between atoms: O_2  and  C_3 
REMARK    2  A    between atoms: C_7  and  C_8 
REMARK    3  A    between atoms: C_19  and  N_20 
ROOT
HETATM    1  C   UNL     1       5.463  25.787  55.112  1.00  0.00     0.244 A 
HETATM    2  N   UNL     1       5.606  25.885  53.678  1.00  0.00    -0.151 N 
HETATM    3  C   UNL     1       6.358  24.970  52.986  1.00  0.00     0.734 A 
HETATM    4  N   UNL     1       6.334  25.264  51.704  1.00  0.00    -0.060 NA
HETATM    5  C   UNL     1       5.537  26.373  51.572  1.00  0.00     0.103 A 
HETATM    6  C   UNL     1       5.043  26.780  52.808  1.00  0.00     0.083 A 
HETATM    7  C   UNL     1       5.186  27.090  50.420  1.00  0.00     0.034 A 
HETATM    8  C   UNL     1       4.340  28.196  50.548  1.00  0.00     0.002 A 
HETATM    9  C   UNL     1       3.851  28.580  51.798  1.00  0.00     0.002 A 
HETATM   10  C   UNL     1       4.190  27.879  52.960  1.00  0.00     0.033 A 
HETATM   11  N   UNL     1       7.003  23.946  53.588  1.00  0.00    -0.033 NA
HETATM   12  C   UNL     1       6.895  23.800  54.858  1.00  0.00     0.193 A 
HETATM   13  N   UNL     1       6.155  24.640  55.697  1.00  0.00    -0.339 N 
HETATM   14  H   UNL     1       6.206  24.537  56.699  1.00  0.00     0.164 HD
ENDROOT
BRANCH   1  15
HETATM   15  C   UNL     1       5.974  27.031  55.819  1.00  0.00    -0.014 A 
HETATM   16  C   UNL     1       5.082  27.987  56.342  1.00  0.00     0.033 A 
HETATM   17  C   UNL     1       5.563  29.118  57.010  1.00  0.00     0.044 A 
HETATM   18  C   UNL     1       6.937  29.304  57.173  1.00  0.00     0.085 A 
HETATM   19 BR   UNL     1       4.304  30.358  57.696  1.00  0.00    -0.048 Br
HETATM   20  C   UNL     1       7.831  28.384  56.623  1.00  0.00     0.039 A 
HETATM   21  C   UNL     1       7.355  27.255  55.951  1.00  0.00     0.014 A 
BRANCH  18  22
HETATM   22  O   UNL     1       7.398  30.427  57.807  1.00  0.00    -0.355 OA
HETATM   23  C   UNL     1       8.091  30.113  59.016  1.00  0.00     0.210 C 
ENDBRANCH  18  22
ENDBRANCH   1  15
BRANCH  12  24
HETATM   24  N   UNL     1       7.511  22.809  55.533  1.00  0.00    -0.272 NA
HETATM   25  H   UNL     1       7.140  21.899  55.264  1.00  0.00     0.127 HD
HETATM   26  H   UNL     1       7.548  22.899  56.541  1.00  0.00     0.127 HD
ENDBRANCH  12  24
TORSDOF 3
ENDMDL
