MODEL 1
REMARK VINA RESULT:      -8.2      0.000      0.000
REMARK  7 active torsions:
REMARK  status: ('A' for Active; 'I' for Inactive)
REMARK    1  A    between atoms: C_8  and  C_9 
REMARK    2  A    between atoms: C_9  and  C_10 
REMARK    3  A    between atoms: C_10  and  C_11 
REMARK       I    between atoms: C_11  and  N_12 
REMARK    4  A    between atoms: N_12  and  C_13 
REMARK    5  A    between atoms: C_13  and  C_14 
REMARK    6  A    between atoms: C_14  and  N_15 
REMARK    7  A    between atoms: C_14  and  C_19 
ROOT
HETATM    1  C   UNL     1       6.170  28.260  56.764  1.00  0.00     0.217 C 
HETATM    2  N   UNL     1       6.830  27.057  56.865  1.00  0.00    -0.359 N 
HETATM    3  O   UNL     1       5.136  28.361  56.104  1.00  0.00    -0.274 OA
HETATM    4  H   UNL     1       7.799  27.097  57.157  1.00  0.00     0.162 HD
ENDROOT
BRANCH   2   5
HETATM    5  C   UNL     1       6.446  25.890  56.068  1.00  0.00     0.160 C 
BRANCH   5   6
HETATM    6  C   UNL     1       7.213  25.660  54.716  1.00  0.00     0.239 C 
BRANCH   6   7
HETATM    7  N   UNL     1       6.488  26.277  53.506  1.00  0.00    -0.069 N 
HETATM    8  H   UNL     1       6.827  25.711  52.716  1.00  0.00     0.279 HD
HETATM    9  C   UNL     1       4.999  26.121  53.457  1.00  0.00     0.270 C 
HETATM   10  C   UNL     1       6.927  27.672  53.159  1.00  0.00     0.270 C 
ENDBRANCH   6   7
BRANCH   6  11
HETATM   11  C   UNL     1       7.732  24.243  54.433  1.00  0.00    -0.004 A 
HETATM   12  C   UNL     1       8.602  23.588  55.335  1.00  0.00     0.042 A 
HETATM   13 CL   UNL     1       9.115  24.333  56.812  1.00  0.00    -0.084 Cl
HETATM   14  C   UNL     1       9.093  22.304  55.079  1.00  0.00     0.024 A 
HETATM   15  C   UNL     1       8.712  21.627  53.927  1.00  0.00     0.002 A 
HETATM   16  C   UNL     1       7.830  22.229  53.039  1.00  0.00     0.001 A 
HETATM   17  C   UNL     1       7.342  23.515  53.291  1.00  0.00     0.011 A 
ENDBRANCH   6  11
ENDBRANCH   5   6
ENDBRANCH   2   5
BRANCH   1  18
HETATM   18  C   UNL     1       6.690  29.429  57.584  1.00  0.00     0.107 C 
BRANCH  18  19
HETATM   19  C   UNL     1       7.904  29.164  58.467  1.00  0.00     0.052 C 
BRANCH  19  20
HETATM   20  C   UNL     1       8.903  30.269  58.412  1.00  0.00    -0.008 A 
HETATM   21  C   UNL     1      10.061  30.337  57.659  1.00  0.00     0.032 A 
HETATM   22  C   UNL     1      10.681  29.394  56.698  1.00  0.00     0.070 C 
HETATM   23  N   UNL     1      10.632  31.544  57.957  1.00  0.00    -0.282 N 
HETATM   24  H   UNL     1      11.493  31.941  57.594  1.00  0.00     0.189 HD
HETATM   25  N   UNL     1       9.931  32.263  58.844  1.00  0.00    -0.179 NA
HETATM   26  C   UNL     1       8.878  31.496  59.134  1.00  0.00     0.059 A 
HETATM   27  C   UNL     1       7.864  31.970  60.108  1.00  0.00     0.073 C 
ENDBRANCH  19  20
ENDBRANCH  18  19
ENDBRANCH   1  18
TORSDOF 7
ENDMDL
MODEL 2
REMARK VINA RESULT:      -8.1      0.404      1.692
REMARK  7 active torsions:
REMARK  status: ('A' for Active; 'I' for Inactive)
REMARK    1  A    between atoms: C_8  and  C_9 
REMARK    2  A    between atoms: C_9  and  C_10 
REMARK    3  A    between atoms: C_10  and  C_11 
REMARK       I    between atoms: C_11  and  N_12 
REMARK    4  A    between atoms: N_12  and  C_13 
REMARK    5  A    between atoms: C_13  and  C_14 
REMARK    6  A    between atoms: C_14  and  N_15 
REMARK    7  A    between atoms: C_14  and  C_19 
ROOT
HETATM    1  C   UNL     1       6.231  27.946  56.530  1.00  0.00     0.217 C 
HETATM    2  N   UNL     1       6.884  26.740  56.636  1.00  0.00    -0.359 N 
HETATM    3  O   UNL     1       5.176  28.044  55.906  1.00  0.00    -0.274 OA
HETATM    4  H   UNL     1       7.863  26.776  56.892  1.00  0.00     0.162 HD
ENDROOT
BRANCH   2   5
HETATM    5  C   UNL     1       6.460  25.559  55.880  1.00  0.00     0.160 C 
BRANCH   5   6
HETATM    6  C   UNL     1       7.184  25.284  54.513  1.00  0.00     0.239 C 
BRANCH   6   7
HETATM    7  N   UNL     1       6.383  25.789  53.300  1.00  0.00    -0.069 N 
HETATM    8  H   UNL     1       6.727  25.200  52.529  1.00  0.00     0.279 HD
HETATM    9  C   UNL     1       4.905  25.547  53.316  1.00  0.00     0.270 C 
HETATM   10  C   UNL     1       6.727  27.185  52.861  1.00  0.00     0.270 C 
ENDBRANCH   6   7
BRANCH   6  11
HETATM   11  C   UNL     1       7.763  23.879  54.293  1.00  0.00    -0.004 A 
HETATM   12  C   UNL     1       8.662  23.303  55.222  1.00  0.00     0.042 A 
HETATM   13 CL   UNL     1       9.144  24.136  56.662  1.00  0.00    -0.084 Cl
HETATM   14  C   UNL     1       9.207  22.031  55.023  1.00  0.00     0.024 A 
HETATM   15  C   UNL     1       8.854  21.286  53.904  1.00  0.00     0.002 A 
HETATM   16  C   UNL     1       7.947  21.809  52.993  1.00  0.00     0.001 A 
HETATM   17  C   UNL     1       7.404  23.084  53.187  1.00  0.00     0.011 A 
ENDBRANCH   6  11
ENDBRANCH   5   6
ENDBRANCH   2   5
BRANCH   1  18
HETATM   18  C   UNL     1       6.792  29.129  57.303  1.00  0.00     0.107 C 
BRANCH  18  19
HETATM   19  C   UNL     1       7.994  28.857  58.200  1.00  0.00     0.052 C 
BRANCH  19  20
HETATM   20  C   UNL     1       8.868  30.054  58.363  1.00  0.00    -0.008 A 
HETATM   21  C   UNL     1       8.717  31.109  59.243  1.00  0.00     0.032 A 
HETATM   22  C   UNL     1       7.694  31.407  60.274  1.00  0.00     0.070 C 
HETATM   23  N   UNL     1       9.769  31.950  59.005  1.00  0.00    -0.282 N 
HETATM   24  H   UNL     1       9.989  32.830  59.462  1.00  0.00     0.189 HD
HETATM   25  N   UNL     1      10.591  31.519  58.039  1.00  0.00    -0.179 NA
HETATM   26  C   UNL     1      10.051  30.367  57.635  1.00  0.00     0.059 A 
HETATM   27  C   UNL     1      10.696  29.589  56.548  1.00  0.00     0.073 C 
ENDBRANCH  19  20
ENDBRANCH  18  19
ENDBRANCH   1  18
TORSDOF 7
ENDMDL
MODEL 3
REMARK VINA RESULT:      -7.9      3.201      7.181
REMARK  7 active torsions:
REMARK  status: ('A' for Active; 'I' for Inactive)
REMARK    1  A    between atoms: C_8  and  C_9 
REMARK    2  A    between atoms: C_9  and  C_10 
REMARK    3  A    between atoms: C_10  and  C_11 
REMARK       I    between atoms: C_11  and  N_12 
REMARK    4  A    between atoms: N_12  and  C_13 
REMARK    5  A    between atoms: C_13  and  C_14 
REMARK    6  A    between atoms: C_14  and  N_15 
REMARK    7  A    between atoms: C_14  and  C_19 
ROOT
HETATM    1  C   UNL     1       6.264  25.590  53.294  1.00  0.00     0.217 C 
HETATM    2  N   UNL     1       5.017  26.063  53.627  1.00  0.00    -0.359 N 
HETATM    3  O   UNL     1       7.209  26.359  53.120  1.00  0.00    -0.274 OA
HETATM    4  H   UNL     1       4.238  25.437  53.466  1.00  0.00     0.162 HD
ENDROOT
BRANCH   2   5
HETATM    5  C   UNL     1       4.703  27.494  53.624  1.00  0.00     0.160 C 
BRANCH   5   6
HETATM    6  C   UNL     1       4.753  28.242  55.005  1.00  0.00     0.239 C 
BRANCH   6   7
HETATM    7  N   UNL     1       4.220  29.684  54.924  1.00  0.00    -0.069 N 
HETATM    8  H   UNL     1       5.078  30.251  54.890  1.00  0.00     0.279 HD
HETATM    9  C   UNL     1       3.481  30.063  53.677  1.00  0.00     0.270 C 
HETATM   10  C   UNL     1       3.525  30.163  56.167  1.00  0.00     0.270 C 
ENDBRANCH   6   7
BRANCH   6  11
HETATM   11  C   UNL     1       6.054  28.140  55.815  1.00  0.00    -0.004 A 
HETATM   12  C   UNL     1       6.226  27.141  56.801  1.00  0.00     0.042 A 
HETATM   13 CL   UNL     1       4.995  25.970  57.139  1.00  0.00    -0.084 Cl
HETATM   14  C   UNL     1       7.400  27.049  57.555  1.00  0.00     0.024 A 
HETATM   15  C   UNL     1       8.446  27.936  57.331  1.00  0.00     0.002 A 
HETATM   16  C   UNL     1       8.322  28.905  56.344  1.00  0.00     0.001 A 
HETATM   17  C   UNL     1       7.146  29.002  55.593  1.00  0.00     0.011 A 
ENDBRANCH   6  11
ENDBRANCH   5   6
ENDBRANCH   2   5
BRANCH   1  18
HETATM   18  C   UNL     1       6.469  24.083  53.260  1.00  0.00     0.107 C 
BRANCH  18  19
HETATM   19  C   UNL     1       7.898  23.587  53.073  1.00  0.00     0.052 C 
BRANCH  19  20
HETATM   20  C   UNL     1       8.294  22.584  54.102  1.00  0.00    -0.008 A 
HETATM   21  C   UNL     1       8.598  22.801  55.434  1.00  0.00     0.032 A 
HETATM   22  C   UNL     1       8.634  24.031  56.259  1.00  0.00     0.070 C 
HETATM   23  N   UNL     1       8.899  21.572  55.954  1.00  0.00    -0.282 N 
HETATM   24  H   UNL     1       9.169  21.339  56.905  1.00  0.00     0.189 HD
HETATM   25  N   UNL     1       8.813  20.577  55.062  1.00  0.00    -0.179 NA
HETATM   26  C   UNL     1       8.450  21.180  53.927  1.00  0.00     0.059 A 
HETATM   27  C   UNL     1       8.260  20.380  52.693  1.00  0.00     0.073 C 
ENDBRANCH  19  20
ENDBRANCH  18  19
ENDBRANCH   1  18
TORSDOF 7
ENDMDL
MODEL 4
REMARK VINA RESULT:      -7.9      3.184      6.977
REMARK  7 active torsions:
REMARK  status: ('A' for Active; 'I' for Inactive)
REMARK    1  A    between atoms: C_8  and  C_9 
REMARK    2  A    between atoms: C_9  and  C_10 
REMARK    3  A    between atoms: C_10  and  C_11 
REMARK       I    between atoms: C_11  and  N_12 
REMARK    4  A    between atoms: N_12  and  C_13 
REMARK    5  A    between atoms: C_13  and  C_14 
REMARK    6  A    between atoms: C_14  and  N_15 
REMARK    7  A    between atoms: C_14  and  C_19 
ROOT
HETATM    1  C   UNL     1       5.942  25.021  53.043  1.00  0.00     0.217 C 
HETATM    2  N   UNL     1       6.712  26.131  52.781  1.00  0.00    -0.359 N 
HETATM    3  O   UNL     1       4.716  25.101  53.109  1.00  0.00    -0.274 OA
HETATM    4  H   UNL     1       7.692  26.070  53.030  1.00  0.00     0.162 HD
ENDROOT
BRANCH   2   5
HETATM    5  C   UNL     1       6.142  27.479  52.738  1.00  0.00     0.160 C 
BRANCH   5   6
HETATM    6  C   UNL     1       5.743  28.134  54.110  1.00  0.00     0.239 C 
BRANCH   6   7
HETATM    7  N   UNL     1       5.102  29.523  53.945  1.00  0.00    -0.069 N 
HETATM    8  H   UNL     1       5.912  30.157  53.928  1.00  0.00     0.279 HD
HETATM    9  C   UNL     1       4.396  29.794  52.651  1.00  0.00     0.270 C 
HETATM   10  C   UNL     1       4.311  29.990  55.135  1.00  0.00     0.270 C 
ENDBRANCH   6   7
BRANCH   6  11
HETATM   11  C   UNL     1       6.785  28.097  55.237  1.00  0.00    -0.004 A 
HETATM   12  C   UNL     1       6.655  27.202  56.325  1.00  0.00     0.042 A 
HETATM   13 CL   UNL     1       5.331  26.090  56.440  1.00  0.00    -0.084 Cl
HETATM   14  C   UNL     1       7.589  27.171  57.366  1.00  0.00     0.024 A 
HETATM   15  C   UNL     1       8.693  28.015  57.339  1.00  0.00     0.002 A 
HETATM   16  C   UNL     1       8.868  28.879  56.266  1.00  0.00     0.001 A 
HETATM   17  C   UNL     1       7.932  28.915  55.228  1.00  0.00     0.011 A 
ENDBRANCH   6  11
ENDBRANCH   5   6
ENDBRANCH   2   5
BRANCH   1  18
HETATM   18  C   UNL     1       6.642  23.674  53.134  1.00  0.00     0.107 C 
BRANCH  18  19
HETATM   19  C   UNL     1       8.036  23.663  53.751  1.00  0.00     0.052 C 
BRANCH  19  20
HETATM   20  C   UNL     1       8.272  22.467  54.608  1.00  0.00    -0.008 A 
HETATM   21  C   UNL     1       8.399  21.147  54.215  1.00  0.00     0.032 A 
HETATM   22  C   UNL     1       8.347  20.494  52.885  1.00  0.00     0.070 C 
HETATM   23  N   UNL     1       8.603  20.432  55.363  1.00  0.00    -0.282 N 
HETATM   24  H   UNL     1       8.739  19.431  55.467  1.00  0.00     0.189 HD
HETATM   25  N   UNL     1       8.619  21.188  56.469  1.00  0.00    -0.179 NA
HETATM   26  C   UNL     1       8.414  22.430  56.024  1.00  0.00     0.059 A 
HETATM   27  C   UNL     1       8.360  23.560  56.984  1.00  0.00     0.073 C 
ENDBRANCH  19  20
ENDBRANCH  18  19
ENDBRANCH   1  18
TORSDOF 7
ENDMDL
MODEL 5
REMARK VINA RESULT:      -7.7      5.497      8.582
REMARK  7 active torsions:
REMARK  status: ('A' for Active; 'I' for Inactive)
REMARK    1  A    between atoms: C_8  and  C_9 
REMARK    2  A    between atoms: C_9  and  C_10 
REMARK    3  A    between atoms: C_10  and  C_11 
REMARK       I    between atoms: C_11  and  N_12 
REMARK    4  A    between atoms: N_12  and  C_13 
REMARK    5  A    between atoms: C_13  and  C_14 
REMARK    6  A    between atoms: C_14  and  N_15 
REMARK    7  A    between atoms: C_14  and  C_19 
ROOT
HETATM    1  C   UNL     1       6.082  25.568  52.123  1.00  0.00     0.217 C 
HETATM    2  N   UNL     1       4.828  25.819  51.616  1.00  0.00    -0.359 N 
HETATM    3  O   UNL     1       6.935  26.453  52.174  1.00  0.00    -0.274 OA
HETATM    4  H   UNL     1       4.287  25.013  51.328  1.00  0.00     0.162 HD
ENDROOT
BRANCH   2   5
HETATM    5  C   UNL     1       4.496  27.085  50.959  1.00  0.00     0.160 C 
BRANCH   5   6
HETATM    6  C   UNL     1       4.465  27.092  49.388  1.00  0.00     0.239 C 
BRANCH   6   7
HETATM    7  N   UNL     1       5.647  27.860  48.770  1.00  0.00    -0.069 N 
HETATM    8  H   UNL     1       6.464  27.305  49.056  1.00  0.00     0.279 HD
HETATM    9  C   UNL     1       5.728  27.890  47.274  1.00  0.00     0.270 C 
HETATM   10  C   UNL     1       5.902  29.209  49.382  1.00  0.00     0.270 C 
ENDBRANCH   6   7
BRANCH   6  11
HETATM   11  C   UNL     1       3.127  27.426  48.711  1.00  0.00    -0.004 A 
HETATM   12  C   UNL     1       2.463  26.480  47.896  1.00  0.00     0.042 A 
HETATM   13 CL   UNL     1       3.105  24.893  47.629  1.00  0.00    -0.084 Cl
HETATM   14  C   UNL     1       1.253  26.779  47.262  1.00  0.00     0.024 A 
HETATM   15  C   UNL     1       0.658  28.022  47.442  1.00  0.00     0.002 A 
HETATM   16  C   UNL     1       1.267  28.959  48.266  1.00  0.00     0.001 A 
HETATM   17  C   UNL     1       2.481  28.664  48.896  1.00  0.00     0.011 A 
ENDBRANCH   6  11
ENDBRANCH   5   6
ENDBRANCH   2   5
BRANCH   1  18
HETATM   18  C   UNL     1       6.345  24.196  52.724  1.00  0.00     0.107 C 
BRANCH  18  19
HETATM   19  C   UNL     1       7.803  23.772  52.857  1.00  0.00     0.052 C 
BRANCH  19  20
HETATM   20  C   UNL     1       8.029  22.853  54.009  1.00  0.00    -0.008 A 
HETATM   21  C   UNL     1       8.178  21.479  53.989  1.00  0.00     0.032 A 
HETATM   22  C   UNL     1       8.169  20.492  52.883  1.00  0.00     0.070 C 
HETATM   23  N   UNL     1       8.358  21.102  55.292  1.00  0.00    -0.282 N 
HETATM   24  H   UNL     1       8.501  20.169  55.664  1.00  0.00     0.189 HD
HETATM   25  N   UNL     1       8.337  22.128  56.153  1.00  0.00    -0.179 NA
HETATM   26  C   UNL     1       8.132  23.201  55.386  1.00  0.00     0.059 A 
HETATM   27  C   UNL     1       8.041  24.546  56.005  1.00  0.00     0.073 C 
ENDBRANCH  19  20
ENDBRANCH  18  19
ENDBRANCH   1  18
TORSDOF 7
ENDMDL
MODEL 6
REMARK VINA RESULT:      -7.7      1.903      3.229
REMARK  7 active torsions:
REMARK  status: ('A' for Active; 'I' for Inactive)
REMARK    1  A    between atoms: C_8  and  C_9 
REMARK    2  A    between atoms: C_9  and  C_10 
REMARK    3  A    between atoms: C_10  and  C_11 
REMARK       I    between atoms: C_11  and  N_12 
REMARK    4  A    between atoms: N_12  and  C_13 
REMARK    5  A    between atoms: C_13  and  C_14 
REMARK    6  A    between atoms: C_14  and  N_15 
REMARK    7  A    between atoms: C_14  and  C_19 
ROOT
HETATM    1  C   UNL     1       8.151  26.936  57.078  1.00  0.00     0.217 C 
HETATM    2  N   UNL     1       8.324  25.661  57.564  1.00  0.00    -0.359 N 
HETATM    3  O   UNL     1       8.265  27.177  55.877  1.00  0.00    -0.274 OA
HETATM    4  H   UNL     1       8.511  25.576  58.556  1.00  0.00     0.162 HD
ENDROOT
BRANCH   2   5
HETATM    5  C   UNL     1       8.817  24.569  56.722  1.00  0.00     0.160 C 
BRANCH   5   6
HETATM    6  C   UNL     1       7.743  23.641  56.049  1.00  0.00     0.239 C 
BRANCH   6   7
HETATM    7  N   UNL     1       8.238  22.196  55.854  1.00  0.00    -0.069 N 
HETATM    8  H   UNL     1       7.502  21.771  55.275  1.00  0.00     0.279 HD
HETATM    9  C   UNL     1       9.489  22.012  55.051  1.00  0.00     0.270 C 
HETATM   10  C   UNL     1       8.235  21.361  57.104  1.00  0.00     0.270 C 
ENDBRANCH   6   7
BRANCH   6  11
HETATM   11  C   UNL     1       7.017  24.186  54.810  1.00  0.00    -0.004 A 
HETATM   12  C   UNL     1       5.804  24.903  54.929  1.00  0.00     0.042 A 
HETATM   13 CL   UNL     1       5.078  25.222  56.469  1.00  0.00    -0.084 Cl
HETATM   14  C   UNL     1       5.126  25.390  53.806  1.00  0.00     0.024 A 
HETATM   15  C   UNL     1       5.652  25.197  52.534  1.00  0.00     0.002 A 
HETATM   16  C   UNL     1       6.861  24.529  52.388  1.00  0.00     0.001 A 
HETATM   17  C   UNL     1       7.536  24.036  53.509  1.00  0.00     0.011 A 
ENDBRANCH   6  11
ENDBRANCH   5   6
ENDBRANCH   2   5
BRANCH   1  18
HETATM   18  C   UNL     1       7.700  28.014  58.051  1.00  0.00     0.107 C 
BRANCH  18  19
HETATM   19  C   UNL     1       7.487  29.411  57.479  1.00  0.00     0.052 C 
BRANCH  19  20
HETATM   20  C   UNL     1       8.487  30.394  57.984  1.00  0.00    -0.008 A 
HETATM   21  C   UNL     1       9.835  30.471  57.686  1.00  0.00     0.032 A 
HETATM   22  C   UNL     1      10.709  29.654  56.811  1.00  0.00     0.070 C 
HETATM   23  N   UNL     1      10.316  31.536  58.396  1.00  0.00    -0.282 N 
HETATM   24  H   UNL     1      11.265  31.897  58.426  1.00  0.00     0.189 HD
HETATM   25  N   UNL     1       9.383  32.155  59.130  1.00  0.00    -0.179 NA
HETATM   26  C   UNL     1       8.264  31.467  58.893  1.00  0.00     0.059 A 
HETATM   27  C   UNL     1       6.996  31.865  59.553  1.00  0.00     0.073 C 
ENDBRANCH  19  20
ENDBRANCH  18  19
ENDBRANCH   1  18
TORSDOF 7
ENDMDL
MODEL 7
REMARK VINA RESULT:      -7.7      1.657      2.056
REMARK  7 active torsions:
REMARK  status: ('A' for Active; 'I' for Inactive)
REMARK    1  A    between atoms: C_8  and  C_9 
REMARK    2  A    between atoms: C_9  and  C_10 
REMARK    3  A    between atoms: C_10  and  C_11 
REMARK       I    between atoms: C_11  and  N_12 
REMARK    4  A    between atoms: N_12  and  C_13 
REMARK    5  A    between atoms: C_13  and  C_14 
REMARK    6  A    between atoms: C_14  and  N_15 
REMARK    7  A    between atoms: C_14  and  C_19 
ROOT
HETATM    1  C   UNL     1       7.929  27.805  57.432  1.00  0.00     0.217 C 
HETATM    2  N   UNL     1       7.296  26.584  57.398  1.00  0.00    -0.359 N 
HETATM    3  O   UNL     1       8.964  28.000  56.796  1.00  0.00    -0.274 OA
HETATM    4  H   UNL     1       6.643  26.392  58.149  1.00  0.00     0.162 HD
ENDROOT
BRANCH   2   5
HETATM    5  C   UNL     1       7.898  25.414  56.756  1.00  0.00     0.160 C 
BRANCH   5   6
HETATM    6  C   UNL     1       7.579  25.187  55.234  1.00  0.00     0.239 C 
BRANCH   6   7
HETATM    7  N   UNL     1       6.284  25.888  54.784  1.00  0.00    -0.069 N 
HETATM    8  H   UNL     1       5.860  26.191  55.671  1.00  0.00     0.279 HD
HETATM    9  C   UNL     1       6.438  27.154  53.998  1.00  0.00     0.270 C 
HETATM   10  C   UNL     1       5.252  24.970  54.191  1.00  0.00     0.270 C 
ENDBRANCH   6   7
BRANCH   6  11
HETATM   11  C   UNL     1       7.689  23.752  54.698  1.00  0.00    -0.004 A 
HETATM   12  C   UNL     1       7.974  23.500  53.335  1.00  0.00     0.042 A 
HETATM   13 CL   UNL     1       8.232  24.786  52.203  1.00  0.00    -0.084 Cl
HETATM   14  C   UNL     1       8.060  22.198  52.832  1.00  0.00     0.024 A 
HETATM   15  C   UNL     1       7.888  21.109  53.679  1.00  0.00     0.002 A 
HETATM   16  C   UNL     1       7.644  21.324  55.028  1.00  0.00     0.001 A 
HETATM   17  C   UNL     1       7.551  22.626  55.532  1.00  0.00     0.011 A 
ENDBRANCH   6  11
ENDBRANCH   5   6
ENDBRANCH   2   5
BRANCH   1  18
HETATM   18  C   UNL     1       7.250  28.939  58.183  1.00  0.00     0.107 C 
BRANCH  18  19
HETATM   19  C   UNL     1       7.483  30.350  57.656  1.00  0.00     0.052 C 
BRANCH  19  20
HETATM   20  C   UNL     1       8.369  31.153  58.545  1.00  0.00    -0.008 A 
HETATM   21  C   UNL     1       9.746  31.275  58.495  1.00  0.00     0.032 A 
HETATM   22  C   UNL     1      10.765  30.687  57.594  1.00  0.00     0.070 C 
HETATM   23  N   UNL     1      10.085  32.118  59.518  1.00  0.00    -0.282 N 
HETATM   24  H   UNL     1      11.009  32.440  59.789  1.00  0.00     0.189 HD
HETATM   25  N   UNL     1       9.034  32.551  60.225  1.00  0.00    -0.179 NA
HETATM   26  C   UNL     1       7.982  31.967  59.647  1.00  0.00     0.059 A 
HETATM   27  C   UNL     1       6.617  32.212  60.175  1.00  0.00     0.073 C 
ENDBRANCH  19  20
ENDBRANCH  18  19
ENDBRANCH   1  18
TORSDOF 7
ENDMDL
MODEL 8
REMARK VINA RESULT:      -7.6      2.690      7.493
REMARK  7 active torsions:
REMARK  status: ('A' for Active; 'I' for Inactive)
REMARK    1  A    between atoms: C_8  and  C_9 
REMARK    2  A    between atoms: C_9  and  C_10 
REMARK    3  A    between atoms: C_10  and  C_11 
REMARK       I    between atoms: C_11  and  N_12 
REMARK    4  A    between atoms: N_12  and  C_13 
REMARK    5  A    between atoms: C_13  and  C_14 
REMARK    6  A    between atoms: C_14  and  N_15 
REMARK    7  A    between atoms: C_14  and  C_19 
ROOT
HETATM    1  C   UNL     1       5.919  25.549  56.402  1.00  0.00     0.217 C 
HETATM    2  N   UNL     1       6.279  26.873  56.310  1.00  0.00    -0.359 N 
HETATM    3  O   UNL     1       5.138  25.163  57.271  1.00  0.00    -0.274 OA
HETATM    4  H   UNL     1       7.124  27.077  55.791  1.00  0.00     0.162 HD
ENDROOT
BRANCH   2   5
HETATM    5  C   UNL     1       5.898  27.854  57.329  1.00  0.00     0.160 C 
BRANCH   5   6
HETATM    6  C   UNL     1       6.413  29.326  57.136  1.00  0.00     0.239 C 
BRANCH   6   7
HETATM    7  N   UNL     1       5.588  30.117  56.104  1.00  0.00    -0.069 N 
HETATM    8  H   UNL     1       6.233  30.209  55.308  1.00  0.00     0.279 HD
HETATM    9  C   UNL     1       4.387  29.432  55.528  1.00  0.00     0.270 C 
HETATM   10  C   UNL     1       5.301  31.540  56.494  1.00  0.00     0.270 C 
ENDBRANCH   6   7
BRANCH   6  11
HETATM   11  C   UNL     1       7.925  29.526  56.959  1.00  0.00    -0.004 A 
HETATM   12  C   UNL     1       8.732  29.988  58.025  1.00  0.00     0.042 A 
HETATM   13 CL   UNL     1       8.070  30.336  59.587  1.00  0.00    -0.084 Cl
HETATM   14  C   UNL     1      10.108  30.189  57.870  1.00  0.00     0.024 A 
HETATM   15  C   UNL     1      10.722  29.912  56.654  1.00  0.00     0.002 A 
HETATM   16  C   UNL     1       9.963  29.422  55.600  1.00  0.00     0.001 A 
HETATM   17  C   UNL     1       8.586  29.226  55.751  1.00  0.00     0.011 A 
ENDBRANCH   6  11
ENDBRANCH   5   6
ENDBRANCH   2   5
BRANCH   1  18
HETATM   18  C   UNL     1       6.422  24.598  55.328  1.00  0.00     0.107 C 
BRANCH  18  19
HETATM   19  C   UNL     1       7.549  23.649  55.723  1.00  0.00     0.052 C 
BRANCH  19  20
HETATM   20  C   UNL     1       7.763  22.568  54.720  1.00  0.00    -0.008 A 
HETATM   21  C   UNL     1       7.892  22.687  53.348  1.00  0.00     0.032 A 
HETATM   22  C   UNL     1       7.865  23.862  52.445  1.00  0.00     0.070 C 
HETATM   23  N   UNL     1       8.069  21.416  52.876  1.00  0.00    -0.282 N 
HETATM   24  H   UNL     1       8.199  21.113  51.916  1.00  0.00     0.189 HD
HETATM   25  N   UNL     1       8.065  20.483  53.836  1.00  0.00    -0.179 NA
HETATM   26  C   UNL     1       7.875  21.170  54.965  1.00  0.00     0.059 A 
HETATM   27  C   UNL     1       7.806  20.454  56.263  1.00  0.00     0.073 C 
ENDBRANCH  19  20
ENDBRANCH  18  19
ENDBRANCH   1  18
TORSDOF 7
ENDMDL
MODEL 9
REMARK VINA RESULT:      -7.5      4.007      7.925
REMARK  7 active torsions:
REMARK  status: ('A' for Active; 'I' for Inactive)
REMARK    1  A    between atoms: C_8  and  C_9 
REMARK    2  A    between atoms: C_9  and  C_10 
REMARK    3  A    between atoms: C_10  and  C_11 
REMARK       I    between atoms: C_11  and  N_12 
REMARK    4  A    between atoms: N_12  and  C_13 
REMARK    5  A    between atoms: C_13  and  C_14 
REMARK    6  A    between atoms: C_14  and  N_15 
REMARK    7  A    between atoms: C_14  and  C_19 
ROOT
HETATM    1  C   UNL     1       4.855  26.438  51.051  1.00  0.00     0.217 C 
HETATM    2  N   UNL     1       4.923  25.205  51.657  1.00  0.00    -0.359 N 
HETATM    3  O   UNL     1       4.610  27.452  51.702  1.00  0.00    -0.274 OA
HETATM    4  H   UNL     1       4.829  24.398  51.052  1.00  0.00     0.162 HD
ENDROOT
BRANCH   2   5
HETATM    5  C   UNL     1       4.543  25.006  53.057  1.00  0.00     0.160 C 
BRANCH   5   6
HETATM    6  C   UNL     1       5.651  25.253  54.143  1.00  0.00     0.239 C 
BRANCH   6   7
HETATM    7  N   UNL     1       6.180  26.699  54.140  1.00  0.00    -0.069 N 
HETATM    8  H   UNL     1       5.633  27.148  53.393  1.00  0.00     0.279 HD
HETATM    9  C   UNL     1       5.891  27.528  55.354  1.00  0.00     0.270 C 
HETATM   10  C   UNL     1       7.602  26.843  53.676  1.00  0.00     0.270 C 
ENDBRANCH   6   7
BRANCH   6  11
HETATM   11  C   UNL     1       6.778  24.215  54.248  1.00  0.00    -0.004 A 
HETATM   12  C   UNL     1       7.364  23.895  55.495  1.00  0.00     0.042 A 
HETATM   13 CL   UNL     1       6.837  24.637  56.969  1.00  0.00    -0.084 Cl
HETATM   14  C   UNL     1       8.402  22.963  55.600  1.00  0.00     0.024 A 
HETATM   15  C   UNL     1       8.869  22.306  54.468  1.00  0.00     0.002 A 
HETATM   16  C   UNL     1       8.289  22.572  53.235  1.00  0.00     0.001 A 
HETATM   17  C   UNL     1       7.255  23.508  53.127  1.00  0.00     0.011 A 
ENDBRANCH   6  11
ENDBRANCH   5   6
ENDBRANCH   2   5
BRANCH   1  18
HETATM   18  C   UNL     1       5.205  26.526  49.574  1.00  0.00     0.107 C 
BRANCH  18  19
HETATM   19  C   UNL     1       4.576  27.668  48.784  1.00  0.00     0.052 C 
BRANCH  19  20
HETATM   20  C   UNL     1       3.115  27.472  48.563  1.00  0.00    -0.008 A 
HETATM   21  C   UNL     1       2.480  26.423  47.922  1.00  0.00     0.032 A 
HETATM   22  C   UNL     1       2.996  25.197  47.269  1.00  0.00     0.070 C 
HETATM   23  N   UNL     1       1.142  26.704  47.978  1.00  0.00    -0.282 N 
HETATM   24  H   UNL     1       0.368  26.159  47.611  1.00  0.00     0.189 HD
HETATM   25  N   UNL     1       0.863  27.854  48.606  1.00  0.00    -0.179 NA
HETATM   26  C   UNL     1       2.055  28.335  48.963  1.00  0.00     0.059 A 
HETATM   27  C   UNL     1       2.144  29.626  49.689  1.00  0.00     0.073 C 
ENDBRANCH  19  20
ENDBRANCH  18  19
ENDBRANCH   1  18
TORSDOF 7
ENDMDL
MODEL 10
REMARK VINA RESULT:      -7.5      3.950      7.639
REMARK  7 active torsions:
REMARK  status: ('A' for Active; 'I' for Inactive)
REMARK    1  A    between atoms: C_8  and  C_9 
REMARK    2  A    between atoms: C_9  and  C_10 
REMARK    3  A    between atoms: C_10  and  C_11 
REMARK       I    between atoms: C_11  and  N_12 
REMARK    4  A    between atoms: N_12  and  C_13 
REMARK    5  A    between atoms: C_13  and  C_14 
REMARK    6  A    between atoms: C_14  and  N_15 
REMARK    7  A    between atoms: C_14  and  C_19 
ROOT
HETATM    1  C   UNL     1       4.568  28.165  51.239  1.00  0.00     0.217 C 
HETATM    2  N   UNL     1       4.641  26.823  51.533  1.00  0.00    -0.359 N 
HETATM    3  O   UNL     1       5.583  28.858  51.183  1.00  0.00    -0.274 OA
HETATM    4  H   UNL     1       3.787  26.383  51.853  1.00  0.00     0.162 HD
ENDROOT
BRANCH   2   5
HETATM    5  C   UNL     1       5.890  26.188  51.958  1.00  0.00     0.160 C 
BRANCH   5   6
HETATM    6  C   UNL     1       6.035  25.842  53.484  1.00  0.00     0.239 C 
BRANCH   6   7
HETATM    7  N   UNL     1       6.510  27.040  54.327  1.00  0.00    -0.069 N 
HETATM    8  H   UNL     1       6.863  26.598  55.186  1.00  0.00     0.279 HD
HETATM    9  C   UNL     1       7.682  27.814  53.804  1.00  0.00     0.270 C 
HETATM   10  C   UNL     1       5.406  27.936  54.814  1.00  0.00     0.270 C 
ENDBRANCH   6   7
BRANCH   6  11
HETATM   11  C   UNL     1       6.768  24.542  53.845  1.00  0.00    -0.004 A 
HETATM   12  C   UNL     1       6.742  24.028  55.163  1.00  0.00     0.042 A 
HETATM   13 CL   UNL     1       5.873  24.821  56.435  1.00  0.00    -0.084 Cl
HETATM   14  C   UNL     1       7.419  22.854  55.506  1.00  0.00     0.024 A 
HETATM   15  C   UNL     1       8.122  22.144  54.540  1.00  0.00     0.002 A 
HETATM   16  C   UNL     1       8.136  22.603  53.229  1.00  0.00     0.001 A 
HETATM   17  C   UNL     1       7.464  23.781  52.885  1.00  0.00     0.011 A 
ENDBRANCH   6  11
ENDBRANCH   5   6
ENDBRANCH   2   5
BRANCH   1  18
HETATM   18  C   UNL     1       3.209  28.741  50.873  1.00  0.00     0.107 C 
BRANCH  18  19
HETATM   19  C   UNL     1       2.653  28.373  49.503  1.00  0.00     0.052 C 
BRANCH  19  20
HETATM   20  C   UNL     1       3.724  28.028  48.525  1.00  0.00    -0.008 A 
HETATM   21  C   UNL     1       4.601  28.881  47.882  1.00  0.00     0.032 A 
HETATM   22  C   UNL     1       4.778  30.351  47.933  1.00  0.00     0.070 C 
HETATM   23  N   UNL     1       5.384  28.087  47.090  1.00  0.00    -0.282 N 
HETATM   24  H   UNL     1       6.141  28.363  46.471  1.00  0.00     0.189 HD
HETATM   25  N   UNL     1       5.081  26.785  47.172  1.00  0.00    -0.179 NA
HETATM   26  C   UNL     1       4.068  26.734  48.039  1.00  0.00     0.059 A 
HETATM   27  C   UNL     1       3.451  25.429  48.382  1.00  0.00     0.073 C 
ENDBRANCH  19  20
ENDBRANCH  18  19
ENDBRANCH   1  18
TORSDOF 7
ENDMDL
