MODEL 1
REMARK VINA RESULT:     -11.5      0.000      0.000
REMARK  4 active torsions:
REMARK  status: ('A' for Active; 'I' for Inactive)
REMARK    1  A    between atoms: C_2  and  C_3 
REMARK    2  A    between atoms: C_2  and  C_19 
REMARK       I    between atoms: C_3  and  N_4 
REMARK    3  A    between atoms: N_4  and  C_5 
REMARK    4  A    between atoms: C_12  and  C_13 
REMARK       I    between atoms: C_13  and  N_14 
ROOT
HETATM    1  C   UNL     1       7.379  25.991  57.554  1.00  0.00     0.230 C 
HETATM    2  N   UNL     1       7.093  27.326  57.325  1.00  0.00    -0.327 N 
HETATM    3  O   UNL     1       8.411  25.561  58.067  1.00  0.00    -0.272 OA
HETATM    4  H   UNL     1       6.147  27.557  57.058  1.00  0.00     0.169 HD
ENDROOT
BRANCH   2   5
HETATM    5  C   UNL     1       7.980  28.414  57.463  1.00  0.00     0.035 A 
HETATM    6  C   UNL     1       7.892  29.348  58.504  1.00  0.00     0.046 A 
HETATM    7  C   UNL     1       8.858  30.373  58.604  1.00  0.00     0.030 A 
HETATM    8  C   UNL     1       9.856  30.449  57.640  1.00  0.00     0.063 A 
HETATM    9  C   UNL     1       9.141  31.435  59.514  1.00  0.00     0.156 A 
HETATM   10  N   UNL     1      10.611  31.534  57.986  1.00  0.00    -0.277 N 
HETATM   11  C   UNL     1       9.968  29.542  56.585  1.00  0.00     0.034 A 
HETATM   12  H   UNL     1      11.421  31.899  57.499  1.00  0.00     0.189 HD
HETATM   13  N   UNL     1      10.219  32.148  59.115  1.00  0.00    -0.168 NA
HETATM   14  C   UNL     1       9.020  28.511  56.529  1.00  0.00     0.032 A 
BRANCH   9  15
HETATM   15  C   UNL     1       8.427  31.766  60.756  1.00  0.00     0.270 C 
HETATM   16  N   UNL     1       8.366  30.737  61.655  1.00  0.00    -0.365 N 
HETATM   17  H   UNL     1       8.774  29.845  61.400  1.00  0.00     0.159 HD
HETATM   18  H   UNL     1       7.856  30.858  62.516  1.00  0.00     0.159 HD
HETATM   19  O   UNL     1       7.903  32.848  60.995  1.00  0.00    -0.266 OA
ENDBRANCH   9  15
ENDBRANCH   2   5
BRANCH   1  20
HETATM   20  C   UNL     1       6.285  25.013  57.095  1.00  0.00     0.107 C 
HETATM   21  C   UNL     1       4.936  25.722  56.933  1.00  0.00     0.025 C 
BRANCH  20  22
HETATM   22  C   UNL     1       6.760  24.178  55.912  1.00  0.00    -0.044 A 
HETATM   23  C   UNL     1       7.306  22.905  56.172  1.00  0.00     0.020 A 
HETATM   24  C   UNL     1       7.766  22.070  55.142  1.00  0.00    -0.025 A 
HETATM   25  C   UNL     1       7.672  22.509  53.805  1.00  0.00    -0.026 A 
HETATM   26  C   UNL     1       8.318  20.808  55.415  1.00  0.00     0.012 A 
HETATM   27  C   UNL     1       7.121  23.773  53.542  1.00  0.00     0.013 A 
HETATM   28  C   UNL     1       8.128  21.671  52.774  1.00  0.00     0.012 A 
HETATM   29  C   UNL     1       6.670  24.596  54.580  1.00  0.00     0.009 A 
HETATM   30  C   UNL     1       8.673  20.418  53.061  1.00  0.00     0.001 A 
HETATM   31  C   UNL     1       8.768  19.987  54.381  1.00  0.00     0.001 A 
ENDBRANCH  20  22
ENDBRANCH   1  20
TORSDOF 4
ENDMDL
MODEL 2
REMARK VINA RESULT:     -10.5      5.984      8.810
REMARK  4 active torsions:
REMARK  status: ('A' for Active; 'I' for Inactive)
REMARK    1  A    between atoms: C_2  and  C_3 
REMARK    2  A    between atoms: C_2  and  C_19 
REMARK       I    between atoms: C_3  and  N_4 
REMARK    3  A    between atoms: N_4  and  C_5 
REMARK    4  A    between atoms: C_12  and  C_13 
REMARK       I    between atoms: C_13  and  N_14 
ROOT
HETATM    1  C   UNL     1       6.011  26.312  52.905  1.00  0.00     0.230 C 
HETATM    2  N   UNL     1       6.220  26.829  51.638  1.00  0.00    -0.327 N 
HETATM    3  O   UNL     1       4.914  26.064  53.403  1.00  0.00    -0.272 OA
HETATM    4  H   UNL     1       7.167  26.824  51.287  1.00  0.00     0.169 HD
ENDROOT
BRANCH   2   5
HETATM    5  C   UNL     1       5.237  27.331  50.760  1.00  0.00     0.035 A 
HETATM    6  C   UNL     1       4.667  26.570  49.731  1.00  0.00     0.046 A 
HETATM    7  C   UNL     1       3.644  27.130  48.936  1.00  0.00     0.030 A 
HETATM    8  C   UNL     1       3.252  28.441  49.173  1.00  0.00     0.063 A 
HETATM    9  C   UNL     1       2.802  26.679  47.875  1.00  0.00     0.156 A 
HETATM   10  N   UNL     1       2.280  28.702  48.249  1.00  0.00    -0.277 N 
HETATM   11  C   UNL     1       3.805  29.231  50.183  1.00  0.00     0.034 A 
HETATM   12  H   UNL     1       1.773  29.570  48.119  1.00  0.00     0.189 HD
HETATM   13  N   UNL     1       1.972  27.662  47.456  1.00  0.00    -0.168 NA
HETATM   14  C   UNL     1       4.791  28.640  50.984  1.00  0.00     0.032 A 
BRANCH   9  15
HETATM   15  C   UNL     1       2.755  25.337  47.276  1.00  0.00     0.270 C 
HETATM   16  N   UNL     1       2.839  24.317  48.184  1.00  0.00    -0.365 N 
HETATM   17  H   UNL     1       2.953  24.549  49.164  1.00  0.00     0.159 HD
HETATM   18  H   UNL     1       2.861  23.364  47.860  1.00  0.00     0.159 HD
HETATM   19  O   UNL     1       2.669  25.110  46.075  1.00  0.00    -0.266 OA
ENDBRANCH   9  15
ENDBRANCH   2   5
BRANCH   1  20
HETATM   20  C   UNL     1       7.295  26.060  53.714  1.00  0.00     0.107 C 
HETATM   21  C   UNL     1       7.320  26.899  54.996  1.00  0.00     0.025 C 
BRANCH  20  22
HETATM   22  C   UNL     1       7.556  24.568  53.874  1.00  0.00    -0.044 A 
HETATM   23  C   UNL     1       7.786  24.067  55.171  1.00  0.00     0.020 A 
HETATM   24  C   UNL     1       8.032  22.705  55.409  1.00  0.00    -0.025 A 
HETATM   25  C   UNL     1       8.042  21.807  54.322  1.00  0.00    -0.026 A 
HETATM   26  C   UNL     1       8.270  22.221  56.706  1.00  0.00     0.012 A 
HETATM   27  C   UNL     1       7.805  22.300  53.029  1.00  0.00     0.013 A 
HETATM   28  C   UNL     1       8.284  20.444  54.561  1.00  0.00     0.012 A 
HETATM   29  C   UNL     1       7.565  23.661  52.807  1.00  0.00     0.009 A 
HETATM   30  C   UNL     1       8.517  19.976  55.856  1.00  0.00     0.001 A 
HETATM   31  C   UNL     1       8.511  20.865  56.927  1.00  0.00     0.001 A 
ENDBRANCH  20  22
ENDBRANCH   1  20
TORSDOF 4
ENDMDL
MODEL 3
REMARK VINA RESULT:     -10.4      6.038      8.935
REMARK  4 active torsions:
REMARK  status: ('A' for Active; 'I' for Inactive)
REMARK    1  A    between atoms: C_2  and  C_3 
REMARK    2  A    between atoms: C_2  and  C_19 
REMARK       I    between atoms: C_3  and  N_4 
REMARK    3  A    between atoms: N_4  and  C_5 
REMARK    4  A    between atoms: C_12  and  C_13 
REMARK       I    between atoms: C_13  and  N_14 
ROOT
HETATM    1  C   UNL     1       5.952  26.543  52.846  1.00  0.00     0.230 C 
HETATM    2  N   UNL     1       6.001  27.133  51.594  1.00  0.00    -0.327 N 
HETATM    3  O   UNL     1       4.940  26.096  53.383  1.00  0.00    -0.272 OA
HETATM    4  H   UNL     1       6.915  27.301  51.199  1.00  0.00     0.169 HD
ENDROOT
BRANCH   2   5
HETATM    5  C   UNL     1       4.902  27.494  50.788  1.00  0.00     0.035 A 
HETATM    6  C   UNL     1       4.433  26.702  49.731  1.00  0.00     0.046 A 
HETATM    7  C   UNL     1       3.287  27.108  49.012  1.00  0.00     0.030 A 
HETATM    8  C   UNL     1       2.672  28.306  49.352  1.00  0.00     0.063 A 
HETATM    9  C   UNL     1       2.493  26.571  47.955  1.00  0.00     0.156 A 
HETATM   10  N   UNL     1       1.625  28.434  48.483  1.00  0.00    -0.277 N 
HETATM   11  C   UNL     1       3.117  29.123  50.392  1.00  0.00     0.034 A 
HETATM   12  H   UNL     1       0.962  29.198  48.430  1.00  0.00     0.189 HD
HETATM   13  N   UNL     1       1.477  27.405  47.634  1.00  0.00    -0.168 NA
HETATM   14  C   UNL     1       4.233  28.681  51.116  1.00  0.00     0.032 A 
BRANCH   9  15
HETATM   15  C   UNL     1       2.666  25.282  47.269  1.00  0.00     0.270 C 
HETATM   16  N   UNL     1       2.806  24.215  48.113  1.00  0.00    -0.365 N 
HETATM   17  H   UNL     1       2.811  24.385  49.111  1.00  0.00     0.159 HD
HETATM   18  H   UNL     1       2.976  23.298  47.731  1.00  0.00     0.159 HD
HETATM   19  O   UNL     1       2.707  25.137  46.052  1.00  0.00    -0.266 OA
ENDBRANCH   9  15
ENDBRANCH   2   5
BRANCH   1  20
HETATM   20  C   UNL     1       7.302  26.483  53.580  1.00  0.00     0.107 C 
HETATM   21  C   UNL     1       7.492  27.694  54.498  1.00  0.00     0.025 C 
BRANCH  20  22
HETATM   22  C   UNL     1       7.520  25.112  54.209  1.00  0.00    -0.044 A 
HETATM   23  C   UNL     1       7.715  24.010  53.353  1.00  0.00     0.020 A 
HETATM   24  C   UNL     1       7.924  22.712  53.849  1.00  0.00    -0.025 A 
HETATM   25  C   UNL     1       7.952  22.504  55.243  1.00  0.00    -0.026 A 
HETATM   26  C   UNL     1       8.107  21.620  52.984  1.00  0.00     0.012 A 
HETATM   27  C   UNL     1       7.766  23.601  56.099  1.00  0.00     0.013 A 
HETATM   28  C   UNL     1       8.166  21.207  55.738  1.00  0.00     0.012 A 
HETATM   29  C   UNL     1       7.555  24.888  55.590  1.00  0.00     0.009 A 
HETATM   30  C   UNL     1       8.348  20.131  54.867  1.00  0.00     0.001 A 
HETATM   31  C   UNL     1       8.317  20.338  53.490  1.00  0.00     0.001 A 
ENDBRANCH  20  22
ENDBRANCH   1  20
TORSDOF 4
ENDMDL
MODEL 4
REMARK VINA RESULT:     -10.3      6.410      8.797
REMARK  4 active torsions:
REMARK  status: ('A' for Active; 'I' for Inactive)
REMARK    1  A    between atoms: C_2  and  C_3 
REMARK    2  A    between atoms: C_2  and  C_19 
REMARK       I    between atoms: C_3  and  N_4 
REMARK    3  A    between atoms: N_4  and  C_5 
REMARK    4  A    between atoms: C_12  and  C_13 
REMARK       I    between atoms: C_13  and  N_14 
ROOT
HETATM    1  C   UNL     1       5.721  25.879  51.713  1.00  0.00     0.230 C 
HETATM    2  N   UNL     1       5.724  26.640  50.557  1.00  0.00    -0.327 N 
HETATM    3  O   UNL     1       4.811  25.137  52.076  1.00  0.00    -0.272 OA
HETATM    4  H   UNL     1       6.597  27.071  50.289  1.00  0.00     0.169 HD
ENDROOT
BRANCH   2   5
HETATM    5  C   UNL     1       4.636  26.849  49.682  1.00  0.00     0.035 A 
HETATM    6  C   UNL     1       3.757  27.934  49.797  1.00  0.00     0.046 A 
HETATM    7  C   UNL     1       2.731  28.102  48.842  1.00  0.00     0.030 A 
HETATM    8  C   UNL     1       2.598  27.162  47.828  1.00  0.00     0.063 A 
HETATM    9  C   UNL     1       1.714  29.070  48.584  1.00  0.00     0.156 A 
HETATM   10  N   UNL     1       1.526  27.576  47.089  1.00  0.00    -0.277 N 
HETATM   11  C   UNL     1       3.450  26.065  47.689  1.00  0.00     0.034 A 
HETATM   12  H   UNL     1       1.131  27.122  46.273  1.00  0.00     0.189 HD
HETATM   13  N   UNL     1       0.973  28.727  47.505  1.00  0.00    -0.168 NA
HETATM   14  C   UNL     1       4.484  25.940  48.626  1.00  0.00     0.032 A 
BRANCH   9  15
HETATM   15  C   UNL     1       1.452  30.314  49.323  1.00  0.00     0.270 C 
HETATM   16  N   UNL     1       0.917  30.121  50.567  1.00  0.00    -0.365 N 
HETATM   17  H   UNL     1       0.719  29.175  50.869  1.00  0.00     0.159 HD
HETATM   18  H   UNL     1       0.662  30.919  51.128  1.00  0.00     0.159 HD
HETATM   19  O   UNL     1       1.661  31.442  48.891  1.00  0.00    -0.266 OA
ENDBRANCH   9  15
ENDBRANCH   2   5
BRANCH   1  20
HETATM   20  C   UNL     1       6.982  26.029  52.581  1.00  0.00     0.107 C 
HETATM   21  C   UNL     1       7.009  27.383  53.298  1.00  0.00     0.025 C 
BRANCH  20  22
HETATM   22  C   UNL     1       7.196  24.796  53.450  1.00  0.00    -0.044 A 
HETATM   23  C   UNL     1       7.693  23.628  52.839  1.00  0.00     0.020 A 
HETATM   24  C   UNL     1       7.921  22.448  53.566  1.00  0.00    -0.025 A 
HETATM   25  C   UNL     1       7.655  22.430  54.950  1.00  0.00    -0.026 A 
HETATM   26  C   UNL     1       8.407  21.288  52.942  1.00  0.00     0.012 A 
HETATM   27  C   UNL     1       7.167  23.594  55.565  1.00  0.00     0.013 A 
HETATM   28  C   UNL     1       7.887  21.251  55.678  1.00  0.00     0.012 A 
HETATM   29  C   UNL     1       6.941  24.761  54.826  1.00  0.00     0.009 A 
HETATM   30  C   UNL     1       8.373  20.105  55.044  1.00  0.00     0.001 A 
HETATM   31  C   UNL     1       8.632  20.124  53.677  1.00  0.00     0.001 A 
ENDBRANCH  20  22
ENDBRANCH   1  20
TORSDOF 4
ENDMDL
MODEL 5
REMARK VINA RESULT:     -10.1      4.974      6.979
REMARK  4 active torsions:
REMARK  status: ('A' for Active; 'I' for Inactive)
REMARK    1  A    between atoms: C_2  and  C_3 
REMARK    2  A    between atoms: C_2  and  C_19 
REMARK       I    between atoms: C_3  and  N_4 
REMARK    3  A    between atoms: N_4  and  C_5 
REMARK    4  A    between atoms: C_12  and  C_13 
REMARK       I    between atoms: C_13  and  N_14 
ROOT
HETATM    1  C   UNL     1       6.021  27.048  55.245  1.00  0.00     0.230 C 
HETATM    2  N   UNL     1       4.727  27.195  54.777  1.00  0.00    -0.327 N 
HETATM    3  O   UNL     1       6.949  27.827  55.034  1.00  0.00    -0.272 OA
HETATM    4  H   UNL     1       4.023  26.581  55.162  1.00  0.00     0.169 HD
ENDROOT
BRANCH   2   5
HETATM    5  C   UNL     1       4.272  28.147  53.840  1.00  0.00     0.035 A 
HETATM    6  C   UNL     1       4.142  27.874  52.472  1.00  0.00     0.046 A 
HETATM    7  C   UNL     1       3.620  28.864  51.611  1.00  0.00     0.030 A 
HETATM    8  C   UNL     1       3.281  30.102  52.141  1.00  0.00     0.063 A 
HETATM    9  C   UNL     1       3.287  28.951  50.226  1.00  0.00     0.156 A 
HETATM   10  N   UNL     1       2.835  30.840  51.081  1.00  0.00    -0.277 N 
HETATM   11  C   UNL     1       3.407  30.411  53.497  1.00  0.00     0.034 A 
HETATM   12  H   UNL     1       2.514  31.802  51.094  1.00  0.00     0.189 HD
HETATM   13  N   UNL     1       2.813  30.179  49.913  1.00  0.00    -0.168 NA
HETATM   14  C   UNL     1       3.890  29.400  54.338  1.00  0.00     0.032 A 
BRANCH   9  15
HETATM   15  C   UNL     1       3.388  27.893  49.211  1.00  0.00     0.270 C 
HETATM   16  N   UNL     1       2.223  27.205  49.004  1.00  0.00    -0.365 N 
HETATM   17  H   UNL     1       1.414  27.445  49.564  1.00  0.00     0.159 HD
HETATM   18  H   UNL     1       2.210  26.432  48.359  1.00  0.00     0.159 HD
HETATM   19  O   UNL     1       4.410  27.607  48.597  1.00  0.00    -0.266 OA
ENDBRANCH   9  15
ENDBRANCH   2   5
BRANCH   1  20
HETATM   20  C   UNL     1       6.260  25.778  56.079  1.00  0.00     0.107 C 
HETATM   21  C   UNL     1       5.062  25.472  56.984  1.00  0.00     0.025 C 
BRANCH  20  22
HETATM   22  C   UNL     1       6.759  24.635  55.203  1.00  0.00    -0.044 A 
HETATM   23  C   UNL     1       7.203  23.456  55.835  1.00  0.00     0.020 A 
HETATM   24  C   UNL     1       7.677  22.355  55.105  1.00  0.00    -0.025 A 
HETATM   25  C   UNL     1       7.702  22.422  53.697  1.00  0.00    -0.026 A 
HETATM   26  C   UNL     1       8.127  21.190  55.747  1.00  0.00     0.012 A 
HETATM   27  C   UNL     1       7.253  23.591  53.063  1.00  0.00     0.013 A 
HETATM   28  C   UNL     1       8.172  21.318  52.966  1.00  0.00     0.012 A 
HETATM   29  C   UNL     1       6.786  24.683  53.805  1.00  0.00     0.009 A 
HETATM   30  C   UNL     1       8.614  20.166  53.618  1.00  0.00     0.001 A 
HETATM   31  C   UNL     1       8.592  20.102  55.009  1.00  0.00     0.001 A 
ENDBRANCH  20  22
ENDBRANCH   1  20
TORSDOF 4
ENDMDL
MODEL 6
REMARK VINA RESULT:     -10.0      4.579     10.184
REMARK  4 active torsions:
REMARK  status: ('A' for Active; 'I' for Inactive)
REMARK    1  A    between atoms: C_2  and  C_3 
REMARK    2  A    between atoms: C_2  and  C_19 
REMARK       I    between atoms: C_3  and  N_4 
REMARK    3  A    between atoms: N_4  and  C_5 
REMARK    4  A    between atoms: C_12  and  C_13 
REMARK       I    between atoms: C_13  and  N_14 
ROOT
HETATM    1  C   UNL     1       8.585  31.332  59.961  1.00  0.00     0.230 C 
HETATM    2  N   UNL     1       8.394  30.038  59.507  1.00  0.00    -0.327 N 
HETATM    3  O   UNL     1       8.540  32.345  59.265  1.00  0.00    -0.272 OA
HETATM    4  H   UNL     1       8.287  29.315  60.205  1.00  0.00     0.169 HD
ENDROOT
BRANCH   2   5
HETATM    5  C   UNL     1       8.292  29.621  58.163  1.00  0.00     0.035 A 
HETATM    6  C   UNL     1       7.094  29.176  57.587  1.00  0.00     0.046 A 
HETATM    7  C   UNL     1       7.065  28.836  56.217  1.00  0.00     0.030 A 
HETATM    8  C   UNL     1       8.240  28.919  55.481  1.00  0.00     0.063 A 
HETATM    9  C   UNL     1       6.071  28.418  55.282  1.00  0.00     0.156 A 
HETATM   10  N   UNL     1       7.905  28.513  54.220  1.00  0.00    -0.277 N 
HETATM   11  C   UNL     1       9.451  29.349  56.025  1.00  0.00     0.034 A 
HETATM   12  H   UNL     1       8.519  28.436  53.417  1.00  0.00     0.189 HD
HETATM   13  N   UNL     1       6.606  28.214  54.057  1.00  0.00    -0.168 NA
HETATM   14  C   UNL     1       9.447  29.718  57.376  1.00  0.00     0.032 A 
BRANCH   9  15
HETATM   15  C   UNL     1       4.632  28.234  55.524  1.00  0.00     0.270 C 
HETATM   16  N   UNL     1       4.344  27.333  56.512  1.00  0.00    -0.365 N 
HETATM   17  H   UNL     1       5.110  26.852  56.968  1.00  0.00     0.159 HD
HETATM   18  H   UNL     1       3.383  27.109  56.715  1.00  0.00     0.159 HD
HETATM   19  O   UNL     1       3.740  28.804  54.906  1.00  0.00    -0.266 OA
ENDBRANCH   9  15
ENDBRANCH   2   5
BRANCH   1  20
HETATM   20  C   UNL     1       8.891  31.445  61.464  1.00  0.00     0.107 C 
HETATM   21  C   UNL     1      10.237  32.135  61.708  1.00  0.00     0.025 C 
BRANCH  20  22
HETATM   22  C   UNL     1       7.694  32.003  62.223  1.00  0.00    -0.044 A 
HETATM   23  C   UNL     1       7.917  32.570  63.494  1.00  0.00     0.020 A 
HETATM   24  C   UNL     1       6.871  33.108  64.261  1.00  0.00    -0.025 A 
HETATM   25  C   UNL     1       5.559  33.092  63.745  1.00  0.00    -0.026 A 
HETATM   26  C   UNL     1       7.105  33.661  65.531  1.00  0.00     0.012 A 
HETATM   27  C   UNL     1       5.334  32.536  62.476  1.00  0.00     0.013 A 
HETATM   28  C   UNL     1       4.514  33.635  64.511  1.00  0.00     0.012 A 
HETATM   29  C   UNL     1       6.386  32.000  61.724  1.00  0.00     0.009 A 
HETATM   30  C   UNL     1       4.762  34.183  65.771  1.00  0.00     0.001 A 
HETATM   31  C   UNL     1       6.058  34.195  66.281  1.00  0.00     0.001 A 
ENDBRANCH  20  22
ENDBRANCH   1  20
TORSDOF 4
ENDMDL
MODEL 7
REMARK VINA RESULT:      -9.9      3.146      5.831
REMARK  4 active torsions:
REMARK  status: ('A' for Active; 'I' for Inactive)
REMARK    1  A    between atoms: C_2  and  C_3 
REMARK    2  A    between atoms: C_2  and  C_19 
REMARK       I    between atoms: C_3  and  N_4 
REMARK    3  A    between atoms: N_4  and  C_5 
REMARK    4  A    between atoms: C_12  and  C_13 
REMARK       I    between atoms: C_13  and  N_14 
ROOT
HETATM    1  C   UNL     1       9.467  31.232  58.575  1.00  0.00     0.230 C 
HETATM    2  N   UNL     1       8.658  30.660  59.543  1.00  0.00    -0.327 N 
HETATM    3  O   UNL     1       9.989  32.343  58.647  1.00  0.00    -0.272 OA
HETATM    4  H   UNL     1       8.435  29.681  59.439  1.00  0.00     0.169 HD
ENDROOT
BRANCH   2   5
HETATM    5  C   UNL     1       8.138  31.296  60.690  1.00  0.00     0.035 A 
HETATM    6  C   UNL     1       6.781  31.606  60.846  1.00  0.00     0.046 A 
HETATM    7  C   UNL     1       6.334  32.187  62.052  1.00  0.00     0.030 A 
HETATM    8  C   UNL     1       7.263  32.469  63.045  1.00  0.00     0.063 A 
HETATM    9  C   UNL     1       5.076  32.578  62.602  1.00  0.00     0.156 A 
HETATM   10  N   UNL     1       6.546  33.034  64.062  1.00  0.00    -0.277 N 
HETATM   11  C   UNL     1       8.623  32.182  62.920  1.00  0.00     0.034 A 
HETATM   12  H   UNL     1       6.902  33.377  64.947  1.00  0.00     0.189 HD
HETATM   13  N   UNL     1       5.224  33.107  63.838  1.00  0.00    -0.168 NA
HETATM   14  C   UNL     1       9.037  31.570  61.729  1.00  0.00     0.032 A 
BRANCH   9  15
HETATM   15  C   UNL     1       3.746  32.436  61.989  1.00  0.00     0.270 C 
HETATM   16  N   UNL     1       3.283  31.150  61.953  1.00  0.00    -0.365 N 
HETATM   17  H   UNL     1       3.877  30.411  62.309  1.00  0.00     0.159 HD
HETATM   18  H   UNL     1       2.400  30.951  61.509  1.00  0.00     0.159 HD
HETATM   19  O   UNL     1       3.089  33.360  61.523  1.00  0.00    -0.266 OA
ENDBRANCH   9  15
ENDBRANCH   2   5
BRANCH   1  20
HETATM   20  C   UNL     1       9.682  30.362  57.325  1.00  0.00     0.107 C 
HETATM   21  C   UNL     1      11.093  29.766  57.295  1.00  0.00     0.025 C 
BRANCH  20  22
HETATM   22  C   UNL     1       8.528  29.385  57.135  1.00  0.00    -0.044 A 
HETATM   23  C   UNL     1       8.806  28.005  57.200  1.00  0.00     0.020 A 
HETATM   24  C   UNL     1       7.802  27.036  57.038  1.00  0.00    -0.025 A 
HETATM   25  C   UNL     1       6.474  27.452  56.814  1.00  0.00    -0.026 A 
HETATM   26  C   UNL     1       8.095  25.664  57.095  1.00  0.00     0.012 A 
HETATM   27  C   UNL     1       6.191  28.826  56.757  1.00  0.00     0.013 A 
HETATM   28  C   UNL     1       5.469  26.483  56.657  1.00  0.00     0.012 A 
HETATM   29  C   UNL     1       7.203  29.780  56.916  1.00  0.00     0.009 A 
HETATM   30  C   UNL     1       5.774  25.122  56.717  1.00  0.00     0.001 A 
HETATM   31  C   UNL     1       7.087  24.713  56.936  1.00  0.00     0.001 A 
ENDBRANCH  20  22
ENDBRANCH   1  20
TORSDOF 4
ENDMDL
MODEL 8
REMARK VINA RESULT:      -9.9      1.515      2.138
REMARK  4 active torsions:
REMARK  status: ('A' for Active; 'I' for Inactive)
REMARK    1  A    between atoms: C_2  and  C_3 
REMARK    2  A    between atoms: C_2  and  C_19 
REMARK       I    between atoms: C_3  and  N_4 
REMARK    3  A    between atoms: N_4  and  C_5 
REMARK    4  A    between atoms: C_12  and  C_13 
REMARK       I    between atoms: C_13  and  N_14 
ROOT
HETATM    1  C   UNL     1       5.826  28.055  56.421  1.00  0.00     0.230 C 
HETATM    2  N   UNL     1       7.084  28.472  56.019  1.00  0.00    -0.327 N 
HETATM    3  O   UNL     1       5.205  28.491  57.389  1.00  0.00    -0.272 OA
HETATM    4  H   UNL     1       7.407  28.160  55.115  1.00  0.00     0.169 HD
ENDROOT
BRANCH   2   5
HETATM    5  C   UNL     1       7.955  29.326  56.728  1.00  0.00     0.035 A 
HETATM    6  C   UNL     1       7.557  30.071  57.846  1.00  0.00     0.046 A 
HETATM    7  C   UNL     1       8.509  30.854  58.535  1.00  0.00     0.030 A 
HETATM    8  C   UNL     1       9.814  30.892  58.062  1.00  0.00     0.063 A 
HETATM    9  C   UNL     1       8.515  31.671  59.705  1.00  0.00     0.156 A 
HETATM   10  N   UNL     1      10.481  31.734  58.907  1.00  0.00    -0.277 N 
HETATM   11  C   UNL     1      10.242  30.171  56.946  1.00  0.00     0.034 A 
HETATM   12  H   UNL     1      11.455  32.008  58.858  1.00  0.00     0.189 HD
HETATM   13  N   UNL     1       9.736  32.215  59.916  1.00  0.00    -0.168 NA
HETATM   14  C   UNL     1       9.289  29.371  56.302  1.00  0.00     0.032 A 
BRANCH   9  15
HETATM   15  C   UNL     1       7.399  31.924  60.629  1.00  0.00     0.270 C 
HETATM   16  N   UNL     1       7.329  31.042  61.672  1.00  0.00    -0.365 N 
HETATM   17  H   UNL     1       8.006  30.289  61.717  1.00  0.00     0.159 HD
HETATM   18  H   UNL     1       6.570  31.110  62.331  1.00  0.00     0.159 HD
HETATM   19  O   UNL     1       6.573  32.820  60.500  1.00  0.00    -0.266 OA
ENDBRANCH   9  15
ENDBRANCH   2   5
BRANCH   1  20
HETATM   20  C   UNL     1       5.213  26.943  55.553  1.00  0.00     0.107 C 
HETATM   21  C   UNL     1       4.792  27.476  54.179  1.00  0.00     0.025 C 
BRANCH  20  22
HETATM   22  C   UNL     1       6.092  25.699  55.558  1.00  0.00    -0.044 A 
HETATM   23  C   UNL     1       6.372  25.075  54.326  1.00  0.00     0.020 A 
HETATM   24  C   UNL     1       7.174  23.926  54.239  1.00  0.00    -0.025 A 
HETATM   25  C   UNL     1       7.727  23.383  55.417  1.00  0.00    -0.026 A 
HETATM   26  C   UNL     1       7.435  23.308  53.006  1.00  0.00     0.012 A 
HETATM   27  C   UNL     1       7.459  24.006  56.645  1.00  0.00     0.013 A 
HETATM   28  C   UNL     1       8.534  22.236  55.330  1.00  0.00     0.012 A 
HETATM   29  C   UNL     1       6.654  25.149  56.716  1.00  0.00     0.009 A 
HETATM   30  C   UNL     1       8.787  21.633  54.096  1.00  0.00     0.001 A 
HETATM   31  C   UNL     1       8.237  22.169  52.934  1.00  0.00     0.001 A 
ENDBRANCH  20  22
ENDBRANCH   1  20
TORSDOF 4
ENDMDL
MODEL 9
REMARK VINA RESULT:      -9.8      6.231      8.533
REMARK  4 active torsions:
REMARK  status: ('A' for Active; 'I' for Inactive)
REMARK    1  A    between atoms: C_2  and  C_3 
REMARK    2  A    between atoms: C_2  and  C_19 
REMARK       I    between atoms: C_3  and  N_4 
REMARK    3  A    between atoms: N_4  and  C_5 
REMARK    4  A    between atoms: C_12  and  C_13 
REMARK       I    between atoms: C_13  and  N_14 
ROOT
HETATM    1  C   UNL     1       5.924  26.065  52.306  1.00  0.00     0.230 C 
HETATM    2  N   UNL     1       6.149  26.404  50.983  1.00  0.00    -0.327 N 
HETATM    3  O   UNL     1       4.820  25.886  52.818  1.00  0.00    -0.272 OA
HETATM    4  H   UNL     1       7.100  26.353  50.648  1.00  0.00     0.169 HD
ENDROOT
BRANCH   2   5
HETATM    5  C   UNL     1       5.177  26.781  50.031  1.00  0.00     0.035 A 
HETATM    6  C   UNL     1       4.985  28.105  49.615  1.00  0.00     0.046 A 
HETATM    7  C   UNL     1       4.032  28.388  48.612  1.00  0.00     0.030 A 
HETATM    8  C   UNL     1       3.282  27.344  48.087  1.00  0.00     0.063 A 
HETATM    9  C   UNL     1       3.601  29.548  47.900  1.00  0.00     0.156 A 
HETATM   10  N   UNL     1       2.448  27.922  47.172  1.00  0.00    -0.277 N 
HETATM   11  C   UNL     1       3.440  26.016  48.486  1.00  0.00     0.034 A 
HETATM   12  H   UNL     1       1.748  27.461  46.602  1.00  0.00     0.189 HD
HETATM   13  N   UNL     1       2.617  29.246  47.022  1.00  0.00    -0.168 NA
HETATM   14  C   UNL     1       4.419  25.754  49.454  1.00  0.00     0.032 A 
BRANCH   9  15
HETATM   15  C   UNL     1       4.120  30.918  48.021  1.00  0.00     0.270 C 
HETATM   16  N   UNL     1       4.678  31.407  46.872  1.00  0.00    -0.365 N 
HETATM   17  H   UNL     1       4.720  30.804  46.060  1.00  0.00     0.159 HD
HETATM   18  H   UNL     1       5.100  32.322  46.874  1.00  0.00     0.159 HD
HETATM   19  O   UNL     1       4.091  31.589  49.047  1.00  0.00    -0.266 OA
ENDBRANCH   9  15
ENDBRANCH   2   5
BRANCH   1  20
HETATM   20  C   UNL     1       7.197  25.928  53.157  1.00  0.00     0.107 C 
HETATM   21  C   UNL     1       7.186  26.905  54.337  1.00  0.00     0.025 C 
BRANCH  20  22
HETATM   22  C   UNL     1       7.478  24.467  53.488  1.00  0.00    -0.044 A 
HETATM   23  C   UNL     1       7.689  24.118  54.837  1.00  0.00     0.020 A 
HETATM   24  C   UNL     1       7.952  22.796  55.230  1.00  0.00    -0.025 A 
HETATM   25  C   UNL     1       7.998  21.783  54.250  1.00  0.00    -0.026 A 
HETATM   26  C   UNL     1       8.171  22.463  56.576  1.00  0.00     0.012 A 
HETATM   27  C   UNL     1       7.780  22.125  52.906  1.00  0.00     0.013 A 
HETATM   28  C   UNL     1       8.257  20.459  54.644  1.00  0.00     0.012 A 
HETATM   29  C   UNL     1       7.522  23.448  52.529  1.00  0.00     0.009 A 
HETATM   30  C   UNL     1       8.470  20.143  55.987  1.00  0.00     0.001 A 
HETATM   31  C   UNL     1       8.428  21.145  56.953  1.00  0.00     0.001 A 
ENDBRANCH  20  22
ENDBRANCH   1  20
TORSDOF 4
ENDMDL
MODEL 10
REMARK VINA RESULT:      -9.7      2.610      3.142
REMARK  4 active torsions:
REMARK  status: ('A' for Active; 'I' for Inactive)
REMARK    1  A    between atoms: C_2  and  C_3 
REMARK    2  A    between atoms: C_2  and  C_19 
REMARK       I    between atoms: C_3  and  N_4 
REMARK    3  A    between atoms: N_4  and  C_5 
REMARK    4  A    between atoms: C_12  and  C_13 
REMARK       I    between atoms: C_13  and  N_14 
ROOT
HETATM    1  C   UNL     1       6.959  27.220  54.488  1.00  0.00     0.230 C 
HETATM    2  N   UNL     1       6.390  27.469  55.725  1.00  0.00    -0.327 N 
HETATM    3  O   UNL     1       7.967  27.767  54.044  1.00  0.00    -0.272 OA
HETATM    4  H   UNL     1       5.669  26.834  56.039  1.00  0.00     0.169 HD
ENDROOT
BRANCH   2   5
HETATM    5  C   UNL     1       6.738  28.501  56.622  1.00  0.00     0.035 A 
HETATM    6  C   UNL     1       6.101  29.750  56.638  1.00  0.00     0.046 A 
HETATM    7  C   UNL     1       6.469  30.706  57.610  1.00  0.00     0.030 A 
HETATM    8  C   UNL     1       7.483  30.394  58.506  1.00  0.00     0.063 A 
HETATM    9  C   UNL     1       6.035  32.013  57.982  1.00  0.00     0.156 A 
HETATM   10  N   UNL     1       7.625  31.503  59.292  1.00  0.00    -0.277 N 
HETATM   11  C   UNL     1       8.145  29.165  58.512  1.00  0.00     0.034 A 
HETATM   12  H   UNL     1       8.284  31.638  60.050  1.00  0.00     0.189 HD
HETATM   13  N   UNL     1       6.763  32.495  59.016  1.00  0.00    -0.168 NA
HETATM   14  C   UNL     1       7.735  28.218  57.564  1.00  0.00     0.032 A 
BRANCH   9  15
HETATM   15  C   UNL     1       4.936  32.794  57.396  1.00  0.00     0.270 C 
HETATM   16  N   UNL     1       3.690  32.309  57.687  1.00  0.00    -0.365 N 
HETATM   17  H   UNL     1       3.616  31.463  58.238  1.00  0.00     0.159 HD
HETATM   18  H   UNL     1       2.878  32.754  57.289  1.00  0.00     0.159 HD
HETATM   19  O   UNL     1       5.081  33.785  56.688  1.00  0.00    -0.266 OA
ENDBRANCH   9  15
ENDBRANCH   2   5
BRANCH   1  20
HETATM   20  C   UNL     1       6.216  26.175  53.640  1.00  0.00     0.107 C 
HETATM   21  C   UNL     1       5.905  26.712  52.239  1.00  0.00     0.025 C 
BRANCH  20  22
HETATM   22  C   UNL     1       6.913  24.821  53.709  1.00  0.00    -0.044 A 
HETATM   23  C   UNL     1       7.078  24.221  54.973  1.00  0.00     0.020 A 
HETATM   24  C   UNL     1       7.707  22.975  55.127  1.00  0.00    -0.025 A 
HETATM   25  C   UNL     1       8.179  22.296  53.985  1.00  0.00    -0.026 A 
HETATM   26  C   UNL     1       7.875  22.393  56.394  1.00  0.00     0.012 A 
HETATM   27  C   UNL     1       8.009  22.886  52.723  1.00  0.00     0.013 A 
HETATM   28  C   UNL     1       8.804  21.047  54.139  1.00  0.00     0.012 A 
HETATM   29  C   UNL     1       7.384  24.131  52.585  1.00  0.00     0.009 A 
HETATM   30  C   UNL     1       8.963  20.479  55.405  1.00  0.00     0.001 A 
HETATM   31  C   UNL     1       8.499  21.153  56.532  1.00  0.00     0.001 A 
ENDBRANCH  20  22
ENDBRANCH   1  20
TORSDOF 4
ENDMDL
