MODEL 1
REMARK VINA RESULT:     -10.1      0.000      0.000
REMARK  7 active torsions:
REMARK  status: ('A' for Active; 'I' for Inactive)
REMARK    1  A    between atoms: C_2  and  N_3 
REMARK    2  A    between atoms: N_7  and  C_8 
REMARK    3  A    between atoms: C_11  and  N_12 
REMARK    4  A    between atoms: N_12  and  C_13 
REMARK    5  A    between atoms: C_13  and  N_14 
REMARK       I    between atoms: N_14  and  C_15 
REMARK    6  A    between atoms: C_15  and  C_16 
REMARK    7  A    between atoms: C_18  and  C_19 
ROOT
HETATM    1  C   UNL     1       5.105  29.107  54.521  1.00  0.00     0.179 C 
HETATM    2  S   UNL     1       3.854  30.231  54.444  1.00  0.00    -0.040 SA
ENDROOT
BRANCH   1   3
HETATM    3  N   UNL     1       5.150  27.887  53.897  1.00  0.00    -0.333 N 
HETATM    4  H   UNL     1       4.776  27.125  54.458  1.00  0.00     0.168 HD
BRANCH   3   5
HETATM    5  C   UNL     1       5.161  27.692  52.497  1.00  0.00     0.034 A 
HETATM    6  C   UNL     1       5.331  28.753  51.616  1.00  0.00     0.032 A 
HETATM    7  C   UNL     1       5.288  28.545  50.230  1.00  0.00     0.031 A 
HETATM    8  C   UNL     1       5.044  27.282  49.666  1.00  0.00     0.030 A 
HETATM    9  C   UNL     1       4.990  26.216  50.583  1.00  0.00     0.031 A 
HETATM   10  C   UNL     1       5.045  26.412  51.975  1.00  0.00     0.032 A 
BRANCH   8  11
HETATM   11  N   UNL     1       4.906  27.101  48.277  1.00  0.00    -0.378 N 
HETATM   12  C   UNL     1       4.745  28.309  47.430  1.00  0.00     0.150 C 
HETATM   13  C   UNL     1       3.290  28.826  47.509  1.00  0.00     0.254 C 
HETATM   14  N   UNL     1       2.301  27.725  47.083  1.00  0.00    -0.068 N 
HETATM   15  H   UNL     1       2.490  27.515  46.094  1.00  0.00     0.280 HD
HETATM   16  C   UNL     1       2.554  26.417  47.863  1.00  0.00     0.254 C 
HETATM   17  C   UNL     1       4.042  26.004  47.784  1.00  0.00     0.150 C 
BRANCH  14  18
HETATM   18  C   UNL     1       0.854  28.145  47.208  1.00  0.00     0.230 C 
HETATM   19  C   UNL     1       0.013  27.545  46.098  1.00  0.00     0.034 C 
ENDBRANCH  14  18
ENDBRANCH   8  11
ENDBRANCH   3   5
ENDBRANCH   1   3
BRANCH   1  20
HETATM   20  N   UNL     1       6.179  29.472  55.308  1.00  0.00    -0.298 N 
HETATM   21  C   UNL     1       7.345  28.915  55.836  1.00  0.00     0.281 C 
HETATM   22  O   UNL     1       8.287  29.701  55.978  1.00  0.00    -0.265 OA
HETATM   23  H   UNL     1       6.308  30.479  55.272  1.00  0.00     0.171 HD
BRANCH  21  24
HETATM   24  C   UNL     1       7.466  27.522  56.205  1.00  0.00     0.144 A 
HETATM   25  O   UNL     1       7.683  26.517  55.295  1.00  0.00    -0.304 OA
HETATM   26  C   UNL     1       7.609  25.333  55.983  1.00  0.00     0.086 A 
HETATM   27  C   UNL     1       7.361  25.569  57.317  1.00  0.00     0.041 A 
HETATM   28  C   UNL     1       7.282  26.967  57.461  1.00  0.00     0.046 A 
BRANCH  26  29
HETATM   29  C   UNL     1       7.751  24.111  55.213  1.00  0.00    -0.001 A 
HETATM   30  C   UNL     1       7.807  22.867  55.850  1.00  0.00     0.040 A 
HETATM   31  C   UNL     1       7.925  21.690  55.101  1.00  0.00     0.056 A 
HETATM   32 CL   UNL     1       8.014  20.196  55.966  1.00  0.00    -0.083 Cl
HETATM   33  C   UNL     1       7.971  21.750  53.705  1.00  0.00     0.055 A 
HETATM   34 CL   UNL     1       8.118  20.338  52.721  1.00  0.00    -0.083 Cl
HETATM   35  C   UNL     1       7.896  22.988  53.062  1.00  0.00     0.026 A 
HETATM   36  C   UNL     1       7.785  24.161  53.814  1.00  0.00     0.016 A 
ENDBRANCH  26  29
ENDBRANCH  21  24
ENDBRANCH   1  20
TORSDOF 7
ENDMDL
MODEL 2
REMARK VINA RESULT:      -9.8      5.634      9.998
REMARK  7 active torsions:
REMARK  status: ('A' for Active; 'I' for Inactive)
REMARK    1  A    between atoms: C_2  and  N_3 
REMARK    2  A    between atoms: N_7  and  C_8 
REMARK    3  A    between atoms: C_11  and  N_12 
REMARK    4  A    between atoms: N_12  and  C_13 
REMARK    5  A    between atoms: C_13  and  N_14 
REMARK       I    between atoms: N_14  and  C_15 
REMARK    6  A    between atoms: C_15  and  C_16 
REMARK    7  A    between atoms: C_18  and  C_19 
ROOT
HETATM    1  C   UNL     1       8.669  29.998  58.014  1.00  0.00     0.179 C 
HETATM    2  S   UNL     1      10.270  30.452  57.765  1.00  0.00    -0.040 SA
ENDROOT
BRANCH   1   3
HETATM    3  N   UNL     1       8.026  29.893  59.221  1.00  0.00    -0.333 N 
HETATM    4  H   UNL     1       8.097  28.971  59.645  1.00  0.00     0.168 HD
BRANCH   3   5
HETATM    5  C   UNL     1       7.763  30.970  60.097  1.00  0.00     0.034 A 
HETATM    6  C   UNL     1       8.487  31.147  61.270  1.00  0.00     0.032 A 
HETATM    7  C   UNL     1       8.176  32.192  62.152  1.00  0.00     0.031 A 
HETATM    8  C   UNL     1       7.115  33.083  61.917  1.00  0.00     0.030 A 
HETATM    9  C   UNL     1       6.479  32.944  60.670  1.00  0.00     0.031 A 
HETATM   10  C   UNL     1       6.792  31.906  59.773  1.00  0.00     0.032 A 
BRANCH   8  11
HETATM   11  N   UNL     1       6.749  34.068  62.855  1.00  0.00    -0.378 N 
HETATM   12  C   UNL     1       6.296  33.619  64.195  1.00  0.00     0.150 C 
HETATM   13  C   UNL     1       4.828  33.137  64.127  1.00  0.00     0.254 C 
HETATM   14  N   UNL     1       3.916  34.255  63.587  1.00  0.00    -0.068 N 
HETATM   15  H   UNL     1       3.946  35.024  64.268  1.00  0.00     0.280 HD
HETATM   16  C   UNL     1       4.459  34.824  62.259  1.00  0.00     0.254 C 
HETATM   17  C   UNL     1       5.947  35.225  62.396  1.00  0.00     0.150 C 
BRANCH  14  18
HETATM   18  C   UNL     1       2.477  33.821  63.428  1.00  0.00     0.230 C 
HETATM   19  C   UNL     1       1.799  34.580  62.303  1.00  0.00     0.034 C 
ENDBRANCH  14  18
ENDBRANCH   8  11
ENDBRANCH   3   5
ENDBRANCH   1   3
BRANCH   1  20
HETATM   20  N   UNL     1       7.955  29.697  56.871  1.00  0.00    -0.298 N 
HETATM   21  C   UNL     1       7.236  28.637  56.319  1.00  0.00     0.281 C 
HETATM   22  O   UNL     1       6.298  28.962  55.585  1.00  0.00    -0.265 OA
HETATM   23  H   UNL     1       7.629  30.553  56.432  1.00  0.00     0.171 HD
BRANCH  21  24
HETATM   24  C   UNL     1       7.549  27.247  56.566  1.00  0.00     0.144 A 
HETATM   25  O   UNL     1       7.709  26.321  55.565  1.00  0.00    -0.304 OA
HETATM   26  C   UNL     1       7.862  25.100  56.172  1.00  0.00     0.086 A 
HETATM   27  C   UNL     1       7.814  25.236  57.542  1.00  0.00     0.041 A 
HETATM   28  C   UNL     1       7.627  26.609  57.794  1.00  0.00     0.046 A 
BRANCH  26  29
HETATM   29  C   UNL     1       7.992  23.943  55.306  1.00  0.00    -0.001 A 
HETATM   30  C   UNL     1       8.171  22.664  55.842  1.00  0.00     0.040 A 
HETATM   31  C   UNL     1       8.277  21.550  55.002  1.00  0.00     0.056 A 
HETATM   32 CL   UNL     1       8.523  20.007  55.745  1.00  0.00    -0.083 Cl
HETATM   33  C   UNL     1       8.188  21.706  53.616  1.00  0.00     0.055 A 
HETATM   34 CL   UNL     1       8.313  20.375  52.523  1.00  0.00    -0.083 Cl
HETATM   35  C   UNL     1       7.990  22.979  53.074  1.00  0.00     0.026 A 
HETATM   36  C   UNL     1       7.891  24.089  53.916  1.00  0.00     0.016 A 
ENDBRANCH  26  29
ENDBRANCH  21  24
ENDBRANCH   1  20
TORSDOF 7
ENDMDL
MODEL 3
REMARK VINA RESULT:      -9.3      4.038      9.224
REMARK  7 active torsions:
REMARK  status: ('A' for Active; 'I' for Inactive)
REMARK    1  A    between atoms: C_2  and  N_3 
REMARK    2  A    between atoms: N_7  and  C_8 
REMARK    3  A    between atoms: C_11  and  N_12 
REMARK    4  A    between atoms: N_12  and  C_13 
REMARK    5  A    between atoms: C_13  and  N_14 
REMARK       I    between atoms: N_14  and  C_15 
REMARK    6  A    between atoms: C_15  and  C_16 
REMARK    7  A    between atoms: C_18  and  C_19 
ROOT
HETATM    1  C   UNL     1       5.377  28.728  55.578  1.00  0.00     0.179 C 
HETATM    2  S   UNL     1       5.013  27.557  56.730  1.00  0.00    -0.040 SA
ENDROOT
BRANCH   1   3
HETATM    3  N   UNL     1       6.320  29.718  55.685  1.00  0.00    -0.333 N 
HETATM    4  H   UNL     1       6.221  30.457  54.993  1.00  0.00     0.168 HD
BRANCH   3   5
HETATM    5  C   UNL     1       7.010  30.055  56.872  1.00  0.00     0.034 A 
HETATM    6  C   UNL     1       6.488  30.966  57.783  1.00  0.00     0.032 A 
HETATM    7  C   UNL     1       7.212  31.326  58.929  1.00  0.00     0.031 A 
HETATM    8  C   UNL     1       8.495  30.820  59.198  1.00  0.00     0.030 A 
HETATM    9  C   UNL     1       8.942  29.819  58.315  1.00  0.00     0.031 A 
HETATM   10  C   UNL     1       8.217  29.441  57.170  1.00  0.00     0.032 A 
BRANCH   8  11
HETATM   11  N   UNL     1       9.254  31.262  60.298  1.00  0.00    -0.378 N 
HETATM   12  C   UNL     1       9.276  30.412  61.514  1.00  0.00     0.150 C 
HETATM   13  C   UNL     1       7.977  30.612  62.329  1.00  0.00     0.254 C 
HETATM   14  N   UNL     1       7.796  32.095  62.702  1.00  0.00    -0.068 N 
HETATM   15  H   UNL     1       8.577  32.350  63.320  1.00  0.00     0.280 HD
HETATM   16  C   UNL     1       7.910  33.001  61.457  1.00  0.00     0.254 C 
HETATM   17  C   UNL     1       9.205  32.695  60.667  1.00  0.00     0.150 C 
BRANCH  14  18
HETATM   18  C   UNL     1       6.504  32.368  63.438  1.00  0.00     0.230 C 
HETATM   19  C   UNL     1       6.730  33.308  64.607  1.00  0.00     0.034 C 
ENDBRANCH  14  18
ENDBRANCH   8  11
ENDBRANCH   3   5
ENDBRANCH   1   3
BRANCH   1  20
HETATM   20  N   UNL     1       4.629  28.669  54.418  1.00  0.00    -0.298 N 
HETATM   21  C   UNL     1       4.283  27.751  53.426  1.00  0.00     0.281 C 
HETATM   22  O   UNL     1       3.169  27.918  52.919  1.00  0.00    -0.265 OA
HETATM   23  H   UNL     1       3.921  29.395  54.427  1.00  0.00     0.171 HD
BRANCH  21  24
HETATM   24  C   UNL     1       5.150  26.676  52.997  1.00  0.00     0.144 A 
HETATM   25  O   UNL     1       5.518  25.633  53.812  1.00  0.00    -0.304 OA
HETATM   26  C   UNL     1       6.438  24.891  53.118  1.00  0.00     0.086 A 
HETATM   27  C   UNL     1       6.652  25.435  51.871  1.00  0.00     0.041 A 
HETATM   28  C   UNL     1       5.820  26.568  51.789  1.00  0.00     0.046 A 
BRANCH  26  29
HETATM   29  C   UNL     1       7.023  23.754  53.804  1.00  0.00    -0.001 A 
HETATM   30  C   UNL     1       7.521  22.663  53.085  1.00  0.00     0.040 A 
HETATM   31  C   UNL     1       8.101  21.577  53.752  1.00  0.00     0.056 A 
HETATM   32 CL   UNL     1       8.670  20.257  52.790  1.00  0.00    -0.083 Cl
HETATM   33  C   UNL     1       8.201  21.583  55.147  1.00  0.00     0.055 A 
HETATM   34 CL   UNL     1       8.902  20.277  56.031  1.00  0.00    -0.083 Cl
HETATM   35  C   UNL     1       7.722  22.679  55.869  1.00  0.00     0.026 A 
HETATM   36  C   UNL     1       7.138  23.757  55.200  1.00  0.00     0.016 A 
ENDBRANCH  26  29
ENDBRANCH  21  24
ENDBRANCH   1  20
TORSDOF 7
ENDMDL
MODEL 4
REMARK VINA RESULT:      -9.3      5.689      9.905
REMARK  7 active torsions:
REMARK  status: ('A' for Active; 'I' for Inactive)
REMARK    1  A    between atoms: C_2  and  N_3 
REMARK    2  A    between atoms: N_7  and  C_8 
REMARK    3  A    between atoms: C_11  and  N_12 
REMARK    4  A    between atoms: N_12  and  C_13 
REMARK    5  A    between atoms: C_13  and  N_14 
REMARK       I    between atoms: N_14  and  C_15 
REMARK    6  A    between atoms: C_15  and  C_16 
REMARK    7  A    between atoms: C_18  and  C_19 
ROOT
HETATM    1  C   UNL     1       5.230  29.864  57.281  1.00  0.00     0.179 C 
HETATM    2  S   UNL     1       5.267  30.198  55.632  1.00  0.00    -0.040 SA
ENDROOT
BRANCH   1   3
HETATM    3  N   UNL     1       4.215  30.161  58.154  1.00  0.00    -0.333 N 
HETATM    4  H   UNL     1       3.771  29.342  58.561  1.00  0.00     0.168 HD
BRANCH   3   5
HETATM    5  C   UNL     1       4.097  31.368  58.880  1.00  0.00     0.034 A 
HETATM    6  C   UNL     1       4.765  32.522  58.488  1.00  0.00     0.032 A 
HETATM    7  C   UNL     1       4.675  33.695  59.252  1.00  0.00     0.031 A 
HETATM    8  C   UNL     1       3.944  33.758  60.449  1.00  0.00     0.030 A 
HETATM    9  C   UNL     1       3.192  32.608  60.755  1.00  0.00     0.031 A 
HETATM   10  C   UNL     1       3.265  31.431  59.988  1.00  0.00     0.032 A 
BRANCH   8  11
HETATM   11  N   UNL     1       3.940  34.910  61.259  1.00  0.00    -0.378 N 
HETATM   12  C   UNL     1       5.243  35.413  61.761  1.00  0.00     0.150 C 
HETATM   13  C   UNL     1       5.713  34.566  62.967  1.00  0.00     0.254 C 
HETATM   14  N   UNL     1       4.653  34.583  64.084  1.00  0.00    -0.068 N 
HETATM   15  H   UNL     1       4.576  35.554  64.414  1.00  0.00     0.280 HD
HETATM   16  C   UNL     1       3.262  34.195  63.539  1.00  0.00     0.254 C 
HETATM   17  C   UNL     1       2.896  35.045  62.300  1.00  0.00     0.150 C 
BRANCH  14  18
HETATM   18  C   UNL     1       5.020  33.712  65.264  1.00  0.00     0.230 C 
HETATM   19  C   UNL     1       6.490  33.855  65.611  1.00  0.00     0.034 C 
ENDBRANCH  14  18
ENDBRANCH   8  11
ENDBRANCH   3   5
ENDBRANCH   1   3
BRANCH   1  20
HETATM   20  N   UNL     1       6.353  29.236  57.782  1.00  0.00    -0.298 N 
HETATM   21  C   UNL     1       7.122  28.096  57.549  1.00  0.00     0.281 C 
HETATM   22  O   UNL     1       8.324  28.208  57.814  1.00  0.00    -0.265 OA
HETATM   23  H   UNL     1       6.938  29.910  58.266  1.00  0.00     0.171 HD
BRANCH  21  24
HETATM   24  C   UNL     1       6.577  26.856  57.042  1.00  0.00     0.144 A 
HETATM   25  O   UNL     1       7.339  25.894  56.426  1.00  0.00    -0.304 OA
HETATM   26  C   UNL     1       6.474  24.935  55.965  1.00  0.00     0.086 A 
HETATM   27  C   UNL     1       5.176  25.265  56.289  1.00  0.00     0.041 A 
HETATM   28  C   UNL     1       5.243  26.485  56.988  1.00  0.00     0.046 A 
BRANCH  26  29
HETATM   29  C   UNL     1       7.048  23.831  55.219  1.00  0.00    -0.001 A 
HETATM   30  C   UNL     1       7.504  22.684  55.877  1.00  0.00     0.040 A 
HETATM   31  C   UNL     1       8.039  21.614  55.150  1.00  0.00     0.056 A 
HETATM   32 CL   UNL     1       8.603  20.243  56.042  1.00  0.00    -0.083 Cl
HETATM   33  C   UNL     1       8.107  21.678  53.755  1.00  0.00     0.055 A 
HETATM   34 CL   UNL     1       8.758  20.396  52.799  1.00  0.00    -0.083 Cl
HETATM   35  C   UNL     1       7.636  22.813  53.091  1.00  0.00     0.026 A 
HETATM   36  C   UNL     1       7.109  23.882  53.820  1.00  0.00     0.016 A 
ENDBRANCH  26  29
ENDBRANCH  21  24
ENDBRANCH   1  20
TORSDOF 7
ENDMDL
MODEL 5
REMARK VINA RESULT:      -9.2      2.901      7.133
REMARK  7 active torsions:
REMARK  status: ('A' for Active; 'I' for Inactive)
REMARK    1  A    between atoms: C_2  and  N_3 
REMARK    2  A    between atoms: N_7  and  C_8 
REMARK    3  A    between atoms: C_11  and  N_12 
REMARK    4  A    between atoms: N_12  and  C_13 
REMARK    5  A    between atoms: C_13  and  N_14 
REMARK       I    between atoms: N_14  and  C_15 
REMARK    6  A    between atoms: C_15  and  C_16 
REMARK    7  A    between atoms: C_18  and  C_19 
ROOT
HETATM    1  C   UNL     1       3.185  30.730  51.525  1.00  0.00     0.179 C 
HETATM    2  S   UNL     1       2.203  31.600  50.471  1.00  0.00    -0.040 SA
ENDROOT
BRANCH   1   3
HETATM    3  N   UNL     1       2.789  30.077  52.663  1.00  0.00    -0.333 N 
HETATM    4  H   UNL     1       2.012  29.437  52.521  1.00  0.00     0.168 HD
BRANCH   3   5
HETATM    5  C   UNL     1       3.615  29.825  53.782  1.00  0.00     0.034 A 
HETATM    6  C   UNL     1       3.975  28.532  54.144  1.00  0.00     0.032 A 
HETATM    7  C   UNL     1       4.752  28.299  55.288  1.00  0.00     0.031 A 
HETATM    8  C   UNL     1       5.176  29.338  56.133  1.00  0.00     0.030 A 
HETATM    9  C   UNL     1       4.890  30.638  55.676  1.00  0.00     0.031 A 
HETATM   10  C   UNL     1       4.122  30.883  54.523  1.00  0.00     0.032 A 
BRANCH   8  11
HETATM   11  N   UNL     1       5.872  29.086  57.330  1.00  0.00    -0.378 N 
HETATM   12  C   UNL     1       6.607  30.211  57.958  1.00  0.00     0.150 C 
HETATM   13  C   UNL     1       7.950  30.446  57.227  1.00  0.00     0.254 C 
HETATM   14  N   UNL     1       8.802  29.163  57.237  1.00  0.00    -0.068 N 
HETATM   15  H   UNL     1       9.029  28.958  58.218  1.00  0.00     0.280 HD
HETATM   16  C   UNL     1       7.996  27.955  56.713  1.00  0.00     0.254 C 
HETATM   17  C   UNL     1       6.644  27.829  57.455  1.00  0.00     0.150 C 
BRANCH  14  18
HETATM   18  C   UNL     1      10.098  29.306  56.472  1.00  0.00     0.230 C 
HETATM   19  C   UNL     1      11.165  29.965  57.324  1.00  0.00     0.034 C 
ENDBRANCH  14  18
ENDBRANCH   8  11
ENDBRANCH   3   5
ENDBRANCH   1   3
BRANCH   1  20
HETATM   20  N   UNL     1       4.525  30.695  51.190  1.00  0.00    -0.298 N 
HETATM   21  C   UNL     1       5.455  29.817  50.634  1.00  0.00     0.281 C 
HETATM   22  O   UNL     1       6.361  30.350  49.985  1.00  0.00    -0.265 OA
HETATM   23  H   UNL     1       4.872  31.639  51.053  1.00  0.00     0.171 HD
BRANCH  21  24
HETATM   24  C   UNL     1       5.393  28.381  50.795  1.00  0.00     0.144 A 
HETATM   25  O   UNL     1       6.056  27.704  51.789  1.00  0.00    -0.304 OA
HETATM   26  C   UNL     1       5.874  26.366  51.550  1.00  0.00     0.086 A 
HETATM   27  C   UNL     1       5.095  26.180  50.429  1.00  0.00     0.041 A 
HETATM   28  C   UNL     1       4.777  27.467  49.954  1.00  0.00     0.046 A 
BRANCH  26  29
HETATM   29  C   UNL     1       6.538  25.439  52.447  1.00  0.00    -0.001 A 
HETATM   30  C   UNL     1       6.194  25.383  53.802  1.00  0.00     0.040 A 
HETATM   31  C   UNL     1       6.824  24.473  54.659  1.00  0.00     0.056 A 
HETATM   32 CL   UNL     1       6.358  24.487  56.324  1.00  0.00    -0.083 Cl
HETATM   33  C   UNL     1       7.795  23.599  54.161  1.00  0.00     0.055 A 
HETATM   34 CL   UNL     1       8.613  22.455  55.162  1.00  0.00    -0.083 Cl
HETATM   35  C   UNL     1       8.130  23.637  52.805  1.00  0.00     0.026 A 
HETATM   36  C   UNL     1       7.503  24.551  51.955  1.00  0.00     0.016 A 
ENDBRANCH  26  29
ENDBRANCH  21  24
ENDBRANCH   1  20
TORSDOF 7
ENDMDL
MODEL 6
REMARK VINA RESULT:      -9.2      6.819     11.113
REMARK  7 active torsions:
REMARK  status: ('A' for Active; 'I' for Inactive)
REMARK    1  A    between atoms: C_2  and  N_3 
REMARK    2  A    between atoms: N_7  and  C_8 
REMARK    3  A    between atoms: C_11  and  N_12 
REMARK    4  A    between atoms: N_12  and  C_13 
REMARK    5  A    between atoms: C_13  and  N_14 
REMARK       I    between atoms: N_14  and  C_15 
REMARK    6  A    between atoms: C_15  and  C_16 
REMARK    7  A    between atoms: C_18  and  C_19 
ROOT
HETATM    1  C   UNL     1       7.963  30.997  60.056  1.00  0.00     0.179 C 
HETATM    2  S   UNL     1       6.891  31.968  59.196  1.00  0.00    -0.040 SA
ENDROOT
BRANCH   1   3
HETATM    3  N   UNL     1       7.920  30.718  61.398  1.00  0.00    -0.333 N 
HETATM    4  H   UNL     1       8.701  30.155  61.726  1.00  0.00     0.168 HD
BRANCH   3   5
HETATM    5  C   UNL     1       7.258  31.504  62.369  1.00  0.00     0.034 A 
HETATM    6  C   UNL     1       5.885  31.418  62.562  1.00  0.00     0.032 A 
HETATM    7  C   UNL     1       5.241  32.244  63.495  1.00  0.00     0.031 A 
HETATM    8  C   UNL     1       5.931  33.207  64.249  1.00  0.00     0.030 A 
HETATM    9  C   UNL     1       7.331  33.189  64.109  1.00  0.00     0.031 A 
HETATM   10  C   UNL     1       7.988  32.355  63.185  1.00  0.00     0.032 A 
BRANCH   8  11
HETATM   11  N   UNL     1       5.262  34.097  65.110  1.00  0.00    -0.378 N 
HETATM   12  C   UNL     1       3.778  34.076  65.118  1.00  0.00     0.150 C 
HETATM   13  C   UNL     1       3.227  34.846  63.894  1.00  0.00     0.254 C 
HETATM   14  N   UNL     1       3.754  36.293  63.885  1.00  0.00    -0.068 N 
HETATM   15  H   UNL     1       3.379  36.757  64.722  1.00  0.00     0.280 HD
HETATM   16  C   UNL     1       5.291  36.328  64.018  1.00  0.00     0.254 C 
HETATM   17  C   UNL     1       5.761  35.486  65.227  1.00  0.00     0.150 C 
BRANCH  14  18
HETATM   18  C   UNL     1       3.310  37.078  62.671  1.00  0.00     0.230 C 
HETATM   19  C   UNL     1       2.957  36.153  61.522  1.00  0.00     0.034 C 
ENDBRANCH  14  18
ENDBRANCH   8  11
ENDBRANCH   3   5
ENDBRANCH   1   3
BRANCH   1  20
HETATM   20  N   UNL     1       8.988  30.446  59.312  1.00  0.00    -0.298 N 
HETATM   21  C   UNL     1       9.168  29.684  58.157  1.00  0.00     0.281 C 
HETATM   22  O   UNL     1      10.215  29.903  57.539  1.00  0.00    -0.265 OA
HETATM   23  H   UNL     1       9.851  30.949  59.487  1.00  0.00     0.171 HD
BRANCH  21  24
HETATM   24  C   UNL     1       8.217  28.696  57.697  1.00  0.00     0.144 A 
HETATM   25  O   UNL     1       8.585  27.517  57.098  1.00  0.00    -0.304 OA
HETATM   26  C   UNL     1       7.431  26.905  56.680  1.00  0.00     0.086 A 
HETATM   27  C   UNL     1       6.334  27.668  57.014  1.00  0.00     0.041 A 
HETATM   28  C   UNL     1       6.836  28.807  57.675  1.00  0.00     0.046 A 
BRANCH  26  29
HETATM   29  C   UNL     1       7.571  25.653  55.959  1.00  0.00    -0.001 A 
HETATM   30  C   UNL     1       7.866  24.466  56.637  1.00  0.00     0.040 A 
HETATM   31  C   UNL     1       7.981  23.258  55.939  1.00  0.00     0.056 A 
HETATM   32 CL   UNL     1       8.372  21.841  56.849  1.00  0.00    -0.083 Cl
HETATM   33  C   UNL     1       7.785  23.228  54.555  1.00  0.00     0.055 A 
HETATM   34 CL   UNL     1       7.914  21.774  53.632  1.00  0.00    -0.083 Cl
HETATM   35  C   UNL     1       7.471  24.407  53.874  1.00  0.00     0.026 A 
HETATM   36  C   UNL     1       7.364  25.611  54.574  1.00  0.00     0.016 A 
ENDBRANCH  26  29
ENDBRANCH  21  24
ENDBRANCH   1  20
TORSDOF 7
ENDMDL
MODEL 7
REMARK VINA RESULT:      -9.1      5.985     10.138
REMARK  7 active torsions:
REMARK  status: ('A' for Active; 'I' for Inactive)
REMARK    1  A    between atoms: C_2  and  N_3 
REMARK    2  A    between atoms: N_7  and  C_8 
REMARK    3  A    between atoms: C_11  and  N_12 
REMARK    4  A    between atoms: N_12  and  C_13 
REMARK    5  A    between atoms: C_13  and  N_14 
REMARK       I    between atoms: N_14  and  C_15 
REMARK    6  A    between atoms: C_15  and  C_16 
REMARK    7  A    between atoms: C_18  and  C_19 
ROOT
HETATM    1  C   UNL     1       5.174  30.109  57.326  1.00  0.00     0.179 C 
HETATM    2  S   UNL     1       3.998  29.447  56.320  1.00  0.00    -0.040 SA
ENDROOT
BRANCH   1   3
HETATM    3  N   UNL     1       5.353  31.437  57.615  1.00  0.00    -0.333 N 
HETATM    4  H   UNL     1       5.318  32.043  56.799  1.00  0.00     0.168 HD
BRANCH   3   5
HETATM    5  C   UNL     1       5.067  32.042  58.860  1.00  0.00     0.034 A 
HETATM    6  C   UNL     1       6.068  32.302  59.789  1.00  0.00     0.032 A 
HETATM    7  C   UNL     1       5.758  32.855  61.039  1.00  0.00     0.031 A 
HETATM    8  C   UNL     1       4.439  33.142  61.428  1.00  0.00     0.030 A 
HETATM    9  C   UNL     1       3.467  32.971  60.424  1.00  0.00     0.031 A 
HETATM   10  C   UNL     1       3.770  32.429  59.162  1.00  0.00     0.032 A 
BRANCH   8  11
HETATM   11  N   UNL     1       4.127  33.606  62.720  1.00  0.00    -0.378 N 
HETATM   12  C   UNL     1       2.958  34.506  62.875  1.00  0.00     0.150 C 
HETATM   13  C   UNL     1       3.332  35.945  62.449  1.00  0.00     0.254 C 
HETATM   14  N   UNL     1       4.529  36.457  63.271  1.00  0.00    -0.068 N 
HETATM   15  H   UNL     1       4.224  36.507  64.251  1.00  0.00     0.280 HD
HETATM   16  C   UNL     1       5.704  35.457  63.229  1.00  0.00     0.254 C 
HETATM   17  C   UNL     1       5.232  34.033  63.609  1.00  0.00     0.150 C 
BRANCH  14  18
HETATM   18  C   UNL     1       4.992  37.834  62.851  1.00  0.00     0.230 C 
HETATM   19  C   UNL     1       5.726  38.532  63.980  1.00  0.00     0.034 C 
ENDBRANCH  14  18
ENDBRANCH   8  11
ENDBRANCH   3   5
ENDBRANCH   1   3
BRANCH   1  20
HETATM   20  N   UNL     1       6.042  29.199  57.898  1.00  0.00    -0.298 N 
HETATM   21  C   UNL     1       7.083  28.348  57.524  1.00  0.00     0.281 C 
HETATM   22  O   UNL     1       7.948  28.164  58.386  1.00  0.00    -0.265 OA
HETATM   23  H   UNL     1       6.144  29.394  58.888  1.00  0.00     0.171 HD
BRANCH  21  24
HETATM   24  C   UNL     1       7.165  27.709  56.229  1.00  0.00     0.144 A 
HETATM   25  O   UNL     1       7.226  26.348  56.063  1.00  0.00    -0.304 OA
HETATM   26  C   UNL     1       7.429  26.118  54.726  1.00  0.00     0.086 A 
HETATM   27  C   UNL     1       7.486  27.309  54.038  1.00  0.00     0.041 A 
HETATM   28  C   UNL     1       7.305  28.325  54.996  1.00  0.00     0.046 A 
BRANCH  26  29
HETATM   29  C   UNL     1       7.586  24.737  54.310  1.00  0.00    -0.001 A 
HETATM   30  C   UNL     1       7.561  23.699  55.248  1.00  0.00     0.040 A 
HETATM   31  C   UNL     1       7.693  22.367  54.838  1.00  0.00     0.056 A 
HETATM   32 CL   UNL     1       7.676  21.147  56.064  1.00  0.00    -0.083 Cl
HETATM   33  C   UNL     1       7.836  22.062  53.481  1.00  0.00     0.055 A 
HETATM   34 CL   UNL     1       8.007  20.442  52.908  1.00  0.00    -0.083 Cl
HETATM   35  C   UNL     1       7.843  23.093  52.538  1.00  0.00     0.026 A 
HETATM   36  C   UNL     1       7.717  24.421  52.951  1.00  0.00     0.016 A 
ENDBRANCH  26  29
ENDBRANCH  21  24
ENDBRANCH   1  20
TORSDOF 7
ENDMDL
MODEL 8
REMARK VINA RESULT:      -9.1     11.609     16.835
REMARK  7 active torsions:
REMARK  status: ('A' for Active; 'I' for Inactive)
REMARK    1  A    between atoms: C_2  and  N_3 
REMARK    2  A    between atoms: N_7  and  C_8 
REMARK    3  A    between atoms: C_11  and  N_12 
REMARK    4  A    between atoms: N_12  and  C_13 
REMARK    5  A    between atoms: C_13  and  N_14 
REMARK       I    between atoms: N_14  and  C_15 
REMARK    6  A    between atoms: C_15  and  C_16 
REMARK    7  A    between atoms: C_18  and  C_19 
ROOT
HETATM    1  C   UNL     1       4.989  34.022  64.947  1.00  0.00     0.179 C 
HETATM    2  S   UNL     1       4.606  35.655  64.804  1.00  0.00    -0.040 SA
ENDROOT
BRANCH   1   3
HETATM    3  N   UNL     1       5.709  33.435  65.955  1.00  0.00    -0.333 N 
HETATM    4  H   UNL     1       6.383  32.745  65.631  1.00  0.00     0.168 HD
BRANCH   3   5
HETATM    5  C   UNL     1       5.964  34.019  67.217  1.00  0.00     0.034 A 
HETATM    6  C   UNL     1       7.227  34.487  67.560  1.00  0.00     0.032 A 
HETATM    7  C   UNL     1       7.471  35.016  68.836  1.00  0.00     0.031 A 
HETATM    8  C   UNL     1       6.479  35.072  69.829  1.00  0.00     0.030 A 
HETATM    9  C   UNL     1       5.189  34.695  69.411  1.00  0.00     0.031 A 
HETATM   10  C   UNL     1       4.931  34.175  68.129  1.00  0.00     0.032 A 
BRANCH   8  11
HETATM   11  N   UNL     1       6.759  35.514  71.136  1.00  0.00    -0.378 N 
HETATM   12  C   UNL     1       8.179  35.581  71.559  1.00  0.00     0.150 C 
HETATM   13  C   UNL     1       8.693  34.169  71.926  1.00  0.00     0.254 C 
HETATM   14  N   UNL     1       7.821  33.547  73.033  1.00  0.00    -0.068 N 
HETATM   15  H   UNL     1       7.934  34.131  73.871  1.00  0.00     0.280 HD
HETATM   16  C   UNL     1       6.325  33.600  72.659  1.00  0.00     0.254 C 
HETATM   17  C   UNL     1       5.908  35.032  72.248  1.00  0.00     0.150 C 
BRANCH  14  18
HETATM   18  C   UNL     1       8.229  32.134  73.385  1.00  0.00     0.230 C 
HETATM   19  C   UNL     1       7.838  31.163  72.287  1.00  0.00     0.034 C 
ENDBRANCH  14  18
ENDBRANCH   8  11
ENDBRANCH   3   5
ENDBRANCH   1   3
BRANCH   1  20
HETATM   20  N   UNL     1       4.527  33.216  63.925  1.00  0.00    -0.298 N 
HETATM   21  C   UNL     1       4.999  32.229  63.059  1.00  0.00     0.281 C 
HETATM   22  O   UNL     1       4.165  31.381  62.723  1.00  0.00    -0.265 OA
HETATM   23  H   UNL     1       3.521  33.106  64.000  1.00  0.00     0.171 HD
BRANCH  21  24
HETATM   24  C   UNL     1       6.358  32.181  62.568  1.00  0.00     0.144 A 
HETATM   25  O   UNL     1       6.690  31.740  61.310  1.00  0.00    -0.304 OA
HETATM   26  C   UNL     1       8.060  31.711  61.248  1.00  0.00     0.086 A 
HETATM   27  C   UNL     1       8.604  32.137  62.438  1.00  0.00     0.041 A 
HETATM   28  C   UNL     1       7.517  32.450  63.277  1.00  0.00     0.046 A 
BRANCH  26  29
HETATM   29  C   UNL     1       8.654  31.217  60.019  1.00  0.00    -0.001 A 
HETATM   30  C   UNL     1       8.131  30.092  59.373  1.00  0.00     0.040 A 
HETATM   31  C   UNL     1       8.697  29.631  58.179  1.00  0.00     0.056 A 
HETATM   32 CL   UNL     1       8.007  28.218  57.458  1.00  0.00    -0.083 Cl
HETATM   33  C   UNL     1       9.783  30.305  57.611  1.00  0.00     0.055 A 
HETATM   34 CL   UNL     1      10.529  29.790  56.142  1.00  0.00    -0.083 Cl
HETATM   35  C   UNL     1      10.297  31.441  58.242  1.00  0.00     0.026 A 
HETATM   36  C   UNL     1       9.734  31.894  59.437  1.00  0.00     0.016 A 
ENDBRANCH  26  29
ENDBRANCH  21  24
ENDBRANCH   1  20
TORSDOF 7
ENDMDL
MODEL 9
REMARK VINA RESULT:      -9.0      4.544      9.197
REMARK  7 active torsions:
REMARK  status: ('A' for Active; 'I' for Inactive)
REMARK    1  A    between atoms: C_2  and  N_3 
REMARK    2  A    between atoms: N_7  and  C_8 
REMARK    3  A    between atoms: C_11  and  N_12 
REMARK    4  A    between atoms: N_12  and  C_13 
REMARK    5  A    between atoms: C_13  and  N_14 
REMARK       I    between atoms: N_14  and  C_15 
REMARK    6  A    between atoms: C_15  and  C_16 
REMARK    7  A    between atoms: C_18  and  C_19 
ROOT
HETATM    1  C   UNL     1       6.600  29.094  55.875  1.00  0.00     0.179 C 
HETATM    2  S   UNL     1       5.170  28.456  56.491  1.00  0.00    -0.040 SA
ENDROOT
BRANCH   1   3
HETATM    3  N   UNL     1       7.628  29.646  56.595  1.00  0.00    -0.333 N 
HETATM    4  H   UNL     1       8.420  29.935  56.026  1.00  0.00     0.168 HD
BRANCH   3   5
HETATM    5  C   UNL     1       7.490  30.282  57.850  1.00  0.00     0.034 A 
HETATM    6  C   UNL     1       6.516  31.248  58.072  1.00  0.00     0.032 A 
HETATM    7  C   UNL     1       6.428  31.904  59.308  1.00  0.00     0.031 A 
HETATM    8  C   UNL     1       7.324  31.649  60.360  1.00  0.00     0.030 A 
HETATM    9  C   UNL     1       8.222  30.589  60.139  1.00  0.00     0.031 A 
HETATM   10  C   UNL     1       8.309  29.915  58.907  1.00  0.00     0.032 A 
BRANCH   8  11
HETATM   11  N   UNL     1       7.289  32.382  61.562  1.00  0.00    -0.378 N 
HETATM   12  C   UNL     1       6.712  31.726  62.761  1.00  0.00     0.150 C 
HETATM   13  C   UNL     1       5.167  31.759  62.696  1.00  0.00     0.254 C 
HETATM   14  N   UNL     1       4.663  33.209  62.570  1.00  0.00    -0.068 N 
HETATM   15  H   UNL     1       4.935  33.700  63.430  1.00  0.00     0.280 HD
HETATM   16  C   UNL     1       5.363  33.943  61.406  1.00  0.00     0.254 C 
HETATM   17  C   UNL     1       6.901  33.810  61.514  1.00  0.00     0.150 C 
BRANCH  14  18
HETATM   18  C   UNL     1       3.160  33.304  62.427  1.00  0.00     0.230 C 
HETATM   19  C   UNL     1       2.564  34.186  63.508  1.00  0.00     0.034 C 
ENDBRANCH  14  18
ENDBRANCH   8  11
ENDBRANCH   3   5
ENDBRANCH   1   3
BRANCH   1  20
HETATM   20  N   UNL     1       6.720  29.055  54.500  1.00  0.00    -0.298 N 
HETATM   21  C   UNL     1       6.273  28.296  53.418  1.00  0.00     0.281 C 
HETATM   22  O   UNL     1       6.127  28.918  52.361  1.00  0.00    -0.265 OA
HETATM   23  H   UNL     1       6.971  29.974  54.149  1.00  0.00     0.171 HD
BRANCH  21  24
HETATM   24  C   UNL     1       6.000  26.878  53.498  1.00  0.00     0.144 A 
HETATM   25  O   UNL     1       6.838  25.982  54.116  1.00  0.00    -0.304 OA
HETATM   26  C   UNL     1       6.327  24.731  53.879  1.00  0.00     0.086 A 
HETATM   27  C   UNL     1       5.173  24.817  53.132  1.00  0.00     0.041 A 
HETATM   28  C   UNL     1       4.957  26.189  52.900  1.00  0.00     0.046 A 
BRANCH  26  29
HETATM   29  C   UNL     1       7.082  23.602  54.391  1.00  0.00    -0.001 A 
HETATM   30  C   UNL     1       7.512  22.583  53.536  1.00  0.00     0.040 A 
HETATM   31  C   UNL     1       8.256  21.505  54.032  1.00  0.00     0.056 A 
HETATM   32 CL   UNL     1       8.728  20.274  52.913  1.00  0.00    -0.083 Cl
HETATM   33  C   UNL     1       8.590  21.450  55.389  1.00  0.00     0.055 A 
HETATM   34 CL   UNL     1       9.502  20.150  56.067  1.00  0.00    -0.083 Cl
HETATM   35  C   UNL     1       8.179  22.476  56.245  1.00  0.00     0.026 A 
HETATM   36  C   UNL     1       7.431  23.545  55.747  1.00  0.00     0.016 A 
ENDBRANCH  26  29
ENDBRANCH  21  24
ENDBRANCH   1  20
TORSDOF 7
ENDMDL
MODEL 10
REMARK VINA RESULT:      -8.8      4.566      9.086
REMARK  7 active torsions:
REMARK  status: ('A' for Active; 'I' for Inactive)
REMARK    1  A    between atoms: C_2  and  N_3 
REMARK    2  A    between atoms: N_7  and  C_8 
REMARK    3  A    between atoms: C_11  and  N_12 
REMARK    4  A    between atoms: N_12  and  C_13 
REMARK    5  A    between atoms: C_13  and  N_14 
REMARK       I    between atoms: N_14  and  C_15 
REMARK    6  A    between atoms: C_15  and  C_16 
REMARK    7  A    between atoms: C_18  and  C_19 
ROOT
HETATM    1  C   UNL     1       7.021  29.074  55.822  1.00  0.00     0.179 C 
HETATM    2  S   UNL     1       8.633  28.879  55.382  1.00  0.00    -0.040 SA
ENDROOT
BRANCH   1   3
HETATM    3  N   UNL     1       6.511  29.054  57.095  1.00  0.00    -0.333 N 
HETATM    4  H   UNL     1       6.927  28.345  57.693  1.00  0.00     0.168 HD
BRANCH   3   5
HETATM    5  C   UNL     1       5.916  30.158  57.748  1.00  0.00     0.034 A 
HETATM    6  C   UNL     1       6.683  31.128  58.382  1.00  0.00     0.032 A 
HETATM    7  C   UNL     1       6.072  32.187  59.068  1.00  0.00     0.031 A 
HETATM    8  C   UNL     1       4.677  32.307  59.177  1.00  0.00     0.030 A 
HETATM    9  C   UNL     1       3.934  31.373  58.430  1.00  0.00     0.031 A 
HETATM   10  C   UNL     1       4.538  30.314  57.728  1.00  0.00     0.032 A 
BRANCH   8  11
HETATM   11  N   UNL     1       4.075  33.318  59.950  1.00  0.00    -0.378 N 
HETATM   12  C   UNL     1       4.937  34.414  60.456  1.00  0.00     0.150 C 
HETATM   13  C   UNL     1       5.731  33.940  61.695  1.00  0.00     0.254 C 
HETATM   14  N   UNL     1       4.772  33.446  62.795  1.00  0.00    -0.068 N 
HETATM   15  H   UNL     1       4.211  34.254  63.092  1.00  0.00     0.280 HD
HETATM   16  C   UNL     1       3.777  32.404  62.240  1.00  0.00     0.254 C 
HETATM   17  C   UNL     1       3.072  32.934  60.969  1.00  0.00     0.150 C 
BRANCH  14  18
HETATM   18  C   UNL     1       5.491  32.899  64.007  1.00  0.00     0.230 C 
HETATM   19  C   UNL     1       6.995  33.000  63.842  1.00  0.00     0.034 C 
ENDBRANCH  14  18
ENDBRANCH   8  11
ENDBRANCH   3   5
ENDBRANCH   1   3
BRANCH   1  20
HETATM   20  N   UNL     1       6.141  29.261  54.775  1.00  0.00    -0.298 N 
HETATM   21  C   UNL     1       5.422  28.506  53.847  1.00  0.00     0.281 C 
HETATM   22  O   UNL     1       4.344  28.995  53.492  1.00  0.00    -0.265 OA
HETATM   23  H   UNL     1       5.674  30.157  54.871  1.00  0.00     0.171 HD
BRANCH  21  24
HETATM   24  C   UNL     1       5.885  27.243  53.316  1.00  0.00     0.144 A 
HETATM   25  O   UNL     1       6.201  26.165  54.105  1.00  0.00    -0.304 OA
HETATM   26  C   UNL     1       6.722  25.205  53.276  1.00  0.00     0.086 A 
HETATM   27  C   UNL     1       6.732  25.649  51.972  1.00  0.00     0.041 A 
HETATM   28  C   UNL     1       6.185  26.946  51.996  1.00  0.00     0.046 A 
BRANCH  26  29
HETATM   29  C   UNL     1       7.188  23.978  53.897  1.00  0.00    -0.001 A 
HETATM   30  C   UNL     1       7.528  22.867  53.119  1.00  0.00     0.040 A 
HETATM   31  C   UNL     1       7.995  21.693  53.722  1.00  0.00     0.056 A 
HETATM   32 CL   UNL     1       8.370  20.357  52.690  1.00  0.00    -0.083 Cl
HETATM   33  C   UNL     1       8.141  21.629  55.111  1.00  0.00     0.055 A 
HETATM   34 CL   UNL     1       8.708  20.212  55.919  1.00  0.00    -0.083 Cl
HETATM   35  C   UNL     1       7.821  22.742  55.892  1.00  0.00     0.026 A 
HETATM   36  C   UNL     1       7.349  23.909  55.287  1.00  0.00     0.016 A 
ENDBRANCH  26  29
ENDBRANCH  21  24
ENDBRANCH   1  20
TORSDOF 7
ENDMDL
