MODEL 1
REMARK VINA RESULT:      -9.9      0.000      0.000
REMARK  6 active torsions:
REMARK  status: ('A' for Active; 'I' for Inactive)
REMARK    1  A    between atoms: O_2  and  C_3 
REMARK    2  A    between atoms: C_6  and  C_7 
REMARK    3  A    between atoms: C_12  and  C_13 
REMARK       I    between atoms: C_13  and  N_14 
REMARK    4  A    between atoms: N_14  and  C_15 
REMARK    5  A    between atoms: C_15  and  C_16 
REMARK    6  A    between atoms: C_24  and  C_25 
ROOT
HETATM    1  C   UNL     1       6.904  25.975  53.731  1.00  0.00     0.118 C 
HETATM    2  N   UNL     1       7.705  27.153  54.037  1.00  0.00    -0.366 N 
HETATM    3  C   UNL     1       7.459  27.935  55.107  1.00  0.00     0.123 A 
HETATM    4  N   UNL     1       6.360  27.750  55.901  1.00  0.00    -0.240 N 
HETATM    5  N   UNL     1       6.263  28.637  56.909  1.00  0.00    -0.165 NA
HETATM    6  C   UNL     1       7.375  29.396  56.772  1.00  0.00     0.148 A 
HETATM    7  C   UNL     1       8.139  28.993  55.644  1.00  0.00     0.088 A 
HETATM    8  C   UNL     1       5.354  26.729  55.682  1.00  0.00     0.221 C 
HETATM    9  C   UNL     1       5.469  26.131  54.265  1.00  0.00     0.066 C 
HETATM   10  H   UNL     1       8.602  27.202  53.553  1.00  0.00     0.161 HD
ENDROOT
BRANCH   6  11
HETATM   11  C   UNL     1       7.713  30.479  57.708  1.00  0.00     0.272 C 
HETATM   12  N   UNL     1       9.047  30.527  58.032  1.00  0.00    -0.351 N 
HETATM   13  H   UNL     1       9.641  29.815  57.614  1.00  0.00     0.163 HD
HETATM   14  O   UNL     1       6.876  31.270  58.131  1.00  0.00    -0.266 OA
BRANCH  12  15
HETATM   15  C   UNL     1       9.614  31.541  58.882  1.00  0.00     0.161 C 
BRANCH  15  16
HETATM   16  C   UNL     1       9.044  31.519  60.280  1.00  0.00    -0.041 A 
HETATM   17  C   UNL     1       9.288  30.453  61.161  1.00  0.00     0.009 A 
HETATM   18  C   UNL     1       8.791  30.476  62.465  1.00  0.00     0.001 A 
HETATM   19  C   UNL     1       8.058  31.573  62.913  1.00  0.00     0.000 A 
HETATM   20  C   UNL     1       7.824  32.647  62.058  1.00  0.00     0.001 A 
HETATM   21  C   UNL     1       8.317  32.622  60.751  1.00  0.00     0.009 A 
ENDBRANCH  15  16
ENDBRANCH  12  15
ENDBRANCH   6  11
BRANCH   8  22
HETATM   22  C   UNL     1       5.389  25.700  56.789  1.00  0.00     0.409 C 
HETATM   23  F   UNL     1       6.500  25.749  57.547  1.00  0.00    -0.169 F 
HETATM   24  F   UNL     1       4.328  25.817  57.623  1.00  0.00    -0.169 F 
HETATM   25  F   UNL     1       5.317  24.448  56.266  1.00  0.00    -0.169 F 
ENDBRANCH   8  22
BRANCH   1  26
HETATM   26  C   UNL     1       7.594  24.681  54.120  1.00  0.00    -0.035 A 
HETATM   27  C   UNL     1       8.377  24.546  55.276  1.00  0.00     0.012 A 
HETATM   28  C   UNL     1       8.975  23.324  55.610  1.00  0.00     0.037 A 
HETATM   29  C   UNL     1       8.817  22.216  54.781  1.00  0.00     0.068 A 
HETATM   30  C   UNL     1       8.076  22.346  53.608  1.00  0.00     0.037 A 
HETATM   31  C   UNL     1       7.462  23.560  53.285  1.00  0.00     0.012 A 
BRANCH  29  32
HETATM   32  O   UNL     1       9.346  20.974  54.999  1.00  0.00    -0.356 OA
HETATM   33  C   UNL     1       9.076  20.390  56.267  1.00  0.00     0.210 C 
ENDBRANCH  29  32
ENDBRANCH   1  26
TORSDOF 6
ENDMDL
MODEL 2
REMARK VINA RESULT:      -9.9      6.045      9.549
REMARK  6 active torsions:
REMARK  status: ('A' for Active; 'I' for Inactive)
REMARK    1  A    between atoms: O_2  and  C_3 
REMARK    2  A    between atoms: C_6  and  C_7 
REMARK    3  A    between atoms: C_12  and  C_13 
REMARK       I    between atoms: C_13  and  N_14 
REMARK    4  A    between atoms: N_14  and  C_15 
REMARK    5  A    between atoms: C_15  and  C_16 
REMARK    6  A    between atoms: C_24  and  C_25 
ROOT
HETATM    1  C   UNL     1       4.935  28.039  48.421  1.00  0.00     0.118 C 
HETATM    2  N   UNL     1       5.385  26.879  49.177  1.00  0.00    -0.366 N 
HETATM    3  C   UNL     1       5.453  26.878  50.523  1.00  0.00     0.123 A 
HETATM    4  N   UNL     1       5.232  28.009  51.260  1.00  0.00    -0.240 N 
HETATM    5  N   UNL     1       5.365  27.828  52.588  1.00  0.00    -0.165 NA
HETATM    6  C   UNL     1       5.644  26.508  52.702  1.00  0.00     0.148 A 
HETATM    7  C   UNL     1       5.722  25.886  51.426  1.00  0.00     0.088 A 
HETATM    8  C   UNL     1       4.921  29.307  50.694  1.00  0.00     0.221 C 
HETATM    9  C   UNL     1       5.230  29.343  49.184  1.00  0.00     0.066 C 
HETATM   10  H   UNL     1       5.396  26.001  48.656  1.00  0.00     0.161 HD
ENDROOT
BRANCH   6  11
HETATM   11  C   UNL     1       5.821  25.847  54.003  1.00  0.00     0.272 C 
HETATM   12  N   UNL     1       6.559  24.691  53.934  1.00  0.00    -0.351 N 
HETATM   13  H   UNL     1       6.882  24.413  53.012  1.00  0.00     0.163 HD
HETATM   14  O   UNL     1       5.366  26.309  55.044  1.00  0.00    -0.266 OA
BRANCH  12  15
HETATM   15  C   UNL     1       6.908  23.912  55.093  1.00  0.00     0.161 C 
BRANCH  15  16
HETATM   16  C   UNL     1       7.531  22.583  54.740  1.00  0.00    -0.041 A 
HETATM   17  C   UNL     1       7.846  21.630  55.722  1.00  0.00     0.009 A 
HETATM   18  C   UNL     1       8.378  20.389  55.367  1.00  0.00     0.001 A 
HETATM   19  C   UNL     1       8.583  20.075  54.025  1.00  0.00     0.000 A 
HETATM   20  C   UNL     1       8.257  21.002  53.038  1.00  0.00     0.001 A 
HETATM   21  C   UNL     1       7.731  22.246  53.392  1.00  0.00     0.009 A 
ENDBRANCH  15  16
ENDBRANCH  12  15
ENDBRANCH   6  11
BRANCH   8  22
HETATM   22  C   UNL     1       3.506  29.715  51.042  1.00  0.00     0.409 C 
HETATM   23  F   UNL     1       3.378  30.256  52.268  1.00  0.00    -0.169 F 
HETATM   24  F   UNL     1       3.005  30.607  50.154  1.00  0.00    -0.169 F 
HETATM   25  F   UNL     1       2.683  28.636  50.993  1.00  0.00    -0.169 F 
ENDBRANCH   8  22
BRANCH   1  26
HETATM   26  C   UNL     1       3.509  27.898  47.924  1.00  0.00    -0.035 A 
HETATM   27  C   UNL     1       2.749  26.731  48.094  1.00  0.00     0.012 A 
HETATM   28  C   UNL     1       1.426  26.653  47.641  1.00  0.00     0.037 A 
HETATM   29  C   UNL     1       0.842  27.737  46.991  1.00  0.00     0.068 A 
HETATM   30  C   UNL     1       1.597  28.889  46.778  1.00  0.00     0.037 A 
HETATM   31  C   UNL     1       2.912  28.974  47.248  1.00  0.00     0.012 A 
BRANCH  29  32
HETATM   32  O   UNL     1      -0.437  27.785  46.508  1.00  0.00    -0.356 OA
HETATM   33  C   UNL     1      -0.584  27.612  45.104  1.00  0.00     0.210 C 
ENDBRANCH  29  32
ENDBRANCH   1  26
TORSDOF 6
ENDMDL
MODEL 3
REMARK VINA RESULT:      -9.9      1.668      2.635
REMARK  6 active torsions:
REMARK  status: ('A' for Active; 'I' for Inactive)
REMARK    1  A    between atoms: O_2  and  C_3 
REMARK    2  A    between atoms: C_6  and  C_7 
REMARK    3  A    between atoms: C_12  and  C_13 
REMARK       I    between atoms: C_13  and  N_14 
REMARK    4  A    between atoms: N_14  and  C_15 
REMARK    5  A    between atoms: C_15  and  C_16 
REMARK    6  A    between atoms: C_24  and  C_25 
ROOT
HETATM    1  C   UNL     1       7.367  27.912  54.091  1.00  0.00     0.118 C 
HETATM    2  N   UNL     1       8.542  28.536  54.683  1.00  0.00    -0.366 N 
HETATM    3  C   UNL     1       8.480  29.260  55.818  1.00  0.00     0.123 A 
HETATM    4  N   UNL     1       7.289  29.566  56.416  1.00  0.00    -0.240 N 
HETATM    5  N   UNL     1       7.416  30.315  57.528  1.00  0.00    -0.165 NA
HETATM    6  C   UNL     1       8.756  30.458  57.664  1.00  0.00     0.148 A 
HETATM    7  C   UNL     1       9.451  29.821  56.601  1.00  0.00     0.088 A 
HETATM    8  C   UNL     1       5.990  29.172  55.907  1.00  0.00     0.221 C 
HETATM    9  C   UNL     1       6.090  28.696  54.443  1.00  0.00     0.066 C 
HETATM   10  H   UNL     1       9.437  28.185  54.339  1.00  0.00     0.161 HD
ENDROOT
BRANCH   6  11
HETATM   11  C   UNL     1       9.364  31.174  58.794  1.00  0.00     0.272 C 
HETATM   12  N   UNL     1       8.834  30.828  60.012  1.00  0.00    -0.351 N 
HETATM   13  H   UNL     1       8.083  30.143  60.002  1.00  0.00     0.163 HD
HETATM   14  O   UNL     1      10.274  31.984  58.648  1.00  0.00    -0.266 OA
BRANCH  12  15
HETATM   15  C   UNL     1       9.318  31.358  61.260  1.00  0.00     0.161 C 
BRANCH  15  16
HETATM   16  C   UNL     1       8.305  32.235  61.957  1.00  0.00    -0.041 A 
HETATM   17  C   UNL     1       7.293  32.900  61.248  1.00  0.00     0.009 A 
HETATM   18  C   UNL     1       6.338  33.667  61.918  1.00  0.00     0.001 A 
HETATM   19  C   UNL     1       6.371  33.764  63.308  1.00  0.00     0.000 A 
HETATM   20  C   UNL     1       7.358  33.094  64.027  1.00  0.00     0.001 A 
HETATM   21  C   UNL     1       8.316  32.331  63.357  1.00  0.00     0.009 A 
ENDBRANCH  15  16
ENDBRANCH  12  15
ENDBRANCH   6  11
BRANCH   8  22
HETATM   22  C   UNL     1       5.335  28.173  56.834  1.00  0.00     0.409 C 
HETATM   23  F   UNL     1       4.574  27.258  56.205  1.00  0.00    -0.169 F 
HETATM   24  F   UNL     1       6.245  27.497  57.575  1.00  0.00    -0.169 F 
HETATM   25  F   UNL     1       4.533  28.816  57.723  1.00  0.00    -0.169 F 
ENDBRANCH   8  22
BRANCH   1  26
HETATM   26  C   UNL     1       7.296  26.420  54.364  1.00  0.00    -0.035 A 
HETATM   27  C   UNL     1       6.660  25.513  53.504  1.00  0.00     0.012 A 
HETATM   28  C   UNL     1       6.641  24.141  53.782  1.00  0.00     0.037 A 
HETATM   29  C   UNL     1       7.242  23.650  54.938  1.00  0.00     0.068 A 
HETATM   30  C   UNL     1       7.843  24.544  55.822  1.00  0.00     0.037 A 
HETATM   31  C   UNL     1       7.880  25.912  55.536  1.00  0.00     0.012 A 
BRANCH  29  32
HETATM   32  O   UNL     1       7.293  22.337  55.317  1.00  0.00    -0.356 OA
HETATM   33  C   UNL     1       7.834  21.429  54.366  1.00  0.00     0.210 C 
ENDBRANCH  29  32
ENDBRANCH   1  26
TORSDOF 6
ENDMDL
MODEL 4
REMARK VINA RESULT:      -9.7      2.754      3.933
REMARK  6 active torsions:
REMARK  status: ('A' for Active; 'I' for Inactive)
REMARK    1  A    between atoms: O_2  and  C_3 
REMARK    2  A    between atoms: C_6  and  C_7 
REMARK    3  A    between atoms: C_12  and  C_13 
REMARK       I    between atoms: C_13  and  N_14 
REMARK    4  A    between atoms: N_14  and  C_15 
REMARK    5  A    between atoms: C_15  and  C_16 
REMARK    6  A    between atoms: C_24  and  C_25 
ROOT
HETATM    1  C   UNL     1       4.652  26.482  55.899  1.00  0.00     0.118 C 
HETATM    2  N   UNL     1       4.867  27.824  56.422  1.00  0.00    -0.366 N 
HETATM    3  C   UNL     1       5.971  28.157  57.119  1.00  0.00     0.123 A 
HETATM    4  N   UNL     1       6.899  27.225  57.495  1.00  0.00    -0.240 N 
HETATM    5  N   UNL     1       7.924  27.734  58.205  1.00  0.00    -0.165 NA
HETATM    6  C   UNL     1       7.655  29.060  58.246  1.00  0.00     0.148 A 
HETATM    7  C   UNL     1       6.431  29.357  57.588  1.00  0.00     0.088 A 
HETATM    8  C   UNL     1       6.798  25.808  57.209  1.00  0.00     0.221 C 
HETATM    9  C   UNL     1       5.370  25.432  56.765  1.00  0.00     0.066 C 
HETATM   10  H   UNL     1       4.271  28.547  56.016  1.00  0.00     0.161 HD
ENDROOT
BRANCH   6  11
HETATM   11  C   UNL     1       8.554  30.030  58.888  1.00  0.00     0.272 C 
HETATM   12  N   UNL     1       8.142  30.412  60.141  1.00  0.00    -0.351 N 
HETATM   13  H   UNL     1       7.272  30.008  60.476  1.00  0.00     0.163 HD
HETATM   14  O   UNL     1       9.582  30.431  58.352  1.00  0.00    -0.266 OA
BRANCH  12  15
HETATM   15  C   UNL     1       8.900  31.306  60.979  1.00  0.00     0.161 C 
BRANCH  15  16
HETATM   16  C   UNL     1       8.024  32.186  61.839  1.00  0.00    -0.041 A 
HETATM   17  C   UNL     1       8.242  32.320  63.219  1.00  0.00     0.009 A 
HETATM   18  C   UNL     1       7.449  33.176  63.986  1.00  0.00     0.001 A 
HETATM   19  C   UNL     1       6.442  33.924  63.381  1.00  0.00     0.000 A 
HETATM   20  C   UNL     1       6.227  33.817  62.009  1.00  0.00     0.001 A 
HETATM   21  C   UNL     1       7.015  32.957  61.242  1.00  0.00     0.009 A 
ENDBRANCH  15  16
ENDBRANCH  12  15
ENDBRANCH   6  11
BRANCH   8  22
HETATM   22  C   UNL     1       7.876  25.382  56.237  1.00  0.00     0.409 C 
HETATM   23  F   UNL     1       9.077  25.172  56.808  1.00  0.00    -0.169 F 
HETATM   24  F   UNL     1       7.542  24.250  55.575  1.00  0.00    -0.169 F 
HETATM   25  F   UNL     1       8.049  26.335  55.284  1.00  0.00    -0.169 F 
ENDBRANCH   8  22
BRANCH   1  26
HETATM   26  C   UNL     1       4.928  26.381  54.411  1.00  0.00    -0.035 A 
HETATM   27  C   UNL     1       5.017  25.159  53.728  1.00  0.00     0.012 A 
HETATM   28  C   UNL     1       5.249  25.113  52.347  1.00  0.00     0.037 A 
HETATM   29  C   UNL     1       5.417  26.292  51.625  1.00  0.00     0.068 A 
HETATM   30  C   UNL     1       5.372  27.512  52.297  1.00  0.00     0.037 A 
HETATM   31  C   UNL     1       5.121  27.559  53.671  1.00  0.00     0.012 A 
BRANCH  29  32
HETATM   32  O   UNL     1       5.645  26.378  50.279  1.00  0.00    -0.356 OA
HETATM   33  C   UNL     1       4.493  26.494  49.453  1.00  0.00     0.210 C 
ENDBRANCH  29  32
ENDBRANCH   1  26
TORSDOF 6
ENDMDL
MODEL 5
REMARK VINA RESULT:      -9.4      4.786      8.529
REMARK  6 active torsions:
REMARK  status: ('A' for Active; 'I' for Inactive)
REMARK    1  A    between atoms: O_2  and  C_3 
REMARK    2  A    between atoms: C_6  and  C_7 
REMARK    3  A    between atoms: C_12  and  C_13 
REMARK       I    between atoms: C_13  and  N_14 
REMARK    4  A    between atoms: N_14  and  C_15 
REMARK    5  A    between atoms: C_15  and  C_16 
REMARK    6  A    between atoms: C_24  and  C_25 
ROOT
HETATM    1  C   UNL     1       5.386  25.498  55.343  1.00  0.00     0.118 C 
HETATM    2  N   UNL     1       4.794  25.513  54.012  1.00  0.00    -0.366 N 
HETATM    3  C   UNL     1       5.066  26.480  53.113  1.00  0.00     0.123 A 
HETATM    4  N   UNL     1       5.810  27.580  53.437  1.00  0.00    -0.240 N 
HETATM    5  N   UNL     1       5.961  28.452  52.422  1.00  0.00    -0.165 NA
HETATM    6  C   UNL     1       5.314  27.856  51.393  1.00  0.00     0.148 A 
HETATM    7  C   UNL     1       4.729  26.626  51.796  1.00  0.00     0.088 A 
HETATM    8  C   UNL     1       6.367  27.836  54.751  1.00  0.00     0.221 C 
HETATM    9  C   UNL     1       5.720  26.925  55.814  1.00  0.00     0.066 C 
HETATM   10  H   UNL     1       4.376  24.630  53.716  1.00  0.00     0.161 HD
ENDROOT
BRANCH   6  11
HETATM   11  C   UNL     1       5.266  28.441  50.045  1.00  0.00     0.272 C 
HETATM   12  N   UNL     1       5.064  27.514  49.052  1.00  0.00    -0.351 N 
HETATM   13  H   UNL     1       4.988  26.544  49.346  1.00  0.00     0.163 HD
HETATM   14  O   UNL     1       5.374  29.647  49.845  1.00  0.00    -0.266 OA
BRANCH  12  15
HETATM   15  C   UNL     1       4.921  27.866  47.664  1.00  0.00     0.161 C 
BRANCH  15  16
HETATM   16  C   UNL     1       3.479  28.021  47.243  1.00  0.00    -0.041 A 
HETATM   17  C   UNL     1       2.616  26.917  47.147  1.00  0.00     0.009 A 
HETATM   18  C   UNL     1       1.274  27.090  46.803  1.00  0.00     0.001 A 
HETATM   19  C   UNL     1       0.772  28.368  46.569  1.00  0.00     0.000 A 
HETATM   20  C   UNL     1       1.611  29.474  46.680  1.00  0.00     0.001 A 
HETATM   21  C   UNL     1       2.955  29.302  47.018  1.00  0.00     0.009 A 
ENDBRANCH  15  16
ENDBRANCH  12  15
ENDBRANCH   6  11
BRANCH   8  22
HETATM   22  C   UNL     1       7.877  27.761  54.714  1.00  0.00     0.409 C 
HETATM   23  F   UNL     1       8.475  28.919  54.378  1.00  0.00    -0.169 F 
HETATM   24  F   UNL     1       8.393  27.373  55.905  1.00  0.00    -0.169 F 
HETATM   25  F   UNL     1       8.277  26.828  53.812  1.00  0.00    -0.169 F 
ENDBRANCH   8  22
BRANCH   1  26
HETATM   26  C   UNL     1       6.524  24.501  55.467  1.00  0.00    -0.035 A 
HETATM   27  C   UNL     1       7.274  24.336  56.640  1.00  0.00     0.012 A 
HETATM   28  C   UNL     1       8.300  23.385  56.719  1.00  0.00     0.037 A 
HETATM   29  C   UNL     1       8.608  22.594  55.616  1.00  0.00     0.068 A 
HETATM   30  C   UNL     1       7.899  22.775  54.430  1.00  0.00     0.037 A 
HETATM   31  C   UNL     1       6.862  23.710  54.357  1.00  0.00     0.012 A 
BRANCH  29  32
HETATM   32  O   UNL     1       9.581  21.634  55.568  1.00  0.00    -0.356 OA
HETATM   33  C   UNL     1       9.222  20.351  56.066  1.00  0.00     0.210 C 
ENDBRANCH  29  32
ENDBRANCH   1  26
TORSDOF 6
ENDMDL
MODEL 6
REMARK VINA RESULT:      -9.3      2.168      2.653
REMARK  6 active torsions:
REMARK  status: ('A' for Active; 'I' for Inactive)
REMARK    1  A    between atoms: O_2  and  C_3 
REMARK    2  A    between atoms: C_6  and  C_7 
REMARK    3  A    between atoms: C_12  and  C_13 
REMARK       I    between atoms: C_13  and  N_14 
REMARK    4  A    between atoms: N_14  and  C_15 
REMARK    5  A    between atoms: C_15  and  C_16 
REMARK    6  A    between atoms: C_24  and  C_25 
ROOT
HETATM    1  C   UNL     1       7.798  27.619  53.770  1.00  0.00     0.118 C 
HETATM    2  N   UNL     1       7.954  28.344  55.023  1.00  0.00    -0.366 N 
HETATM    3  C   UNL     1       6.930  28.993  55.613  1.00  0.00     0.123 A 
HETATM    4  N   UNL     1       5.711  29.123  55.007  1.00  0.00    -0.240 N 
HETATM    5  N   UNL     1       4.816  29.821  55.732  1.00  0.00    -0.165 NA
HETATM    6  C   UNL     1       5.487  30.112  56.871  1.00  0.00     0.148 A 
HETATM    7  C   UNL     1       6.819  29.621  56.823  1.00  0.00     0.088 A 
HETATM    8  C   UNL     1       5.391  28.607  53.691  1.00  0.00     0.221 C 
HETATM    9  C   UNL     1       6.670  28.227  52.918  1.00  0.00     0.066 C 
HETATM   10  H   UNL     1       8.800  28.121  55.550  1.00  0.00     0.161 HD
ENDROOT
BRANCH   6  11
HETATM   11  C   UNL     1       4.866  30.833  57.992  1.00  0.00     0.272 C 
HETATM   12  N   UNL     1       5.770  31.502  58.780  1.00  0.00    -0.351 N 
HETATM   13  H   UNL     1       6.749  31.416  58.521  1.00  0.00     0.163 HD
HETATM   14  O   UNL     1       3.654  30.844  58.178  1.00  0.00    -0.266 OA
BRANCH  12  15
HETATM   15  C   UNL     1       5.382  32.324  59.897  1.00  0.00     0.161 C 
BRANCH  15  16
HETATM   16  C   UNL     1       6.395  32.307  61.017  1.00  0.00    -0.041 A 
HETATM   17  C   UNL     1       7.600  31.595  60.911  1.00  0.00     0.009 A 
HETATM   18  C   UNL     1       8.544  31.633  61.940  1.00  0.00     0.001 A 
HETATM   19  C   UNL     1       8.303  32.398  63.079  1.00  0.00     0.000 A 
HETATM   20  C   UNL     1       7.121  33.126  63.190  1.00  0.00     0.001 A 
HETATM   21  C   UNL     1       6.174  33.084  62.164  1.00  0.00     0.009 A 
ENDBRANCH  15  16
ENDBRANCH  12  15
ENDBRANCH   6  11
BRANCH   8  22
HETATM   22  C   UNL     1       4.377  27.489  53.789  1.00  0.00     0.409 C 
HETATM   23  F   UNL     1       4.548  26.513  52.878  1.00  0.00    -0.169 F 
HETATM   24  F   UNL     1       4.385  26.905  55.011  1.00  0.00    -0.169 F 
HETATM   25  F   UNL     1       3.122  27.979  53.617  1.00  0.00    -0.169 F 
ENDBRANCH   8  22
BRANCH   1  26
HETATM   26  C   UNL     1       7.710  26.117  53.969  1.00  0.00    -0.035 A 
HETATM   27  C   UNL     1       7.429  25.523  55.208  1.00  0.00     0.012 A 
HETATM   28  C   UNL     1       7.332  24.132  55.342  1.00  0.00     0.037 A 
HETATM   29  C   UNL     1       7.535  23.306  54.239  1.00  0.00     0.068 A 
HETATM   30  C   UNL     1       7.856  23.880  53.010  1.00  0.00     0.037 A 
HETATM   31  C   UNL     1       7.933  25.269  52.872  1.00  0.00     0.012 A 
BRANCH  29  32
HETATM   32  O   UNL     1       7.465  21.940  54.241  1.00  0.00    -0.356 OA
HETATM   33  C   UNL     1       7.982  21.284  53.090  1.00  0.00     0.210 C 
ENDBRANCH  29  32
ENDBRANCH   1  26
TORSDOF 6
ENDMDL
MODEL 7
REMARK VINA RESULT:      -9.0      4.960      7.105
REMARK  6 active torsions:
REMARK  status: ('A' for Active; 'I' for Inactive)
REMARK    1  A    between atoms: O_2  and  C_3 
REMARK    2  A    between atoms: C_6  and  C_7 
REMARK    3  A    between atoms: C_12  and  C_13 
REMARK       I    between atoms: C_13  and  N_14 
REMARK    4  A    between atoms: N_14  and  C_15 
REMARK    5  A    between atoms: C_15  and  C_16 
REMARK    6  A    between atoms: C_24  and  C_25 
ROOT
HETATM    1  C   UNL     1       5.120  25.397  54.200  1.00  0.00     0.118 C 
HETATM    2  N   UNL     1       4.653  25.673  52.848  1.00  0.00    -0.366 N 
HETATM    3  C   UNL     1       5.024  26.777  52.169  1.00  0.00     0.123 A 
HETATM    4  N   UNL     1       5.757  27.773  52.752  1.00  0.00    -0.240 N 
HETATM    5  N   UNL     1       6.017  28.809  51.931  1.00  0.00    -0.165 NA
HETATM    6  C   UNL     1       5.456  28.432  50.758  1.00  0.00     0.148 A 
HETATM    7  C   UNL     1       4.813  27.171  50.876  1.00  0.00     0.088 A 
HETATM    8  C   UNL     1       6.195  27.767  54.134  1.00  0.00     0.221 C 
HETATM    9  C   UNL     1       5.436  26.702  54.951  1.00  0.00     0.066 C 
HETATM   10  H   UNL     1       4.247  24.874  52.360  1.00  0.00     0.161 HD
ENDROOT
BRANCH   6  11
HETATM   11  C   UNL     1       5.543  29.252  49.541  1.00  0.00     0.272 C 
HETATM   12  N   UNL     1       5.338  30.591  49.767  1.00  0.00    -0.351 N 
HETATM   13  H   UNL     1       5.137  30.864  50.724  1.00  0.00     0.163 HD
HETATM   14  O   UNL     1       5.798  28.773  48.440  1.00  0.00    -0.266 OA
BRANCH  12  15
HETATM   15  C   UNL     1       5.437  31.587  48.731  1.00  0.00     0.161 C 
BRANCH  15  16
HETATM   16  C   UNL     1       5.879  32.933  49.254  1.00  0.00    -0.041 A 
HETATM   17  C   UNL     1       5.595  33.346  50.565  1.00  0.00     0.009 A 
HETATM   18  C   UNL     1       6.055  34.575  51.042  1.00  0.00     0.001 A 
HETATM   19  C   UNL     1       6.822  35.399  50.221  1.00  0.00     0.000 A 
HETATM   20  C   UNL     1       7.129  34.994  48.924  1.00  0.00     0.001 A 
HETATM   21  C   UNL     1       6.665  33.768  48.445  1.00  0.00     0.009 A 
ENDBRANCH  15  16
ENDBRANCH  12  15
ENDBRANCH   6  11
BRANCH   8  22
HETATM   22  C   UNL     1       7.701  27.646  54.215  1.00  0.00     0.409 C 
HETATM   23  F   UNL     1       8.240  26.863  53.262  1.00  0.00    -0.169 F 
HETATM   24  F   UNL     1       8.309  28.854  54.135  1.00  0.00    -0.169 F 
HETATM   25  F   UNL     1       8.064  27.123  55.415  1.00  0.00    -0.169 F 
ENDBRANCH   8  22
BRANCH   1  26
HETATM   26  C   UNL     1       6.222  24.354  54.237  1.00  0.00    -0.035 A 
HETATM   27  C   UNL     1       6.835  23.929  55.424  1.00  0.00     0.012 A 
HETATM   28  C   UNL     1       7.832  22.945  55.415  1.00  0.00     0.037 A 
HETATM   29  C   UNL     1       8.250  22.380  54.212  1.00  0.00     0.068 A 
HETATM   30  C   UNL     1       7.678  22.823  53.020  1.00  0.00     0.037 A 
HETATM   31  C   UNL     1       6.669  23.791  53.031  1.00  0.00     0.012 A 
BRANCH  29  32
HETATM   32  O   UNL     1       9.207  21.414  54.073  1.00  0.00    -0.356 OA
HETATM   33  C   UNL     1       8.853  20.110  54.516  1.00  0.00     0.210 C 
ENDBRANCH  29  32
ENDBRANCH   1  26
TORSDOF 6
ENDMDL
MODEL 8
REMARK VINA RESULT:      -9.0      1.999      2.722
REMARK  6 active torsions:
REMARK  status: ('A' for Active; 'I' for Inactive)
REMARK    1  A    between atoms: O_2  and  C_3 
REMARK    2  A    between atoms: C_6  and  C_7 
REMARK    3  A    between atoms: C_12  and  C_13 
REMARK       I    between atoms: C_13  and  N_14 
REMARK    4  A    between atoms: N_14  and  C_15 
REMARK    5  A    between atoms: C_15  and  C_16 
REMARK    6  A    between atoms: C_24  and  C_25 
ROOT
HETATM    1  C   UNL     1       7.560  27.844  53.741  1.00  0.00     0.118 C 
HETATM    2  N   UNL     1       8.539  28.455  54.630  1.00  0.00    -0.366 N 
HETATM    3  C   UNL     1       8.194  29.017  55.805  1.00  0.00     0.123 A 
HETATM    4  N   UNL     1       6.887  29.168  56.179  1.00  0.00    -0.240 N 
HETATM    5  N   UNL     1       6.730  29.770  57.374  1.00  0.00    -0.165 NA
HETATM    6  C   UNL     1       8.000  29.974  57.796  1.00  0.00     0.148 A 
HETATM    7  C   UNL     1       8.942  29.527  56.831  1.00  0.00     0.088 A 
HETATM    8  C   UNL     1       5.752  28.766  55.372  1.00  0.00     0.221 C 
HETATM    9  C   UNL     1       6.176  28.496  53.914  1.00  0.00     0.066 C 
HETATM   10  H   UNL     1       9.510  28.208  54.437  1.00  0.00     0.161 HD
ENDROOT
BRANCH   6  11
HETATM   11  C   UNL     1       8.312  30.570  59.103  1.00  0.00     0.272 C 
HETATM   12  N   UNL     1       7.210  31.063  59.758  1.00  0.00    -0.351 N 
HETATM   13  H   UNL     1       6.320  30.980  59.274  1.00  0.00     0.163 HD
HETATM   14  O   UNL     1       9.450  30.596  59.561  1.00  0.00    -0.266 OA
BRANCH  12  15
HETATM   15  C   UNL     1       7.270  31.635  61.078  1.00  0.00     0.161 C 
BRANCH  15  16
HETATM   16  C   UNL     1       6.365  32.833  61.239  1.00  0.00    -0.041 A 
HETATM   17  C   UNL     1       6.562  33.776  62.260  1.00  0.00     0.009 A 
HETATM   18  C   UNL     1       5.742  34.901  62.360  1.00  0.00     0.001 A 
HETATM   19  C   UNL     1       4.726  35.110  61.430  1.00  0.00     0.000 A 
HETATM   20  C   UNL     1       4.531  34.194  60.399  1.00  0.00     0.001 A 
HETATM   21  C   UNL     1       5.347  33.065  60.301  1.00  0.00     0.009 A 
ENDBRANCH  15  16
ENDBRANCH  12  15
ENDBRANCH   6  11
BRANCH   8  22
HETATM   22  C   UNL     1       5.016  27.615  56.022  1.00  0.00     0.409 C 
HETATM   23  F   UNL     1       4.731  26.603  55.181  1.00  0.00    -0.169 F 
HETATM   24  F   UNL     1       5.712  27.093  57.060  1.00  0.00    -0.169 F 
HETATM   25  F   UNL     1       3.838  28.048  56.541  1.00  0.00    -0.169 F 
ENDBRANCH   8  22
BRANCH   1  26
HETATM   26  C   UNL     1       7.566  26.328  53.816  1.00  0.00    -0.035 A 
HETATM   27  C   UNL     1       7.687  25.620  55.021  1.00  0.00     0.012 A 
HETATM   28  C   UNL     1       7.663  24.220  55.046  1.00  0.00     0.037 A 
HETATM   29  C   UNL     1       7.537  23.499  53.861  1.00  0.00     0.068 A 
HETATM   30  C   UNL     1       7.457  24.188  52.652  1.00  0.00     0.037 A 
HETATM   31  C   UNL     1       7.461  25.586  52.628  1.00  0.00     0.012 A 
BRANCH  29  32
HETATM   32  O   UNL     1       7.498  22.136  53.756  1.00  0.00    -0.356 OA
HETATM   33  C   UNL     1       7.920  21.406  54.901  1.00  0.00     0.210 C 
ENDBRANCH  29  32
ENDBRANCH   1  26
TORSDOF 6
ENDMDL
MODEL 9
REMARK VINA RESULT:      -8.9      6.080     11.363
REMARK  6 active torsions:
REMARK  status: ('A' for Active; 'I' for Inactive)
REMARK    1  A    between atoms: O_2  and  C_3 
REMARK    2  A    between atoms: C_6  and  C_7 
REMARK    3  A    between atoms: C_12  and  C_13 
REMARK       I    between atoms: C_13  and  N_14 
REMARK    4  A    between atoms: N_14  and  C_15 
REMARK    5  A    between atoms: C_15  and  C_16 
REMARK    6  A    between atoms: C_24  and  C_25 
ROOT
HETATM    1  C   UNL     1       2.824  34.204  63.593  1.00  0.00     0.118 C 
HETATM    2  N   UNL     1       3.071  33.027  62.771  1.00  0.00    -0.366 N 
HETATM    3  C   UNL     1       3.699  33.099  61.580  1.00  0.00     0.123 A 
HETATM    4  N   UNL     1       4.027  34.296  61.006  1.00  0.00    -0.240 N 
HETATM    5  N   UNL     1       4.628  34.177  59.807  1.00  0.00    -0.165 NA
HETATM    6  C   UNL     1       4.723  32.839  59.631  1.00  0.00     0.148 A 
HETATM    7  C   UNL     1       4.137  32.134  60.716  1.00  0.00     0.088 A 
HETATM    8  C   UNL     1       3.733  35.592  61.587  1.00  0.00     0.221 C 
HETATM    9  C   UNL     1       2.698  35.468  62.724  1.00  0.00     0.066 C 
HETATM   10  H   UNL     1       2.976  32.134  63.255  1.00  0.00     0.161 HD
ENDROOT
BRANCH   6  11
HETATM   11  C   UNL     1       5.373  32.240  58.456  1.00  0.00     0.272 C 
HETATM   12  N   UNL     1       5.799  30.951  58.663  1.00  0.00    -0.351 N 
HETATM   13  H   UNL     1       5.640  30.564  59.589  1.00  0.00     0.163 HD
HETATM   14  O   UNL     1       5.494  32.840  57.392  1.00  0.00    -0.266 OA
BRANCH  12  15
HETATM   15  C   UNL     1       6.408  30.149  57.633  1.00  0.00     0.161 C 
BRANCH  15  16
HETATM   16  C   UNL     1       7.915  30.233  57.640  1.00  0.00    -0.041 A 
HETATM   17  C   UNL     1       8.698  29.521  56.717  1.00  0.00     0.009 A 
HETATM   18  C   UNL     1      10.088  29.650  56.711  1.00  0.00     0.001 A 
HETATM   19  C   UNL     1      10.713  30.508  57.614  1.00  0.00     0.000 A 
HETATM   20  C   UNL     1       9.949  31.236  58.522  1.00  0.00     0.001 A 
HETATM   21  C   UNL     1       8.558  31.103  58.532  1.00  0.00     0.009 A 
ENDBRANCH  15  16
ENDBRANCH  12  15
ENDBRANCH   6  11
BRANCH   8  22
HETATM   22  C   UNL     1       5.008  36.297  61.991  1.00  0.00     0.409 C 
HETATM   23  F   UNL     1       5.442  37.202  61.093  1.00  0.00    -0.169 F 
HETATM   24  F   UNL     1       4.878  36.938  63.177  1.00  0.00    -0.169 F 
HETATM   25  F   UNL     1       6.008  35.393  62.162  1.00  0.00    -0.169 F 
ENDBRANCH   8  22
BRANCH   1  26
HETATM   26  C   UNL     1       3.793  34.321  64.755  1.00  0.00    -0.035 A 
HETATM   27  C   UNL     1       5.042  33.684  64.779  1.00  0.00     0.012 A 
HETATM   28  C   UNL     1       5.916  33.839  65.862  1.00  0.00     0.037 A 
HETATM   29  C   UNL     1       5.549  34.622  66.953  1.00  0.00     0.068 A 
HETATM   30  C   UNL     1       4.294  35.229  66.962  1.00  0.00     0.037 A 
HETATM   31  C   UNL     1       3.429  35.090  65.873  1.00  0.00     0.012 A 
BRANCH  29  32
HETATM   32  O   UNL     1       6.313  34.853  68.064  1.00  0.00    -0.356 OA
HETATM   33  C   UNL     1       5.679  34.633  69.318  1.00  0.00     0.210 C 
ENDBRANCH  29  32
ENDBRANCH   1  26
TORSDOF 6
ENDMDL
MODEL 10
REMARK VINA RESULT:      -8.5      6.539      9.814
REMARK  6 active torsions:
REMARK  status: ('A' for Active; 'I' for Inactive)
REMARK    1  A    between atoms: O_2  and  C_3 
REMARK    2  A    between atoms: C_6  and  C_7 
REMARK    3  A    between atoms: C_12  and  C_13 
REMARK       I    between atoms: C_13  and  N_14 
REMARK    4  A    between atoms: N_14  and  C_15 
REMARK    5  A    between atoms: C_15  and  C_16 
REMARK    6  A    between atoms: C_24  and  C_25 
ROOT
HETATM    1  C   UNL     1       2.714  29.880  49.247  1.00  0.00     0.118 C 
HETATM    2  N   UNL     1       3.329  30.070  50.554  1.00  0.00    -0.366 N 
HETATM    3  C   UNL     1       4.102  29.128  51.130  1.00  0.00     0.123 A 
HETATM    4  N   UNL     1       4.252  27.882  50.587  1.00  0.00    -0.240 N 
HETATM    5  N   UNL     1       5.041  27.065  51.310  1.00  0.00    -0.165 NA
HETATM    6  C   UNL     1       5.445  27.844  52.341  1.00  0.00     0.148 A 
HETATM    7  C   UNL     1       4.863  29.138  52.267  1.00  0.00     0.088 A 
HETATM    8  C   UNL     1       3.603  27.436  49.369  1.00  0.00     0.221 C 
HETATM    9  C   UNL     1       2.457  28.388  48.971  1.00  0.00     0.066 C 
HETATM   10  H   UNL     1       3.354  31.036  50.883  1.00  0.00     0.161 HD
ENDROOT
BRANCH   6  11
HETATM   11  C   UNL     1       6.380  27.369  53.371  1.00  0.00     0.272 C 
HETATM   12  N   UNL     1       5.901  26.307  54.098  1.00  0.00    -0.351 N 
HETATM   13  H   UNL     1       4.967  25.981  53.863  1.00  0.00     0.163 HD
HETATM   14  O   UNL     1       7.487  27.869  53.537  1.00  0.00    -0.266 OA
BRANCH  12  15
HETATM   15  C   UNL     1       6.670  25.641  55.117  1.00  0.00     0.161 C 
BRANCH  15  16
HETATM   16  C   UNL     1       7.347  24.388  54.615  1.00  0.00    -0.041 A 
HETATM   17  C   UNL     1       7.019  23.817  53.375  1.00  0.00     0.009 A 
HETATM   18  C   UNL     1       7.692  22.686  52.910  1.00  0.00     0.001 A 
HETATM   19  C   UNL     1       8.715  22.121  53.669  1.00  0.00     0.000 A 
HETATM   20  C   UNL     1       9.066  22.688  54.892  1.00  0.00     0.001 A 
HETATM   21  C   UNL     1       8.389  23.816  55.360  1.00  0.00     0.009 A 
ENDBRANCH  15  16
ENDBRANCH  12  15
ENDBRANCH   6  11
BRANCH   8  22
HETATM   22  C   UNL     1       4.623  27.209  48.275  1.00  0.00     0.409 C 
HETATM   23  F   UNL     1       5.666  28.059  48.313  1.00  0.00    -0.169 F 
HETATM   24  F   UNL     1       5.126  25.952  48.306  1.00  0.00    -0.169 F 
HETATM   25  F   UNL     1       4.039  27.348  47.056  1.00  0.00    -0.169 F 
ENDBRANCH   8  22
BRANCH   1  26
HETATM   26  C   UNL     1       3.446  30.618  48.142  1.00  0.00    -0.035 A 
HETATM   27  C   UNL     1       3.130  30.474  46.783  1.00  0.00     0.012 A 
HETATM   28  C   UNL     1       3.817  31.195  45.798  1.00  0.00     0.037 A 
HETATM   29  C   UNL     1       4.847  32.061  46.152  1.00  0.00     0.068 A 
HETATM   30  C   UNL     1       5.200  32.184  47.495  1.00  0.00     0.037 A 
HETATM   31  C   UNL     1       4.503  31.480  48.481  1.00  0.00     0.012 A 
BRANCH  29  32
HETATM   32  O   UNL     1       5.587  32.819  45.286  1.00  0.00    -0.356 OA
HETATM   33  C   UNL     1       6.706  33.497  45.844  1.00  0.00     0.210 C 
ENDBRANCH  29  32
ENDBRANCH   1  26
TORSDOF 6
ENDMDL
