MODEL 1
REMARK VINA RESULT:      -8.4      0.000      0.000
REMARK  4 active torsions:
REMARK  status: ('A' for Active; 'I' for Inactive)
REMARK    1  A    between atoms: C_6  and  C_7 
REMARK       I    between atoms: C_7  and  N_8 
REMARK    2  A    between atoms: N_8  and  C_9 
REMARK    3  A    between atoms: C_10  and  O_11 
REMARK    4  A    between atoms: N_13  and  C_15 
ROOT
HETATM    1  C   UNL     1       7.864  25.426  57.031  1.00  0.00     0.252 C 
HETATM    2  N   UNL     1       7.254  26.568  56.549  1.00  0.00    -0.348 N 
HETATM    3  O   UNL     1       8.295  25.384  58.179  1.00  0.00    -0.268 OA
HETATM    4  H   UNL     1       7.062  26.653  55.557  1.00  0.00     0.163 HD
ENDROOT
BRANCH   2   5
HETATM    5  C   UNL     1       7.086  27.755  57.384  1.00  0.00     0.141 C 
HETATM    6  C   UNL     1       5.982  28.713  56.898  1.00  0.00     0.168 C 
HETATM    7  C   UNL     1       6.694  30.040  56.631  1.00  0.00     0.269 C 
HETATM    8  N   UNL     1       7.865  30.066  57.611  1.00  0.00    -0.063 N 
HETATM    9  H   UNL     1       8.584  30.685  57.216  1.00  0.00     0.280 HD
HETATM   10  C   UNL     1       8.352  28.628  57.520  1.00  0.00     0.263 C 
BRANCH   6  11
HETATM   11  O   UNL     1       5.019  28.892  57.943  1.00  0.00    -0.392 OA
HETATM   12  H   UNL     1       4.318  29.486  57.608  1.00  0.00     0.210 HD
ENDBRANCH   6  11
BRANCH   8  13
HETATM   13  C   UNL     1       7.551  30.551  59.026  1.00  0.00     0.180 C 
HETATM   14  C   UNL     1       8.867  30.799  59.771  1.00  0.00     0.039 C 
HETATM   15  C   UNL     1       6.760  31.858  58.981  1.00  0.00     0.039 C 
ENDBRANCH   8  13
ENDBRANCH   2   5
BRANCH   1  16
HETATM   16  C   UNL     1       7.997  24.259  56.114  1.00  0.00     0.035 A 
HETATM   17  C   UNL     1       8.340  22.983  56.563  1.00  0.00     0.041 A 
HETATM   18  C   UNL     1       8.471  21.926  55.651  1.00  0.00     0.042 A 
HETATM   19  C   UNL     1       8.258  22.113  54.275  1.00  0.00    -0.018 A 
HETATM   20 CL   UNL     1       8.931  20.394  56.311  1.00  0.00    -0.084 Cl
HETATM   21  C   UNL     1       8.430  20.985  53.290  1.00  0.00     0.052 C 
HETATM   22  C   UNL     1       7.953  23.415  53.838  1.00  0.00     0.042 A 
HETATM   23  C   UNL     1       7.817  24.472  54.745  1.00  0.00     0.041 A 
HETATM   24 CL   UNL     1       7.751  23.794  52.163  1.00  0.00    -0.084 Cl
ENDBRANCH   1  16
TORSDOF 4
ENDMDL
MODEL 2
REMARK VINA RESULT:      -8.3      0.595      2.056
REMARK  4 active torsions:
REMARK  status: ('A' for Active; 'I' for Inactive)
REMARK    1  A    between atoms: C_6  and  C_7 
REMARK       I    between atoms: C_7  and  N_8 
REMARK    2  A    between atoms: N_8  and  C_9 
REMARK    3  A    between atoms: C_10  and  O_11 
REMARK    4  A    between atoms: N_13  and  C_15 
ROOT
HETATM    1  C   UNL     1       7.592  25.813  56.951  1.00  0.00     0.252 C 
HETATM    2  N   UNL     1       7.070  27.028  56.552  1.00  0.00    -0.348 N 
HETATM    3  O   UNL     1       7.961  25.640  58.109  1.00  0.00    -0.268 OA
HETATM    4  H   UNL     1       6.935  27.215  55.565  1.00  0.00     0.163 HD
ENDROOT
BRANCH   2   5
HETATM    5  C   UNL     1       6.925  28.142  57.487  1.00  0.00     0.141 C 
HETATM    6  C   UNL     1       5.837  29.157  57.089  1.00  0.00     0.168 C 
HETATM    7  C   UNL     1       6.571  30.489  56.934  1.00  0.00     0.269 C 
HETATM    8  N   UNL     1       7.745  30.411  57.908  1.00  0.00    -0.063 N 
HETATM    9  H   UNL     1       8.473  31.049  57.565  1.00  0.00     0.280 HD
HETATM   10  C   UNL     1       8.207  28.979  57.692  1.00  0.00     0.263 C 
BRANCH   6  11
HETATM   11  O   UNL     1       4.879  29.261  58.149  1.00  0.00    -0.392 OA
HETATM   12  H   UNL     1       4.116  29.772  57.815  1.00  0.00     0.210 HD
ENDBRANCH   6  11
BRANCH   8  13
HETATM   13  C   UNL     1       7.443  30.778  59.361  1.00  0.00     0.180 C 
HETATM   14  C   UNL     1       8.763  30.889  60.131  1.00  0.00     0.039 C 
HETATM   15  C   UNL     1       6.719  32.123  59.434  1.00  0.00     0.039 C 
ENDBRANCH   8  13
ENDBRANCH   2   5
BRANCH   1  16
HETATM   16  C   UNL     1       7.707  24.729  55.936  1.00  0.00     0.035 A 
HETATM   17  C   UNL     1       7.740  24.982  54.564  1.00  0.00     0.041 A 
HETATM   18  C   UNL     1       7.829  23.920  53.652  1.00  0.00     0.042 A 
HETATM   19  C   UNL     1       7.890  22.585  54.085  1.00  0.00    -0.018 A 
HETATM   20 CL   UNL     1       7.830  24.345  51.975  1.00  0.00    -0.084 Cl
HETATM   21  C   UNL     1       7.952  21.441  53.105  1.00  0.00     0.052 C 
HETATM   22  C   UNL     1       7.814  22.349  55.470  1.00  0.00     0.042 A 
HETATM   23  C   UNL     1       7.731  23.406  56.383  1.00  0.00     0.041 A 
HETATM   24 CL   UNL     1       7.795  20.749  56.126  1.00  0.00    -0.084 Cl
ENDBRANCH   1  16
TORSDOF 4
ENDMDL
MODEL 3
REMARK VINA RESULT:      -8.2      4.765      6.135
REMARK  4 active torsions:
REMARK  status: ('A' for Active; 'I' for Inactive)
REMARK    1  A    between atoms: C_6  and  C_7 
REMARK       I    between atoms: C_7  and  N_8 
REMARK    2  A    between atoms: N_8  and  C_9 
REMARK    3  A    between atoms: C_10  and  O_11 
REMARK    4  A    between atoms: N_13  and  C_15 
ROOT
HETATM    1  C   UNL     1       7.494  25.258  52.640  1.00  0.00     0.252 C 
HETATM    2  N   UNL     1       6.191  25.573  52.306  1.00  0.00    -0.348 N 
HETATM    3  O   UNL     1       8.429  25.939  52.231  1.00  0.00    -0.268 OA
HETATM    4  H   UNL     1       5.449  24.911  52.499  1.00  0.00     0.163 HD
ENDROOT
BRANCH   2   5
HETATM    5  C   UNL     1       5.877  26.729  51.469  1.00  0.00     0.141 C 
HETATM    6  C   UNL     1       5.343  27.943  52.252  1.00  0.00     0.168 C 
HETATM    7  C   UNL     1       3.953  28.213  51.674  1.00  0.00     0.269 C 
HETATM    8  N   UNL     1       4.032  27.748  50.221  1.00  0.00    -0.063 N 
HETATM    9  H   UNL     1       3.077  27.516  49.920  1.00  0.00     0.280 HD
HETATM   10  C   UNL     1       4.825  26.460  50.371  1.00  0.00     0.263 C 
BRANCH   6  11
HETATM   11  O   UNL     1       6.189  29.073  52.005  1.00  0.00    -0.392 OA
HETATM   12  H   UNL     1       6.596  28.957  51.125  1.00  0.00     0.210 HD
ENDBRANCH   6  11
BRANCH   8  13
HETATM   13  C   UNL     1       4.611  28.749  49.222  1.00  0.00     0.180 C 
HETATM   14  C   UNL     1       5.126  27.988  47.995  1.00  0.00     0.039 C 
HETATM   15  C   UNL     1       3.536  29.738  48.769  1.00  0.00     0.039 C 
ENDBRANCH   8  13
ENDBRANCH   2   5
BRANCH   1  16
HETATM   16  C   UNL     1       7.729  24.061  53.497  1.00  0.00     0.035 A 
HETATM   17  C   UNL     1       7.892  24.146  54.881  1.00  0.00     0.041 A 
HETATM   18  C   UNL     1       8.132  22.988  55.635  1.00  0.00     0.042 A 
HETATM   19  C   UNL     1       8.211  21.721  55.030  1.00  0.00    -0.018 A 
HETATM   20 CL   UNL     1       8.349  23.210  57.336  1.00  0.00    -0.084 Cl
HETATM   21  C   UNL     1       8.501  20.481  55.835  1.00  0.00     0.052 C 
HETATM   22  C   UNL     1       8.085  21.664  53.630  1.00  0.00     0.042 A 
HETATM   23  C   UNL     1       7.841  22.816  52.875  1.00  0.00     0.041 A 
HETATM   24 CL   UNL     1       8.247  20.180  52.758  1.00  0.00    -0.084 Cl
ENDBRANCH   1  16
TORSDOF 4
ENDMDL
MODEL 4
REMARK VINA RESULT:      -8.0      4.512      5.928
REMARK  4 active torsions:
REMARK  status: ('A' for Active; 'I' for Inactive)
REMARK    1  A    between atoms: C_6  and  C_7 
REMARK       I    between atoms: C_7  and  N_8 
REMARK    2  A    between atoms: N_8  and  C_9 
REMARK    3  A    between atoms: C_10  and  O_11 
REMARK    4  A    between atoms: N_13  and  C_15 
ROOT
HETATM    1  C   UNL     1       7.663  25.036  52.687  1.00  0.00     0.252 C 
HETATM    2  N   UNL     1       6.418  25.623  52.804  1.00  0.00    -0.348 N 
HETATM    3  O   UNL     1       8.481  25.459  51.876  1.00  0.00    -0.268 OA
HETATM    4  H   UNL     1       5.695  25.161  53.344  1.00  0.00     0.163 HD
ENDROOT
BRANCH   2   5
HETATM    5  C   UNL     1       6.034  26.769  51.983  1.00  0.00     0.141 C 
HETATM    6  C   UNL     1       5.474  27.957  52.788  1.00  0.00     0.168 C 
HETATM    7  C   UNL     1       4.059  28.173  52.250  1.00  0.00     0.269 C 
HETATM    8  N   UNL     1       4.116  27.719  50.793  1.00  0.00    -0.063 N 
HETATM    9  H   UNL     1       3.163  27.451  50.516  1.00  0.00     0.280 HD
HETATM   10  C   UNL     1       4.964  26.463  50.913  1.00  0.00     0.263 C 
BRANCH   6  11
HETATM   11  O   UNL     1       6.267  29.121  52.525  1.00  0.00    -0.392 OA
HETATM   12  H   UNL     1       7.188  28.831  52.376  1.00  0.00     0.210 HD
ENDBRANCH   6  11
BRANCH   8  13
HETATM   13  C   UNL     1       4.627  28.748  49.784  1.00  0.00     0.180 C 
HETATM   14  C   UNL     1       4.956  28.034  48.468  1.00  0.00     0.039 C 
HETATM   15  C   UNL     1       3.559  29.808  49.512  1.00  0.00     0.039 C 
ENDBRANCH   8  13
ENDBRANCH   2   5
BRANCH   1  16
HETATM   16  C   UNL     1       7.976  23.870  53.560  1.00  0.00     0.035 A 
HETATM   17  C   UNL     1       8.133  22.576  53.062  1.00  0.00     0.041 A 
HETATM   18  C   UNL     1       8.407  21.512  53.934  1.00  0.00     0.042 A 
HETATM   19  C   UNL     1       8.533  21.713  55.319  1.00  0.00    -0.018 A 
HETATM   20 CL   UNL     1       8.552  19.946  53.214  1.00  0.00    -0.084 Cl
HETATM   21  C   UNL     1       8.794  20.566  56.261  1.00  0.00     0.052 C 
HETATM   22  C   UNL     1       8.330  23.017  55.806  1.00  0.00     0.042 A 
HETATM   23  C   UNL     1       8.062  24.082  54.938  1.00  0.00     0.041 A 
HETATM   24 CL   UNL     1       8.375  23.381  57.495  1.00  0.00    -0.084 Cl
ENDBRANCH   1  16
TORSDOF 4
ENDMDL
MODEL 5
REMARK VINA RESULT:      -7.7      3.279      4.547
REMARK  4 active torsions:
REMARK  status: ('A' for Active; 'I' for Inactive)
REMARK    1  A    between atoms: C_6  and  C_7 
REMARK       I    between atoms: C_7  and  N_8 
REMARK    2  A    between atoms: N_8  and  C_9 
REMARK    3  A    between atoms: C_10  and  O_11 
REMARK    4  A    between atoms: N_13  and  C_15 
ROOT
HETATM    1  C   UNL     1       7.092  25.277  53.542  1.00  0.00     0.252 C 
HETATM    2  N   UNL     1       6.269  26.008  54.376  1.00  0.00    -0.348 N 
HETATM    3  O   UNL     1       7.422  25.717  52.445  1.00  0.00    -0.268 OA
HETATM    4  H   UNL     1       5.863  25.566  55.193  1.00  0.00     0.163 HD
ENDROOT
BRANCH   2   5
HETATM    5  C   UNL     1       5.774  27.329  53.995  1.00  0.00     0.141 C 
HETATM    6  C   UNL     1       5.635  28.310  55.173  1.00  0.00     0.168 C 
HETATM    7  C   UNL     1       4.156  28.697  55.200  1.00  0.00     0.269 C 
HETATM    8  N   UNL     1       3.695  28.600  53.747  1.00  0.00    -0.063 N 
HETATM    9  H   UNL     1       2.680  28.437  53.756  1.00  0.00     0.280 HD
HETATM   10  C   UNL     1       4.392  27.322  53.306  1.00  0.00     0.263 C 
BRANCH   6  11
HETATM   11  O   UNL     1       6.427  29.476  54.913  1.00  0.00    -0.392 OA
HETATM   12  H   UNL     1       6.648  29.482  53.961  1.00  0.00     0.210 HD
ENDBRANCH   6  11
BRANCH   8  13
HETATM   13  C   UNL     1       3.969  29.819  52.868  1.00  0.00     0.180 C 
HETATM   14  C   UNL     1       3.188  29.676  51.557  1.00  0.00     0.039 C 
HETATM   15  C   UNL     1       3.516  31.099  53.571  1.00  0.00     0.039 C 
ENDBRANCH   8  13
ENDBRANCH   2   5
BRANCH   1  16
HETATM   16  C   UNL     1       7.552  23.937  54.005  1.00  0.00     0.035 A 
HETATM   17  C   UNL     1       7.721  22.857  53.138  1.00  0.00     0.041 A 
HETATM   18  C   UNL     1       8.138  21.613  53.633  1.00  0.00     0.042 A 
HETATM   19  C   UNL     1       8.398  21.417  55.001  1.00  0.00    -0.018 A 
HETATM   20 CL   UNL     1       8.285  20.335  52.476  1.00  0.00    -0.084 Cl
HETATM   21  C   UNL     1       8.814  20.072  55.539  1.00  0.00     0.052 C 
HETATM   22  C   UNL     1       8.181  22.507  55.863  1.00  0.00     0.042 A 
HETATM   23  C   UNL     1       7.771  23.752  55.372  1.00  0.00     0.041 A 
HETATM   24 CL   UNL     1       8.384  22.373  57.575  1.00  0.00    -0.084 Cl
ENDBRANCH   1  16
TORSDOF 4
ENDMDL
MODEL 6
REMARK VINA RESULT:      -7.6      3.306      4.325
REMARK  4 active torsions:
REMARK  status: ('A' for Active; 'I' for Inactive)
REMARK    1  A    between atoms: C_6  and  C_7 
REMARK       I    between atoms: C_7  and  N_8 
REMARK    2  A    between atoms: N_8  and  C_9 
REMARK    3  A    between atoms: C_10  and  O_11 
REMARK    4  A    between atoms: N_13  and  C_15 
ROOT
HETATM    1  C   UNL     1       7.213  25.228  53.785  1.00  0.00     0.252 C 
HETATM    2  N   UNL     1       6.138  25.874  54.363  1.00  0.00    -0.348 N 
HETATM    3  O   UNL     1       7.859  25.764  52.890  1.00  0.00    -0.268 OA
HETATM    4  H   UNL     1       5.511  25.359  54.970  1.00  0.00     0.163 HD
ENDROOT
BRANCH   2   5
HETATM    5  C   UNL     1       5.738  27.215  53.944  1.00  0.00     0.141 C 
HETATM    6  C   UNL     1       5.611  28.223  55.102  1.00  0.00     0.168 C 
HETATM    7  C   UNL     1       4.157  28.696  55.063  1.00  0.00     0.269 C 
HETATM    8  N   UNL     1       3.750  28.602  53.595  1.00  0.00    -0.063 N 
HETATM    9  H   UNL     1       2.727  28.500  53.565  1.00  0.00     0.280 HD
HETATM   10  C   UNL     1       4.386  27.279  53.200  1.00  0.00     0.263 C 
BRANCH   6  11
HETATM   11  O   UNL     1       6.480  29.335  54.857  1.00  0.00    -0.392 OA
HETATM   12  H   UNL     1       6.927  29.185  54.001  1.00  0.00     0.210 HD
ENDBRANCH   6  11
BRANCH   8  13
HETATM   13  C   UNL     1       4.130  29.789  52.710  1.00  0.00     0.180 C 
HETATM   14  C   UNL     1       3.552  29.571  51.308  1.00  0.00     0.039 C 
HETATM   15  C   UNL     1       3.557  31.087  53.280  1.00  0.00     0.039 C 
ENDBRANCH   8  13
ENDBRANCH   2   5
BRANCH   1  16
HETATM   16  C   UNL     1       7.555  23.861  54.270  1.00  0.00     0.035 A 
HETATM   17  C   UNL     1       7.756  23.568  55.619  1.00  0.00     0.041 A 
HETATM   18  C   UNL     1       8.097  22.266  56.016  1.00  0.00     0.042 A 
HETATM   19  C   UNL     1       8.241  21.228  55.079  1.00  0.00    -0.018 A 
HETATM   20 CL   UNL     1       8.354  22.021  57.709  1.00  0.00    -0.084 Cl
HETATM   21  C   UNL     1       8.639  19.837  55.501  1.00  0.00     0.052 C 
HETATM   22  C   UNL     1       8.075  21.554  53.721  1.00  0.00     0.042 A 
HETATM   23  C   UNL     1       7.730  22.850  53.322  1.00  0.00     0.041 A 
HETATM   24 CL   UNL     1       8.307  20.387  52.466  1.00  0.00    -0.084 Cl
ENDBRANCH   1  16
TORSDOF 4
ENDMDL
MODEL 7
REMARK VINA RESULT:      -7.6      5.918      7.323
REMARK  4 active torsions:
REMARK  status: ('A' for Active; 'I' for Inactive)
REMARK    1  A    between atoms: C_6  and  C_7 
REMARK       I    between atoms: C_7  and  N_8 
REMARK    2  A    between atoms: N_8  and  C_9 
REMARK    3  A    between atoms: C_10  and  O_11 
REMARK    4  A    between atoms: N_13  and  C_15 
ROOT
HETATM    1  C   UNL     1       5.454  26.033  52.347  1.00  0.00     0.252 C 
HETATM    2  N   UNL     1       5.600  26.045  50.974  1.00  0.00    -0.348 N 
HETATM    3  O   UNL     1       4.598  26.722  52.893  1.00  0.00    -0.268 OA
HETATM    4  H   UNL     1       6.414  25.614  50.552  1.00  0.00     0.163 HD
ENDROOT
BRANCH   2   5
HETATM    5  C   UNL     1       4.739  26.863  50.122  1.00  0.00     0.141 C 
HETATM    6  C   UNL     1       4.274  26.155  48.836  1.00  0.00     0.168 C 
HETATM    7  C   UNL     1       4.799  27.021  47.690  1.00  0.00     0.269 C 
HETATM    8  N   UNL     1       4.834  28.441  48.251  1.00  0.00    -0.063 N 
HETATM    9  H   UNL     1       5.535  28.967  47.714  1.00  0.00     0.280 HD
HETATM   10  C   UNL     1       5.376  28.188  49.649  1.00  0.00     0.263 C 
BRANCH   6  11
HETATM   11  O   UNL     1       2.842  26.135  48.800  1.00  0.00    -0.392 OA
HETATM   12  H   UNL     1       2.537  27.006  48.479  1.00  0.00     0.210 HD
ENDBRANCH   6  11
BRANCH   8  13
HETATM   13  C   UNL     1       3.520  29.220  48.201  1.00  0.00     0.180 C 
HETATM   14  C   UNL     1       3.524  30.275  49.313  1.00  0.00     0.039 C 
HETATM   15  C   UNL     1       3.369  29.928  46.855  1.00  0.00     0.039 C 
ENDBRANCH   8  13
ENDBRANCH   2   5
BRANCH   1  16
HETATM   16  C   UNL     1       6.373  25.172  53.144  1.00  0.00     0.035 A 
HETATM   17  C   UNL     1       6.763  23.898  52.727  1.00  0.00     0.041 A 
HETATM   18  C   UNL     1       7.614  23.124  53.529  1.00  0.00     0.042 A 
HETATM   19  C   UNL     1       8.099  23.600  54.759  1.00  0.00    -0.018 A 
HETATM   20 CL   UNL     1       8.009  21.549  52.931  1.00  0.00    -0.084 Cl
HETATM   21  C   UNL     1       8.987  22.755  55.636  1.00  0.00     0.052 C 
HETATM   22  C   UNL     1       7.660  24.869  55.180  1.00  0.00     0.042 A 
HETATM   23  C   UNL     1       6.815  25.647  54.381  1.00  0.00     0.041 A 
HETATM   24 CL   UNL     1       8.116  25.532  56.710  1.00  0.00    -0.084 Cl
ENDBRANCH   1  16
TORSDOF 4
ENDMDL
MODEL 8
REMARK VINA RESULT:      -7.6      4.067      4.945
REMARK  4 active torsions:
REMARK  status: ('A' for Active; 'I' for Inactive)
REMARK    1  A    between atoms: C_6  and  C_7 
REMARK       I    between atoms: C_7  and  N_8 
REMARK    2  A    between atoms: N_8  and  C_9 
REMARK    3  A    between atoms: C_10  and  O_11 
REMARK    4  A    between atoms: N_13  and  C_15 
ROOT
HETATM    1  C   UNL     1       5.836  24.883  53.272  1.00  0.00     0.252 C 
HETATM    2  N   UNL     1       5.898  26.153  53.810  1.00  0.00    -0.348 N 
HETATM    3  O   UNL     1       5.045  24.622  52.370  1.00  0.00    -0.268 OA
HETATM    4  H   UNL     1       6.423  26.311  54.662  1.00  0.00     0.163 HD
ENDROOT
BRANCH   2   5
HETATM    5  C   UNL     1       5.040  27.231  53.323  1.00  0.00     0.141 C 
HETATM    6  C   UNL     1       5.207  27.537  51.823  1.00  0.00     0.168 C 
HETATM    7  C   UNL     1       5.646  29.001  51.760  1.00  0.00     0.269 C 
HETATM    8  N   UNL     1       5.013  29.657  52.985  1.00  0.00    -0.063 N 
HETATM    9  H   UNL     1       5.581  30.480  53.222  1.00  0.00     0.280 HD
HETATM   10  C   UNL     1       5.241  28.584  54.039  1.00  0.00     0.263 C 
BRANCH   6  11
HETATM   11  O   UNL     1       3.942  27.390  51.167  1.00  0.00    -0.392 OA
HETATM   12  H   UNL     1       3.958  27.935  50.356  1.00  0.00     0.210 HD
ENDBRANCH   6  11
BRANCH   8  13
HETATM   13  C   UNL     1       3.562  30.114  52.835  1.00  0.00     0.180 C 
HETATM   14  C   UNL     1       3.201  31.024  54.013  1.00  0.00     0.039 C 
HETATM   15  C   UNL     1       3.381  30.899  51.535  1.00  0.00     0.039 C 
ENDBRANCH   8  13
ENDBRANCH   2   5
BRANCH   1  16
HETATM   16  C   UNL     1       6.745  23.840  53.825  1.00  0.00     0.035 A 
HETATM   17  C   UNL     1       7.150  22.725  53.089  1.00  0.00     0.041 A 
HETATM   18  C   UNL     1       7.991  21.764  53.669  1.00  0.00     0.042 A 
HETATM   19  C   UNL     1       8.450  21.893  54.991  1.00  0.00    -0.018 A 
HETATM   20 CL   UNL     1       8.404  20.407  52.679  1.00  0.00    -0.084 Cl
HETATM   21  C   UNL     1       9.328  20.844  55.625  1.00  0.00     0.052 C 
HETATM   22  C   UNL     1       7.998  23.002  55.728  1.00  0.00     0.042 A 
HETATM   23  C   UNL     1       7.163  23.966  55.152  1.00  0.00     0.041 A 
HETATM   24 CL   UNL     1       8.423  23.231  57.388  1.00  0.00    -0.084 Cl
ENDBRANCH   1  16
TORSDOF 4
ENDMDL
MODEL 9
REMARK VINA RESULT:      -7.4      4.171      4.988
REMARK  4 active torsions:
REMARK  status: ('A' for Active; 'I' for Inactive)
REMARK    1  A    between atoms: C_6  and  C_7 
REMARK       I    between atoms: C_7  and  N_8 
REMARK    2  A    between atoms: N_8  and  C_9 
REMARK    3  A    between atoms: C_10  and  O_11 
REMARK    4  A    between atoms: N_13  and  C_15 
ROOT
HETATM    1  C   UNL     1       5.711  24.985  53.306  1.00  0.00     0.252 C 
HETATM    2  N   UNL     1       5.863  26.310  53.664  1.00  0.00    -0.348 N 
HETATM    3  O   UNL     1       4.848  24.649  52.500  1.00  0.00    -0.268 OA
HETATM    4  H   UNL     1       6.452  26.552  54.452  1.00  0.00     0.163 HD
ENDROOT
BRANCH   2   5
HETATM    5  C   UNL     1       5.019  27.357  53.093  1.00  0.00     0.141 C 
HETATM    6  C   UNL     1       5.216  27.565  51.579  1.00  0.00     0.168 C 
HETATM    7  C   UNL     1       5.662  29.021  51.430  1.00  0.00     0.269 C 
HETATM    8  N   UNL     1       5.009  29.756  52.599  1.00  0.00    -0.063 N 
HETATM    9  H   UNL     1       5.576  30.591  52.793  1.00  0.00     0.280 HD
HETATM   10  C   UNL     1       5.212  28.753  53.723  1.00  0.00     0.263 C 
BRANCH   6  11
HETATM   11  O   UNL     1       3.962  27.381  50.910  1.00  0.00    -0.392 OA
HETATM   12  H   UNL     1       3.279  27.220  51.591  1.00  0.00     0.210 HD
ENDBRANCH   6  11
BRANCH   8  13
HETATM   13  C   UNL     1       3.564  30.207  52.391  1.00  0.00     0.180 C 
HETATM   14  C   UNL     1       3.192  31.212  53.487  1.00  0.00     0.039 C 
HETATM   15  C   UNL     1       3.404  30.885  51.031  1.00  0.00     0.039 C 
ENDBRANCH   8  13
ENDBRANCH   2   5
BRANCH   1  16
HETATM   16  C   UNL     1       6.612  23.978  53.935  1.00  0.00     0.035 A 
HETATM   17  C   UNL     1       7.105  24.116  55.233  1.00  0.00     0.041 A 
HETATM   18  C   UNL     1       7.967  23.147  55.767  1.00  0.00     0.042 A 
HETATM   19  C   UNL     1       8.353  22.019  55.023  1.00  0.00    -0.018 A 
HETATM   20 CL   UNL     1       8.543  23.432  57.373  1.00  0.00    -0.084 Cl
HETATM   21  C   UNL     1       9.305  20.993  55.584  1.00  0.00     0.052 C 
HETATM   22  C   UNL     1       7.878  21.920  53.703  1.00  0.00     0.042 A 
HETATM   23  C   UNL     1       7.014  22.883  53.168  1.00  0.00     0.041 A 
HETATM   24 CL   UNL     1       8.346  20.626  52.656  1.00  0.00    -0.084 Cl
ENDBRANCH   1  16
TORSDOF 4
ENDMDL
MODEL 10
REMARK VINA RESULT:      -7.3      4.399      8.138
REMARK  4 active torsions:
REMARK  status: ('A' for Active; 'I' for Inactive)
REMARK    1  A    between atoms: C_6  and  C_7 
REMARK       I    between atoms: C_7  and  N_8 
REMARK    2  A    between atoms: N_8  and  C_9 
REMARK    3  A    between atoms: C_10  and  O_11 
REMARK    4  A    between atoms: N_13  and  C_15 
ROOT
HETATM    1  C   UNL     1       7.598  29.487  57.045  1.00  0.00     0.252 C 
HETATM    2  N   UNL     1       6.479  28.733  56.748  1.00  0.00    -0.348 N 
HETATM    3  O   UNL     1       8.588  29.452  56.321  1.00  0.00    -0.268 OA
HETATM    4  H   UNL     1       5.743  28.634  57.437  1.00  0.00     0.163 HD
ENDROOT
BRANCH   2   5
HETATM    5  C   UNL     1       6.426  27.881  55.561  1.00  0.00     0.141 C 
HETATM    6  C   UNL     1       5.815  28.566  54.325  1.00  0.00     0.168 C 
HETATM    7  C   UNL     1       4.602  27.712  53.953  1.00  0.00     0.269 C 
HETATM    8  N   UNL     1       4.962  26.298  54.402  1.00  0.00    -0.063 N 
HETATM    9  H   UNL     1       4.081  25.793  54.564  1.00  0.00     0.280 HD
HETATM   10  C   UNL     1       5.620  26.577  55.744  1.00  0.00     0.263 C 
BRANCH   6  11
HETATM   11  O   UNL     1       6.765  28.537  53.252  1.00  0.00    -0.392 OA
HETATM   12  H   UNL     1       6.306  28.209  52.454  1.00  0.00     0.210 HD
ENDBRANCH   6  11
BRANCH   8  13
HETATM   13  C   UNL     1       5.805  25.473  53.430  1.00  0.00     0.180 C 
HETATM   14  C   UNL     1       6.528  24.369  54.208  1.00  0.00     0.039 C 
HETATM   15  C   UNL     1       4.916  24.823  52.369  1.00  0.00     0.039 C 
ENDBRANCH   8  13
ENDBRANCH   2   5
BRANCH   1  16
HETATM   16  C   UNL     1       7.572  30.329  58.275  1.00  0.00     0.035 A 
HETATM   17  C   UNL     1       8.450  30.133  59.341  1.00  0.00     0.041 A 
HETATM   18  C   UNL     1       8.366  30.944  60.483  1.00  0.00     0.042 A 
HETATM   19  C   UNL     1       7.409  31.968  60.586  1.00  0.00    -0.018 A 
HETATM   20 CL   UNL     1       9.482  30.595  61.757  1.00  0.00    -0.084 Cl
HETATM   21  C   UNL     1       7.296  32.818  61.826  1.00  0.00     0.052 C 
HETATM   22  C   UNL     1       6.507  32.122  59.518  1.00  0.00     0.042 A 
HETATM   23  C   UNL     1       6.591  31.318  58.375  1.00  0.00     0.041 A 
HETATM   24 CL   UNL     1       5.231  33.288  59.559  1.00  0.00    -0.084 Cl
ENDBRANCH   1  16
TORSDOF 4
ENDMDL
