MODEL 1
REMARK VINA RESULT:      -9.1      0.000      0.000
REMARK  7 active torsions:
REMARK  status: ('A' for Active; 'I' for Inactive)
REMARK    1  A    between atoms: N_3  and  C_4 
REMARK    2  A    between atoms: C_12  and  C_13 
REMARK       I    between atoms: C_13  and  N_14 
REMARK    3  A    between atoms: N_14  and  C_15 
REMARK    4  A    between atoms: C_15  and  C_16 
REMARK    5  A    between atoms: C_16  and  O_17 
REMARK    6  A    between atoms: C_16  and  C_18 
REMARK    7  A    between atoms: C_21  and  O_22 
ROOT
HETATM    1  C   UNL     1       7.214  28.517  55.268  1.00  0.00     0.255 C 
HETATM    2  N   UNL     1       6.056  27.809  55.033  1.00  0.00    -0.350 N 
HETATM    3  O   UNL     1       8.176  28.485  54.509  1.00  0.00    -0.268 OA
HETATM    4  H   UNL     1       5.228  28.108  55.532  1.00  0.00     0.163 HD
ENDROOT
BRANCH   2   5
HETATM    5  C   UNL     1       5.831  27.027  53.814  1.00  0.00     0.114 C 
HETATM    6  C   UNL     1       5.027  27.823  52.779  1.00  0.00     0.035 C 
BRANCH   5   7
HETATM    7  C   UNL     1       5.215  25.622  54.091  1.00  0.00     0.173 C 
BRANCH   7   8
HETATM    8  O   UNL     1       4.231  25.294  53.104  1.00  0.00    -0.389 OA
HETATM    9  H   UNL     1       3.478  24.907  53.584  1.00  0.00     0.210 HD
ENDBRANCH   7   8
BRANCH   7  10
HETATM   10  C   UNL     1       6.278  24.536  54.087  1.00  0.00    -0.028 A 
HETATM   11  C   UNL     1       6.706  23.972  52.876  1.00  0.00     0.012 A 
HETATM   12  C   UNL     1       7.675  22.966  52.864  1.00  0.00     0.037 A 
HETATM   13  C   UNL     1       8.250  22.522  54.055  1.00  0.00     0.068 A 
HETATM   14  C   UNL     1       7.814  23.054  55.267  1.00  0.00     0.037 A 
HETATM   15  C   UNL     1       6.835  24.053  55.281  1.00  0.00     0.012 A 
BRANCH  13  16
HETATM   16  O   UNL     1       9.205  21.551  53.920  1.00  0.00    -0.356 OA
HETATM   17  C   UNL     1       8.804  20.407  53.171  1.00  0.00     0.210 C 
ENDBRANCH  13  16
ENDBRANCH   7  10
ENDBRANCH   5   7
ENDBRANCH   2   5
BRANCH   1  18
HETATM   18  C   UNL     1       7.196  29.389  56.431  1.00  0.00     0.075 C 
HETATM   19  C   UNL     1       8.197  29.743  57.331  1.00  0.00     0.051 C 
HETATM   20  C   UNL     1       9.657  29.447  57.336  1.00  0.00     0.071 C 
HETATM   21  N   UNL     1       7.580  30.519  58.317  1.00  0.00    -0.220 N 
HETATM   22  N   UNL     1       6.297  30.824  57.969  1.00  0.00    -0.177 NA
HETATM   23  C   UNL     1       6.076  30.130  56.857  1.00  0.00     0.158 C 
BRANCH  21  24
HETATM   24  C   UNL     1       8.116  30.967  59.573  1.00  0.00     0.150 A 
HETATM   25  N   UNL     1       8.821  30.094  60.343  1.00  0.00    -0.241 NA
HETATM   26  C   UNL     1       9.275  30.541  61.535  1.00  0.00     0.119 A 
HETATM   27  C   UNL     1       9.066  31.825  62.009  1.00  0.00     0.019 A 
HETATM   28  C   UNL     1       8.347  32.708  61.214  1.00  0.00     0.005 A 
HETATM   29  C   UNL     1       7.862  32.278  59.981  1.00  0.00     0.052 A 
ENDBRANCH  21  24
ENDBRANCH   1  18
TORSDOF 7
ENDMDL
MODEL 2
REMARK VINA RESULT:      -8.8      3.721     10.028
REMARK  7 active torsions:
REMARK  status: ('A' for Active; 'I' for Inactive)
REMARK    1  A    between atoms: N_3  and  C_4 
REMARK    2  A    between atoms: C_12  and  C_13 
REMARK       I    between atoms: C_13  and  N_14 
REMARK    3  A    between atoms: N_14  and  C_15 
REMARK    4  A    between atoms: C_15  and  C_16 
REMARK    5  A    between atoms: C_16  and  O_17 
REMARK    6  A    between atoms: C_16  and  C_18 
REMARK    7  A    between atoms: C_21  and  O_22 
ROOT
HETATM    1  C   UNL     1       6.821  30.325  58.266  1.00  0.00     0.255 C 
HETATM    2  N   UNL     1       7.628  30.197  59.375  1.00  0.00    -0.350 N 
HETATM    3  O   UNL     1       6.373  31.403  57.892  1.00  0.00    -0.268 OA
HETATM    4  H   UNL     1       8.179  29.352  59.445  1.00  0.00     0.163 HD
ENDROOT
BRANCH   2   5
HETATM    5  C   UNL     1       8.099  31.344  60.156  1.00  0.00     0.114 C 
HETATM    6  C   UNL     1       9.261  32.059  59.457  1.00  0.00     0.035 C 
BRANCH   5   7
HETATM    7  C   UNL     1       8.428  30.984  61.637  1.00  0.00     0.173 C 
BRANCH   7   8
HETATM    8  O   UNL     1       9.792  31.292  61.944  1.00  0.00    -0.389 OA
HETATM    9  H   UNL     1      10.215  31.540  61.103  1.00  0.00     0.210 HD
ENDBRANCH   7   8
BRANCH   7  10
HETATM   10  C   UNL     1       7.537  31.742  62.607  1.00  0.00    -0.028 A 
HETATM   11  C   UNL     1       6.141  31.639  62.511  1.00  0.00     0.012 A 
HETATM   12  C   UNL     1       5.315  32.342  63.392  1.00  0.00     0.037 A 
HETATM   13  C   UNL     1       5.865  33.138  64.397  1.00  0.00     0.068 A 
HETATM   14  C   UNL     1       7.249  33.271  64.486  1.00  0.00     0.037 A 
HETATM   15  C   UNL     1       8.078  32.578  63.596  1.00  0.00     0.012 A 
BRANCH  13  16
HETATM   16  O   UNL     1       4.961  33.759  65.215  1.00  0.00    -0.356 OA
HETATM   17  C   UNL     1       5.489  34.239  66.448  1.00  0.00     0.210 C 
ENDBRANCH  13  16
ENDBRANCH   7  10
ENDBRANCH   5   7
ENDBRANCH   2   5
BRANCH   1  18
HETATM   18  C   UNL     1       6.606  29.108  57.498  1.00  0.00     0.075 C 
HETATM   19  C   UNL     1       7.503  28.228  56.900  1.00  0.00     0.051 C 
HETATM   20  C   UNL     1       8.990  28.162  56.949  1.00  0.00     0.071 C 
HETATM   21  N   UNL     1       6.730  27.300  56.197  1.00  0.00    -0.220 N 
HETATM   22  N   UNL     1       5.405  27.445  56.488  1.00  0.00    -0.177 NA
HETATM   23  C   UNL     1       5.345  28.535  57.246  1.00  0.00     0.158 C 
BRANCH  21  24
HETATM   24  C   UNL     1       7.159  26.306  55.251  1.00  0.00     0.150 A 
HETATM   25  N   UNL     1       7.377  26.670  53.959  1.00  0.00    -0.241 NA
HETATM   26  C   UNL     1       7.741  25.700  53.091  1.00  0.00     0.119 A 
HETATM   27  C   UNL     1       7.905  24.371  53.442  1.00  0.00     0.019 A 
HETATM   28  C   UNL     1       7.682  24.012  54.765  1.00  0.00     0.005 A 
HETATM   29  C   UNL     1       7.301  24.987  55.684  1.00  0.00     0.052 A 
ENDBRANCH  21  24
ENDBRANCH   1  18
TORSDOF 7
ENDMDL
MODEL 3
REMARK VINA RESULT:      -8.8      2.622      3.690
REMARK  7 active torsions:
REMARK  status: ('A' for Active; 'I' for Inactive)
REMARK    1  A    between atoms: N_3  and  C_4 
REMARK    2  A    between atoms: C_12  and  C_13 
REMARK       I    between atoms: C_13  and  N_14 
REMARK    3  A    between atoms: N_14  and  C_15 
REMARK    4  A    between atoms: C_15  and  C_16 
REMARK    5  A    between atoms: C_16  and  O_17 
REMARK    6  A    between atoms: C_16  and  C_18 
REMARK    7  A    between atoms: C_21  and  O_22 
ROOT
HETATM    1  C   UNL     1       8.211  29.976  58.834  1.00  0.00     0.255 C 
HETATM    2  N   UNL     1       7.294  29.157  58.214  1.00  0.00    -0.350 N 
HETATM    3  O   UNL     1       9.410  29.941  58.580  1.00  0.00    -0.268 OA
HETATM    4  H   UNL     1       6.324  29.440  58.259  1.00  0.00     0.163 HD
ENDROOT
BRANCH   2   5
HETATM    5  C   UNL     1       7.649  28.235  57.131  1.00  0.00     0.114 C 
HETATM    6  C   UNL     1       7.806  28.973  55.796  1.00  0.00     0.035 C 
BRANCH   5   7
HETATM    7  C   UNL     1       6.686  27.014  57.025  1.00  0.00     0.173 C 
BRANCH   7   8
HETATM    8  O   UNL     1       5.608  27.293  56.125  1.00  0.00    -0.389 OA
HETATM    9  H   UNL     1       5.846  28.111  55.655  1.00  0.00     0.210 HD
ENDBRANCH   7   8
BRANCH   7  10
HETATM   10  C   UNL     1       7.412  25.773  56.531  1.00  0.00    -0.028 A 
HETATM   11  C   UNL     1       7.102  25.226  55.277  1.00  0.00     0.012 A 
HETATM   12  C   UNL     1       7.758  24.078  54.822  1.00  0.00     0.037 A 
HETATM   13  C   UNL     1       8.747  23.473  55.596  1.00  0.00     0.068 A 
HETATM   14  C   UNL     1       9.044  23.990  56.856  1.00  0.00     0.037 A 
HETATM   15  C   UNL     1       8.380  25.130  57.319  1.00  0.00     0.012 A 
BRANCH  13  16
HETATM   16  O   UNL     1       9.336  22.371  55.039  1.00  0.00    -0.356 OA
HETATM   17  C   UNL     1       8.855  22.014  53.746  1.00  0.00     0.210 C 
ENDBRANCH  13  16
ENDBRANCH   7  10
ENDBRANCH   5   7
ENDBRANCH   2   5
BRANCH   1  18
HETATM   18  C   UNL     1       7.659  30.963  59.749  1.00  0.00     0.075 C 
HETATM   19  C   UNL     1       7.901  31.201  61.099  1.00  0.00     0.051 C 
HETATM   20  C   UNL     1       8.897  30.609  62.034  1.00  0.00     0.071 C 
HETATM   21  N   UNL     1       7.002  32.199  61.486  1.00  0.00    -0.220 N 
HETATM   22  N   UNL     1       6.356  32.723  60.406  1.00  0.00    -0.177 NA
HETATM   23  C   UNL     1       6.741  31.966  59.383  1.00  0.00     0.158 C 
BRANCH  21  24
HETATM   24  C   UNL     1       6.697  32.668  62.810  1.00  0.00     0.150 A 
HETATM   25  N   UNL     1       5.397  32.748  63.203  1.00  0.00    -0.241 NA
HETATM   26  C   UNL     1       5.149  33.231  64.441  1.00  0.00     0.119 A 
HETATM   27  C   UNL     1       6.134  33.641  65.322  1.00  0.00     0.019 A 
HETATM   28  C   UNL     1       7.458  33.553  64.911  1.00  0.00     0.005 A 
HETATM   29  C   UNL     1       7.748  33.063  63.640  1.00  0.00     0.052 A 
ENDBRANCH  21  24
ENDBRANCH   1  18
TORSDOF 7
ENDMDL
MODEL 4
REMARK VINA RESULT:      -8.4      5.236      8.045
REMARK  7 active torsions:
REMARK  status: ('A' for Active; 'I' for Inactive)
REMARK    1  A    between atoms: N_3  and  C_4 
REMARK    2  A    between atoms: C_12  and  C_13 
REMARK       I    between atoms: C_13  and  N_14 
REMARK    3  A    between atoms: N_14  and  C_15 
REMARK    4  A    between atoms: C_15  and  C_16 
REMARK    5  A    between atoms: C_16  and  O_17 
REMARK    6  A    between atoms: C_16  and  C_18 
REMARK    7  A    between atoms: C_21  and  O_22 
ROOT
HETATM    1  C   UNL     1       6.631  27.499  53.284  1.00  0.00     0.255 C 
HETATM    2  N   UNL     1       5.588  27.851  52.456  1.00  0.00    -0.350 N 
HETATM    3  O   UNL     1       7.151  28.287  54.067  1.00  0.00    -0.268 OA
HETATM    4  H   UNL     1       5.039  27.096  52.068  1.00  0.00     0.163 HD
ENDROOT
BRANCH   2   5
HETATM    5  C   UNL     1       4.944  29.166  52.498  1.00  0.00     0.114 C 
HETATM    6  C   UNL     1       3.546  29.086  53.123  1.00  0.00     0.035 C 
BRANCH   5   7
HETATM    7  C   UNL     1       4.935  29.889  51.116  1.00  0.00     0.173 C 
BRANCH   7   8
HETATM    8  O   UNL     1       6.215  30.467  50.837  1.00  0.00    -0.389 OA
HETATM    9  H   UNL     1       6.137  30.902  49.970  1.00  0.00     0.210 HD
ENDBRANCH   7   8
BRANCH   7  10
HETATM   10  C   UNL     1       4.586  28.932  49.988  1.00  0.00    -0.028 A 
HETATM   11  C   UNL     1       5.566  28.542  49.064  1.00  0.00     0.012 A 
HETATM   12  C   UNL     1       5.250  27.671  48.018  1.00  0.00     0.037 A 
HETATM   13  C   UNL     1       3.960  27.157  47.890  1.00  0.00     0.068 A 
HETATM   14  C   UNL     1       2.970  27.557  48.785  1.00  0.00     0.037 A 
HETATM   15  C   UNL     1       3.281  28.439  49.825  1.00  0.00     0.012 A 
BRANCH  13  16
HETATM   16  O   UNL     1       3.772  26.296  46.844  1.00  0.00    -0.356 OA
HETATM   17  C   UNL     1       2.563  25.544  46.886  1.00  0.00     0.210 C 
ENDBRANCH  13  16
ENDBRANCH   7  10
ENDBRANCH   5   7
ENDBRANCH   2   5
BRANCH   1  18
HETATM   18  C   UNL     1       7.024  26.099  53.246  1.00  0.00     0.075 C 
HETATM   19  C   UNL     1       6.830  25.065  54.157  1.00  0.00     0.051 C 
HETATM   20  C   UNL     1       6.045  25.010  55.421  1.00  0.00     0.071 C 
HETATM   21  N   UNL     1       7.523  23.962  53.649  1.00  0.00    -0.220 N 
HETATM   22  N   UNL     1       7.970  24.204  52.384  1.00  0.00    -0.177 NA
HETATM   23  C   UNL     1       7.684  25.484  52.165  1.00  0.00     0.158 C 
BRANCH  21  24
HETATM   24  C   UNL     1       7.812  22.710  54.292  1.00  0.00     0.150 A 
HETATM   25  N   UNL     1       8.078  22.694  55.626  1.00  0.00    -0.241 NA
HETATM   26  C   UNL     1       8.384  21.503  56.187  1.00  0.00     0.119 A 
HETATM   27  C   UNL     1       8.438  20.311  55.486  1.00  0.00     0.019 A 
HETATM   28  C   UNL     1       8.162  20.338  54.125  1.00  0.00     0.005 A 
HETATM   29  C   UNL     1       7.847  21.551  53.516  1.00  0.00     0.052 A 
ENDBRANCH  21  24
ENDBRANCH   1  18
TORSDOF 7
ENDMDL
MODEL 5
REMARK VINA RESULT:      -8.3      5.025      9.520
REMARK  7 active torsions:
REMARK  status: ('A' for Active; 'I' for Inactive)
REMARK    1  A    between atoms: N_3  and  C_4 
REMARK    2  A    between atoms: C_12  and  C_13 
REMARK       I    between atoms: C_13  and  N_14 
REMARK    3  A    between atoms: N_14  and  C_15 
REMARK    4  A    between atoms: C_15  and  C_16 
REMARK    5  A    between atoms: C_16  and  O_17 
REMARK    6  A    between atoms: C_16  and  C_18 
REMARK    7  A    between atoms: C_21  and  O_22 
ROOT
HETATM    1  C   UNL     1       4.839  26.572  50.685  1.00  0.00     0.255 C 
HETATM    2  N   UNL     1       5.333  27.581  51.482  1.00  0.00    -0.350 N 
HETATM    3  O   UNL     1       4.827  25.396  51.034  1.00  0.00    -0.268 OA
HETATM    4  H   UNL     1       5.046  28.524  51.255  1.00  0.00     0.163 HD
ENDROOT
BRANCH   2   5
HETATM    5  C   UNL     1       5.805  27.359  52.851  1.00  0.00     0.114 C 
HETATM    6  C   UNL     1       5.477  28.552  53.757  1.00  0.00     0.035 C 
BRANCH   5   7
HETATM    7  C   UNL     1       7.309  26.954  52.923  1.00  0.00     0.173 C 
BRANCH   7   8
HETATM    8  O   UNL     1       8.012  27.775  53.863  1.00  0.00    -0.389 OA
HETATM    9  H   UNL     1       8.316  27.182  54.572  1.00  0.00     0.210 HD
ENDBRANCH   7   8
BRANCH   7  10
HETATM   10  C   UNL     1       7.476  25.502  53.338  1.00  0.00    -0.028 A 
HETATM   11  C   UNL     1       7.765  24.522  52.376  1.00  0.00     0.012 A 
HETATM   12  C   UNL     1       7.910  23.182  52.748  1.00  0.00     0.037 A 
HETATM   13  C   UNL     1       7.792  22.802  54.085  1.00  0.00     0.068 A 
HETATM   14  C   UNL     1       7.478  23.761  55.047  1.00  0.00     0.037 A 
HETATM   15  C   UNL     1       7.320  25.100  54.674  1.00  0.00     0.012 A 
BRANCH  13  16
HETATM   16  O   UNL     1       7.977  21.469  54.334  1.00  0.00    -0.356 OA
HETATM   17  C   UNL     1       7.998  20.634  53.181  1.00  0.00     0.210 C 
ENDBRANCH  13  16
ENDBRANCH   7  10
ENDBRANCH   5   7
ENDBRANCH   2   5
BRANCH   1  18
HETATM   18  C   UNL     1       4.237  26.995  49.431  1.00  0.00     0.075 C 
HETATM   19  C   UNL     1       3.152  27.826  49.166  1.00  0.00     0.051 C 
HETATM   20  C   UNL     1       2.317  28.664  50.071  1.00  0.00     0.071 C 
HETATM   21  N   UNL     1       2.954  27.781  47.782  1.00  0.00    -0.220 N 
HETATM   22  N   UNL     1       3.975  27.124  47.162  1.00  0.00    -0.177 NA
HETATM   23  C   UNL     1       4.719  26.645  48.154  1.00  0.00     0.158 C 
BRANCH  21  24
HETATM   24  C   UNL     1       1.852  28.294  47.016  1.00  0.00     0.150 A 
HETATM   25  N   UNL     1       1.820  29.618  46.703  1.00  0.00    -0.241 NA
HETATM   26  C   UNL     1       0.748  30.070  46.015  1.00  0.00     0.119 A 
HETATM   27  C   UNL     1      -0.306  29.269  45.614  1.00  0.00     0.019 A 
HETATM   28  C   UNL     1      -0.262  27.919  45.936  1.00  0.00     0.005 A 
HETATM   29  C   UNL     1       0.827  27.421  46.648  1.00  0.00     0.052 A 
ENDBRANCH  21  24
ENDBRANCH   1  18
TORSDOF 7
ENDMDL
MODEL 6
REMARK VINA RESULT:      -8.2      6.338     12.198
REMARK  7 active torsions:
REMARK  status: ('A' for Active; 'I' for Inactive)
REMARK    1  A    between atoms: N_3  and  C_4 
REMARK    2  A    between atoms: C_12  and  C_13 
REMARK       I    between atoms: C_13  and  N_14 
REMARK    3  A    between atoms: N_14  and  C_15 
REMARK    4  A    between atoms: C_15  and  C_16 
REMARK    5  A    between atoms: C_16  and  O_17 
REMARK    6  A    between atoms: C_16  and  C_18 
REMARK    7  A    between atoms: C_21  and  O_22 
ROOT
HETATM    1  C   UNL     1       5.974  31.995  62.863  1.00  0.00     0.255 C 
HETATM    2  N   UNL     1       5.958  33.352  63.097  1.00  0.00    -0.350 N 
HETATM    3  O   UNL     1       5.093  31.242  63.264  1.00  0.00    -0.268 OA
HETATM    4  H   UNL     1       6.542  33.926  62.503  1.00  0.00     0.163 HD
ENDROOT
BRANCH   2   5
HETATM    5  C   UNL     1       4.846  34.035  63.765  1.00  0.00     0.114 C 
HETATM    6  C   UNL     1       3.779  34.484  62.759  1.00  0.00     0.035 C 
BRANCH   5   7
HETATM    7  C   UNL     1       5.309  35.196  64.696  1.00  0.00     0.173 C 
BRANCH   7   8
HETATM    8  O   UNL     1       4.418  36.312  64.599  1.00  0.00    -0.389 OA
HETATM    9  H   UNL     1       4.378  36.711  65.486  1.00  0.00     0.210 HD
ENDBRANCH   7   8
BRANCH   7  10
HETATM   10  C   UNL     1       5.367  34.755  66.150  1.00  0.00    -0.028 A 
HETATM   11  C   UNL     1       6.585  34.777  66.846  1.00  0.00     0.012 A 
HETATM   12  C   UNL     1       6.648  34.363  68.179  1.00  0.00     0.037 A 
HETATM   13  C   UNL     1       5.496  33.944  68.846  1.00  0.00     0.068 A 
HETATM   14  C   UNL     1       4.286  33.891  68.158  1.00  0.00     0.037 A 
HETATM   15  C   UNL     1       4.223  34.293  66.820  1.00  0.00     0.012 A 
BRANCH  13  16
HETATM   16  O   UNL     1       5.674  33.585  70.154  1.00  0.00    -0.356 OA
HETATM   17  C   UNL     1       6.056  34.644  71.028  1.00  0.00     0.210 C 
ENDBRANCH  13  16
ENDBRANCH   7  10
ENDBRANCH   5   7
ENDBRANCH   2   5
BRANCH   1  18
HETATM   18  C   UNL     1       7.057  31.512  62.022  1.00  0.00     0.075 C 
HETATM   19  C   UNL     1       7.226  31.528  60.640  1.00  0.00     0.051 C 
HETATM   20  C   UNL     1       6.413  32.157  59.562  1.00  0.00     0.071 C 
HETATM   21  N   UNL     1       8.404  30.821  60.382  1.00  0.00    -0.220 N 
HETATM   22  N   UNL     1       9.070  30.540  61.539  1.00  0.00    -0.177 NA
HETATM   23  C   UNL     1       8.249  30.938  62.505  1.00  0.00     0.158 C 
BRANCH  21  24
HETATM   24  C   UNL     1       8.925  30.373  59.120  1.00  0.00     0.150 A 
HETATM   25  N   UNL     1       8.384  29.272  58.531  1.00  0.00    -0.241 NA
HETATM   26  C   UNL     1       8.926  28.859  57.364  1.00  0.00     0.119 A 
HETATM   27  C   UNL     1       9.988  29.490  56.740  1.00  0.00     0.019 A 
HETATM   28  C   UNL     1      10.531  30.614  57.349  1.00  0.00     0.005 A 
HETATM   29  C   UNL     1       9.998  31.064  58.555  1.00  0.00     0.052 A 
ENDBRANCH  21  24
ENDBRANCH   1  18
TORSDOF 7
ENDMDL
MODEL 7
REMARK VINA RESULT:      -8.1      2.584      3.678
REMARK  7 active torsions:
REMARK  status: ('A' for Active; 'I' for Inactive)
REMARK    1  A    between atoms: N_3  and  C_4 
REMARK    2  A    between atoms: C_12  and  C_13 
REMARK       I    between atoms: C_13  and  N_14 
REMARK    3  A    between atoms: N_14  and  C_15 
REMARK    4  A    between atoms: C_15  and  C_16 
REMARK    5  A    between atoms: C_16  and  O_17 
REMARK    6  A    between atoms: C_16  and  C_18 
REMARK    7  A    between atoms: C_21  and  O_22 
ROOT
HETATM    1  C   UNL     1       6.727  28.877  56.688  1.00  0.00     0.255 C 
HETATM    2  N   UNL     1       6.611  27.698  57.390  1.00  0.00    -0.350 N 
HETATM    3  O   UNL     1       6.863  28.913  55.470  1.00  0.00    -0.268 OA
HETATM    4  H   UNL     1       6.218  27.756  58.320  1.00  0.00     0.163 HD
ENDROOT
BRANCH   2   5
HETATM    5  C   UNL     1       6.549  26.385  56.743  1.00  0.00     0.114 C 
HETATM    6  C   UNL     1       5.335  25.581  57.222  1.00  0.00     0.035 C 
BRANCH   5   7
HETATM    7  C   UNL     1       7.879  25.579  56.860  1.00  0.00     0.173 C 
BRANCH   7   8
HETATM    8  O   UNL     1       8.146  25.236  58.224  1.00  0.00    -0.389 OA
HETATM    9  H   UNL     1       8.776  25.899  58.557  1.00  0.00     0.210 HD
ENDBRANCH   7   8
BRANCH   7  10
HETATM   10  C   UNL     1       7.829  24.298  56.045  1.00  0.00    -0.028 A 
HETATM   11  C   UNL     1       7.501  24.341  54.682  1.00  0.00     0.012 A 
HETATM   12  C   UNL     1       7.441  23.165  53.928  1.00  0.00     0.037 A 
HETATM   13  C   UNL     1       7.732  21.933  54.514  1.00  0.00     0.068 A 
HETATM   14  C   UNL     1       8.032  21.873  55.873  1.00  0.00     0.037 A 
HETATM   15  C   UNL     1       8.079  23.047  56.632  1.00  0.00     0.012 A 
BRANCH  13  16
HETATM   16  O   UNL     1       7.666  20.854  53.675  1.00  0.00    -0.356 OA
HETATM   17  C   UNL     1       8.924  20.348  53.237  1.00  0.00     0.210 C 
ENDBRANCH  13  16
ENDBRANCH   7  10
ENDBRANCH   5   7
ENDBRANCH   2   5
BRANCH   1  18
HETATM   18  C   UNL     1       6.580  30.095  57.470  1.00  0.00     0.075 C 
HETATM   19  C   UNL     1       5.459  30.863  57.772  1.00  0.00     0.051 C 
HETATM   20  C   UNL     1       4.013  30.633  57.504  1.00  0.00     0.071 C 
HETATM   21  N   UNL     1       5.930  31.986  58.460  1.00  0.00    -0.220 N 
HETATM   22  N   UNL     1       7.252  31.854  58.767  1.00  0.00    -0.177 NA
HETATM   23  C   UNL     1       7.630  30.736  58.155  1.00  0.00     0.158 C 
BRANCH  21  24
HETATM   24  C   UNL     1       5.219  33.182  58.821  1.00  0.00     0.150 A 
HETATM   25  N   UNL     1       4.905  34.085  57.853  1.00  0.00    -0.241 NA
HETATM   26  C   UNL     1       4.271  35.215  58.237  1.00  0.00     0.119 A 
HETATM   27  C   UNL     1       3.924  35.499  59.546  1.00  0.00     0.019 A 
HETATM   28  C   UNL     1       4.247  34.569  60.526  1.00  0.00     0.005 A 
HETATM   29  C   UNL     1       4.905  33.395  60.164  1.00  0.00     0.052 A 
ENDBRANCH  21  24
ENDBRANCH   1  18
TORSDOF 7
ENDMDL
MODEL 8
REMARK VINA RESULT:      -8.1      4.536      8.667
REMARK  7 active torsions:
REMARK  status: ('A' for Active; 'I' for Inactive)
REMARK    1  A    between atoms: N_3  and  C_4 
REMARK    2  A    between atoms: C_12  and  C_13 
REMARK       I    between atoms: C_13  and  N_14 
REMARK    3  A    between atoms: N_14  and  C_15 
REMARK    4  A    between atoms: C_15  and  C_16 
REMARK    5  A    between atoms: C_16  and  O_17 
REMARK    6  A    between atoms: C_16  and  C_18 
REMARK    7  A    between atoms: C_21  and  O_22 
ROOT
HETATM    1  C   UNL     1       5.278  27.626  52.306  1.00  0.00     0.255 C 
HETATM    2  N   UNL     1       4.821  26.719  53.236  1.00  0.00    -0.350 N 
HETATM    3  O   UNL     1       6.180  28.423  52.544  1.00  0.00    -0.268 OA
HETATM    4  H   UNL     1       4.300  25.927  52.884  1.00  0.00     0.163 HD
ENDROOT
BRANCH   2   5
HETATM    5  C   UNL     1       5.427  26.558  54.561  1.00  0.00     0.114 C 
HETATM    6  C   UNL     1       5.056  27.720  55.490  1.00  0.00     0.035 C 
BRANCH   5   7
HETATM    7  C   UNL     1       6.965  26.309  54.506  1.00  0.00     0.173 C 
BRANCH   7   8
HETATM    8  O   UNL     1       7.612  26.868  55.655  1.00  0.00    -0.389 OA
HETATM    9  H   UNL     1       8.371  26.292  55.850  1.00  0.00     0.210 HD
ENDBRANCH   7   8
BRANCH   7  10
HETATM   10  C   UNL     1       7.288  24.825  54.449  1.00  0.00    -0.028 A 
HETATM   11  C   UNL     1       7.697  24.238  53.243  1.00  0.00     0.012 A 
HETATM   12  C   UNL     1       7.985  22.871  53.181  1.00  0.00     0.037 A 
HETATM   13  C   UNL     1       7.894  22.075  54.323  1.00  0.00     0.068 A 
HETATM   14  C   UNL     1       7.462  22.641  55.521  1.00  0.00     0.037 A 
HETATM   15  C   UNL     1       7.160  24.006  55.582  1.00  0.00     0.012 A 
BRANCH  13  16
HETATM   16  O   UNL     1       8.223  20.759  54.148  1.00  0.00    -0.356 OA
HETATM   17  C   UNL     1       8.381  20.348  52.793  1.00  0.00     0.210 C 
ENDBRANCH  13  16
ENDBRANCH   7  10
ENDBRANCH   5   7
ENDBRANCH   2   5
BRANCH   1  18
HETATM   18  C   UNL     1       4.691  27.522  50.980  1.00  0.00     0.075 C 
HETATM   19  C   UNL     1       3.808  28.354  50.297  1.00  0.00     0.051 C 
HETATM   20  C   UNL     1       3.263  29.696  50.643  1.00  0.00     0.071 C 
HETATM   21  N   UNL     1       3.495  27.696  49.104  1.00  0.00    -0.220 N 
HETATM   22  N   UNL     1       4.286  26.599  48.927  1.00  0.00    -0.177 NA
HETATM   23  C   UNL     1       4.977  26.496  50.058  1.00  0.00     0.158 C 
BRANCH  21  24
HETATM   24  C   UNL     1       2.483  28.023  48.137  1.00  0.00     0.150 A 
HETATM   25  N   UNL     1       2.586  29.182  47.434  1.00  0.00    -0.241 NA
HETATM   26  C   UNL     1       1.594  29.473  46.563  1.00  0.00     0.119 A 
HETATM   27  C   UNL     1       0.493  28.664  46.348  1.00  0.00     0.019 A 
HETATM   28  C   UNL     1       0.399  27.481  47.070  1.00  0.00     0.005 A 
HETATM   29  C   UNL     1       1.403  27.153  47.979  1.00  0.00     0.052 A 
ENDBRANCH  21  24
ENDBRANCH   1  18
TORSDOF 7
ENDMDL
MODEL 9
REMARK VINA RESULT:      -8.0      6.328     11.921
REMARK  7 active torsions:
REMARK  status: ('A' for Active; 'I' for Inactive)
REMARK    1  A    between atoms: N_3  and  C_4 
REMARK    2  A    between atoms: C_12  and  C_13 
REMARK       I    between atoms: C_13  and  N_14 
REMARK    3  A    between atoms: N_14  and  C_15 
REMARK    4  A    between atoms: C_15  and  C_16 
REMARK    5  A    between atoms: C_16  and  O_17 
REMARK    6  A    between atoms: C_16  and  C_18 
REMARK    7  A    between atoms: C_21  and  O_22 
ROOT
HETATM    1  C   UNL     1       5.258  32.508  62.377  1.00  0.00     0.255 C 
HETATM    2  N   UNL     1       4.664  33.749  62.314  1.00  0.00    -0.350 N 
HETATM    3  O   UNL     1       5.165  31.777  63.357  1.00  0.00    -0.268 OA
HETATM    4  H   UNL     1       4.541  34.151  61.394  1.00  0.00     0.163 HD
ENDROOT
BRANCH   2   5
HETATM    5  C   UNL     1       3.794  34.273  63.371  1.00  0.00     0.114 C 
HETATM    6  C   UNL     1       2.373  34.524  62.852  1.00  0.00     0.035 C 
BRANCH   5   7
HETATM    7  C   UNL     1       4.390  35.517  64.096  1.00  0.00     0.173 C 
BRANCH   7   8
HETATM    8  O   UNL     1       3.369  36.481  64.375  1.00  0.00    -0.389 OA
HETATM    9  H   UNL     1       3.194  36.428  65.331  1.00  0.00     0.210 HD
ENDBRANCH   7   8
BRANCH   7  10
HETATM   10  C   UNL     1       5.056  35.132  65.407  1.00  0.00    -0.028 A 
HETATM   11  C   UNL     1       4.521  35.573  66.627  1.00  0.00     0.012 A 
HETATM   12  C   UNL     1       5.134  35.233  67.835  1.00  0.00     0.037 A 
HETATM   13  C   UNL     1       6.274  34.429  67.850  1.00  0.00     0.068 A 
HETATM   14  C   UNL     1       6.832  34.007  66.644  1.00  0.00     0.037 A 
HETATM   15  C   UNL     1       6.227  34.358  65.433  1.00  0.00     0.012 A 
BRANCH  13  16
HETATM   16  O   UNL     1       6.774  34.140  69.091  1.00  0.00    -0.356 OA
HETATM   17  C   UNL     1       6.313  34.986  70.141  1.00  0.00     0.210 C 
ENDBRANCH  13  16
ENDBRANCH   7  10
ENDBRANCH   5   7
ENDBRANCH   2   5
BRANCH   1  18
HETATM   18  C   UNL     1       5.929  32.067  61.164  1.00  0.00     0.075 C 
HETATM   19  C   UNL     1       7.164  31.456  60.968  1.00  0.00     0.051 C 
HETATM   20  C   UNL     1       8.162  30.932  61.941  1.00  0.00     0.071 C 
HETATM   21  N   UNL     1       7.340  31.368  59.584  1.00  0.00    -0.220 N 
HETATM   22  N   UNL     1       6.200  31.714  58.921  1.00  0.00    -0.177 NA
HETATM   23  C   UNL     1       5.376  32.145  59.871  1.00  0.00     0.158 C 
BRANCH  21  24
HETATM   24  C   UNL     1       8.522  31.005  58.850  1.00  0.00     0.150 A 
HETATM   25  N   UNL     1       9.552  31.891  58.770  1.00  0.00    -0.241 NA
HETATM   26  C   UNL     1      10.629  31.530  58.039  1.00  0.00     0.119 A 
HETATM   27  C   UNL     1      10.743  30.320  57.377  1.00  0.00     0.019 A 
HETATM   28  C   UNL     1       9.687  29.422  57.468  1.00  0.00     0.005 A 
HETATM   29  C   UNL     1       8.560  29.765  58.211  1.00  0.00     0.052 A 
ENDBRANCH  21  24
ENDBRANCH   1  18
TORSDOF 7
ENDMDL
MODEL 10
REMARK VINA RESULT:      -7.8      3.983      7.814
REMARK  7 active torsions:
REMARK  status: ('A' for Active; 'I' for Inactive)
REMARK    1  A    between atoms: N_3  and  C_4 
REMARK    2  A    between atoms: C_12  and  C_13 
REMARK       I    between atoms: C_13  and  N_14 
REMARK    3  A    between atoms: N_14  and  C_15 
REMARK    4  A    between atoms: C_15  and  C_16 
REMARK    5  A    between atoms: C_16  and  O_17 
REMARK    6  A    between atoms: C_16  and  C_18 
REMARK    7  A    between atoms: C_21  and  O_22 
ROOT
HETATM    1  C   UNL     1       4.767  26.787  53.178  1.00  0.00     0.255 C 
HETATM    2  N   UNL     1       5.413  27.366  54.247  1.00  0.00    -0.350 N 
HETATM    3  O   UNL     1       4.575  25.578  53.094  1.00  0.00    -0.268 OA
HETATM    4  H   UNL     1       5.275  28.359  54.382  1.00  0.00     0.163 HD
ENDROOT
BRANCH   2   5
HETATM    5  C   UNL     1       5.850  26.608  55.423  1.00  0.00     0.114 C 
HETATM    6  C   UNL     1       5.490  27.335  56.724  1.00  0.00     0.035 C 
BRANCH   5   7
HETATM    7  C   UNL     1       7.355  26.202  55.367  1.00  0.00     0.173 C 
BRANCH   7   8
HETATM    8  O   UNL     1       7.936  26.219  56.675  1.00  0.00    -0.389 OA
HETATM    9  H   UNL     1       8.783  25.745  56.607  1.00  0.00     0.210 HD
ENDBRANCH   7   8
BRANCH   7  10
HETATM   10  C   UNL     1       7.535  24.811  54.781  1.00  0.00    -0.028 A 
HETATM   11  C   UNL     1       7.402  23.678  55.598  1.00  0.00     0.012 A 
HETATM   12  C   UNL     1       7.578  22.397  55.069  1.00  0.00     0.037 A 
HETATM   13  C   UNL     1       7.865  22.222  53.715  1.00  0.00     0.068 A 
HETATM   14  C   UNL     1       8.028  23.340  52.899  1.00  0.00     0.037 A 
HETATM   15  C   UNL     1       7.865  24.624  53.429  1.00  0.00     0.012 A 
BRANCH  13  16
HETATM   16  O   UNL     1       7.992  20.923  53.305  1.00  0.00    -0.356 OA
HETATM   17  C   UNL     1       8.725  20.078  54.187  1.00  0.00     0.210 C 
ENDBRANCH  13  16
ENDBRANCH   7  10
ENDBRANCH   5   7
ENDBRANCH   2   5
BRANCH   1  18
HETATM   18  C   UNL     1       4.233  27.709  52.188  1.00  0.00     0.075 C 
HETATM   19  C   UNL     1       4.317  27.716  50.799  1.00  0.00     0.051 C 
HETATM   20  C   UNL     1       4.876  26.716  49.847  1.00  0.00     0.071 C 
HETATM   21  N   UNL     1       3.715  28.905  50.377  1.00  0.00    -0.220 N 
HETATM   22  N   UNL     1       3.094  29.535  51.415  1.00  0.00    -0.177 NA
HETATM   23  C   UNL     1       3.427  28.824  52.488  1.00  0.00     0.158 C 
BRANCH  21  24
HETATM   24  C   UNL     1       3.713  29.495  49.066  1.00  0.00     0.150 A 
HETATM   25  N   UNL     1       2.768  29.110  48.167  1.00  0.00    -0.241 NA
HETATM   26  C   UNL     1       2.822  29.657  46.932  1.00  0.00     0.119 A 
HETATM   27  C   UNL     1       3.775  30.580  46.538  1.00  0.00     0.019 A 
HETATM   28  C   UNL     1       4.734  30.968  47.465  1.00  0.00     0.005 A 
HETATM   29  C   UNL     1       4.708  30.420  48.746  1.00  0.00     0.052 A 
ENDBRANCH  21  24
ENDBRANCH   1  18
TORSDOF 7
ENDMDL
