MODEL 1
REMARK VINA RESULT:     -10.2      0.000      0.000
REMARK  7 active torsions:
REMARK  status: ('A' for Active; 'I' for Inactive)
REMARK    1  A    between atoms: C_3  and  C_4 
REMARK    2  A    between atoms: C_4  and  N_5 
REMARK    3  A    between atoms: C_9  and  C_10 
REMARK    4  A    between atoms: C_9  and  C_28 
REMARK    5  A    between atoms: N_13  and  C_15 
REMARK    6  A    between atoms: C_15  and  C_16 
REMARK    7  A    between atoms: C_28  and  C_29 
ROOT
HETATM    1  C   UNL     1      10.888  29.669  57.023  1.00  0.00     0.112 C 
HETATM    2  C   UNL     1       9.521  29.333  56.620  1.00  0.00    -0.109 C 
HETATM    3  C   UNL     1       8.310  29.067  56.219  1.00  0.00    -0.087 C 
ENDROOT
BRANCH   3   4
HETATM    4  C   UNL     1       6.897  28.757  55.751  1.00  0.00     0.230 C 
BRANCH   4   5
HETATM    5  N   UNL     1       6.676  27.357  55.502  1.00  0.00    -0.257 N 
HETATM    6  C   UNL     1       6.111  26.508  56.398  1.00  0.00     0.327 C 
HETATM    7  O   UNL     1       5.614  26.778  57.475  1.00  0.00    -0.247 OA
HETATM    8  N   UNL     1       6.204  25.231  55.898  1.00  0.00    -0.324 N 
HETATM    9  C   UNL     1       6.971  25.150  54.666  1.00  0.00     0.123 C 
HETATM   10  H   UNL     1       5.926  24.440  56.471  1.00  0.00     0.165 HD
HETATM   11  C   UNL     1       7.282  26.653  54.508  1.00  0.00     0.257 C 
HETATM   12  O   UNL     1       7.970  27.129  53.616  1.00  0.00    -0.270 OA
BRANCH   9  13
HETATM   13  C   UNL     1       6.084  24.539  53.528  1.00  0.00     0.027 C 
HETATM   14  C   UNL     1       6.651  24.591  52.100  1.00  0.00     0.035 C 
HETATM   15  C   UNL     1       6.485  25.911  51.357  1.00  0.00     0.235 C 
HETATM   16  N   UNL     1       5.098  26.491  51.492  1.00  0.00    -0.067 N 
HETATM   17  H   UNL     1       4.499  25.962  50.846  1.00  0.00     0.280 HD
HETATM   18  C   UNL     1       4.468  26.415  52.854  1.00  0.00     0.235 C 
HETATM   19  C   UNL     1       4.627  25.038  53.468  1.00  0.00     0.035 C 
BRANCH  16  20
HETATM   20  C   UNL     1       5.060  27.942  51.020  1.00  0.00     0.273 C 
BRANCH  20  21
HETATM   21  C   UNL     1       3.876  28.278  50.161  1.00  0.00    -0.030 A 
HETATM   22  C   UNL     1       3.565  27.495  49.039  1.00  0.00     0.048 A 
HETATM   23  C   UNL     1       2.473  27.824  48.238  1.00  0.00     0.102 A 
HETATM   24  C   UNL     1       1.700  28.951  48.527  1.00  0.00     0.102 A 
HETATM   25  O   UNL     1       2.223  26.995  47.177  1.00  0.00    -0.346 OA
HETATM   26  O   UNL     1       0.635  29.349  47.765  1.00  0.00    -0.346 OA
HETATM   27  C   UNL     1       1.992  29.727  49.646  1.00  0.00     0.040 A 
HETATM   28  C   UNL     1       0.615  28.684  46.496  1.00  0.00     0.202 C 
HETATM   29  C   UNL     1       0.901  27.200  46.659  1.00  0.00     0.202 C 
HETATM   30  C   UNL     1       3.076  29.393  50.460  1.00  0.00     0.012 A 
ENDBRANCH  20  21
ENDBRANCH  16  20
ENDBRANCH   9  13
BRANCH   9  31
HETATM   31  C   UNL     1       8.341  24.456  54.894  1.00  0.00     0.080 C 
BRANCH  31  32
HETATM   32  C   UNL     1       8.313  22.947  54.941  1.00  0.00    -0.052 A 
HETATM   33  C   UNL     1       8.611  22.184  53.805  1.00  0.00     0.049 A 
HETATM   34  C   UNL     1       8.592  20.794  53.874  1.00  0.00     0.116 A 
HETATM   35  F   UNL     1       8.872  20.081  52.775  1.00  0.00    -0.206 F 
HETATM   36  C   UNL     1       8.288  20.137  55.059  1.00  0.00     0.042 A 
HETATM   37  C   UNL     1       8.001  20.884  56.198  1.00  0.00     0.003 A 
HETATM   38  C   UNL     1       8.013  22.281  56.140  1.00  0.00     0.007 A 
ENDBRANCH  31  32
ENDBRANCH   9  31
ENDBRANCH   4   5
ENDBRANCH   3   4
TORSDOF 7
ENDMDL
MODEL 2
REMARK VINA RESULT:      -9.8      1.497      2.140
REMARK  7 active torsions:
REMARK  status: ('A' for Active; 'I' for Inactive)
REMARK    1  A    between atoms: C_3  and  C_4 
REMARK    2  A    between atoms: C_4  and  N_5 
REMARK    3  A    between atoms: C_9  and  C_10 
REMARK    4  A    between atoms: C_9  and  C_28 
REMARK    5  A    between atoms: N_13  and  C_15 
REMARK    6  A    between atoms: C_15  and  C_16 
REMARK    7  A    between atoms: C_28  and  C_29 
ROOT
HETATM    1  C   UNL     1       6.128  31.202  58.343  1.00  0.00     0.112 C 
HETATM    2  C   UNL     1       6.977  30.135  57.810  1.00  0.00    -0.109 C 
HETATM    3  C   UNL     1       7.745  29.216  57.294  1.00  0.00    -0.087 C 
ENDROOT
BRANCH   3   4
HETATM    4  C   UNL     1       8.640  28.146  56.692  1.00  0.00     0.230 C 
BRANCH   4   5
HETATM    5  N   UNL     1       7.915  26.986  56.243  1.00  0.00    -0.257 N 
HETATM    6  C   UNL     1       7.746  25.864  56.989  1.00  0.00     0.327 C 
HETATM    7  O   UNL     1       8.061  25.681  58.149  1.00  0.00    -0.247 OA
HETATM    8  N   UNL     1       7.154  24.908  56.197  1.00  0.00    -0.324 N 
HETATM    9  C   UNL     1       7.011  25.317  54.810  1.00  0.00     0.123 C 
HETATM   10  H   UNL     1       7.035  23.962  56.547  1.00  0.00     0.165 HD
HETATM   11  C   UNL     1       7.603  26.736  54.943  1.00  0.00     0.257 C 
HETATM   12  O   UNL     1       7.759  27.513  54.012  1.00  0.00    -0.270 OA
BRANCH   9  13
HETATM   13  C   UNL     1       5.502  25.270  54.394  1.00  0.00     0.027 C 
HETATM   14  C   UNL     1       5.176  24.658  53.022  1.00  0.00     0.035 C 
HETATM   15  C   UNL     1       5.356  25.573  51.817  1.00  0.00     0.235 C 
HETATM   16  N   UNL     1       4.777  26.950  52.033  1.00  0.00    -0.067 N 
HETATM   17  H   UNL     1       3.760  26.858  51.909  1.00  0.00     0.280 HD
HETATM   18  C   UNL     1       5.012  27.575  53.379  1.00  0.00     0.235 C 
HETATM   19  C   UNL     1       4.731  26.600  54.505  1.00  0.00     0.035 C 
BRANCH  16  20
HETATM   20  C   UNL     1       5.251  27.922  50.956  1.00  0.00     0.273 C 
BRANCH  20  21
HETATM   21  C   UNL     1       4.320  28.047  49.785  1.00  0.00    -0.030 A 
HETATM   22  C   UNL     1       3.171  28.845  49.872  1.00  0.00     0.048 A 
HETATM   23  C   UNL     1       2.304  28.943  48.785  1.00  0.00     0.102 A 
HETATM   24  C   UNL     1       2.558  28.225  47.614  1.00  0.00     0.102 A 
HETATM   25  O   UNL     1       1.217  29.762  48.942  1.00  0.00    -0.346 OA
HETATM   26  O   UNL     1       1.733  28.250  46.522  1.00  0.00    -0.346 OA
HETATM   27  C   UNL     1       3.703  27.440  47.513  1.00  0.00     0.040 A 
HETATM   28  C   UNL     1       0.456  28.819  46.836  1.00  0.00     0.202 C 
HETATM   29  C   UNL     1       0.617  30.075  47.678  1.00  0.00     0.202 C 
HETATM   30  C   UNL     1       4.582  27.351  48.594  1.00  0.00     0.012 A 
ENDBRANCH  20  21
ENDBRANCH  16  20
ENDBRANCH   9  13
BRANCH   9  31
HETATM   31  C   UNL     1       7.986  24.539  53.885  1.00  0.00     0.080 C 
BRANCH  31  32
HETATM   32  C   UNL     1       8.096  23.056  54.148  1.00  0.00    -0.052 A 
HETATM   33  C   UNL     1       8.522  22.573  55.390  1.00  0.00     0.049 A 
HETATM   34  C   UNL     1       8.605  21.201  55.616  1.00  0.00     0.116 A 
HETATM   35  F   UNL     1       9.022  20.759  56.810  1.00  0.00    -0.206 F 
HETATM   36  C   UNL     1       8.262  20.289  54.627  1.00  0.00     0.042 A 
HETATM   37  C   UNL     1       7.825  20.756  53.390  1.00  0.00     0.003 A 
HETATM   38  C   UNL     1       7.743  22.131  53.151  1.00  0.00     0.007 A 
ENDBRANCH  31  32
ENDBRANCH   9  31
ENDBRANCH   4   5
ENDBRANCH   3   4
TORSDOF 7
ENDMDL
MODEL 3
REMARK VINA RESULT:      -9.5      3.192      9.391
REMARK  7 active torsions:
REMARK  status: ('A' for Active; 'I' for Inactive)
REMARK    1  A    between atoms: C_3  and  C_4 
REMARK    2  A    between atoms: C_4  and  N_5 
REMARK    3  A    between atoms: C_9  and  C_10 
REMARK    4  A    between atoms: C_9  and  C_28 
REMARK    5  A    between atoms: N_13  and  C_15 
REMARK    6  A    between atoms: C_15  and  C_16 
REMARK    7  A    between atoms: C_28  and  C_29 
ROOT
HETATM    1  C   UNL     1       8.099  21.508  54.882  1.00  0.00     0.112 C 
HETATM    2  C   UNL     1       7.876  22.615  53.950  1.00  0.00    -0.109 C 
HETATM    3  C   UNL     1       7.651  23.628  53.161  1.00  0.00    -0.087 C 
ENDROOT
BRANCH   3   4
HETATM    4  C   UNL     1       7.389  24.809  52.240  1.00  0.00     0.230 C 
BRANCH   4   5
HETATM    5  N   UNL     1       6.270  25.613  52.654  1.00  0.00    -0.257 N 
HETATM    6  C   UNL     1       4.977  25.318  52.364  1.00  0.00     0.327 C 
HETATM    7  O   UNL     1       4.539  24.319  51.827  1.00  0.00    -0.247 OA
HETATM    8  N   UNL     1       4.195  26.375  52.767  1.00  0.00    -0.324 N 
HETATM    9  C   UNL     1       4.964  27.512  53.244  1.00  0.00     0.123 C 
HETATM   10  H   UNL     1       3.204  26.386  52.544  1.00  0.00     0.165 HD
HETATM   11  C   UNL     1       6.372  26.901  53.083  1.00  0.00     0.257 C 
HETATM   12  O   UNL     1       7.416  27.493  53.313  1.00  0.00    -0.270 OA
BRANCH   9  13
HETATM   13  C   UNL     1       4.558  27.848  54.719  1.00  0.00     0.027 C 
HETATM   14  C   UNL     1       4.910  29.252  55.236  1.00  0.00     0.035 C 
HETATM   15  C   UNL     1       6.343  29.455  55.711  1.00  0.00     0.235 C 
HETATM   16  N   UNL     1       6.836  28.332  56.590  1.00  0.00    -0.067 N 
HETATM   17  H   UNL     1       6.423  28.490  57.518  1.00  0.00     0.280 HD
HETATM   18  C   UNL     1       6.470  26.936  56.167  1.00  0.00     0.235 C 
HETATM   19  C   UNL     1       5.006  26.833  55.789  1.00  0.00     0.035 C 
BRANCH  16  20
HETATM   20  C   UNL     1       8.349  28.401  56.778  1.00  0.00     0.273 C 
BRANCH  20  21
HETATM   21  C   UNL     1       8.801  29.454  57.747  1.00  0.00    -0.030 A 
HETATM   22  C   UNL     1       8.081  29.693  58.926  1.00  0.00     0.048 A 
HETATM   23  C   UNL     1       8.500  30.683  59.813  1.00  0.00     0.102 A 
HETATM   24  C   UNL     1       9.621  31.463  59.521  1.00  0.00     0.102 A 
HETATM   25  O   UNL     1       7.755  30.837  60.952  1.00  0.00    -0.346 OA
HETATM   26  O   UNL     1      10.069  32.471  60.331  1.00  0.00    -0.346 OA
HETATM   27  C   UNL     1      10.351  31.224  58.360  1.00  0.00     0.040 A 
HETATM   28  C   UNL     1       9.090  32.835  61.313  1.00  0.00     0.202 C 
HETATM   29  C   UNL     1       8.467  31.597  61.939  1.00  0.00     0.202 C 
HETATM   30  C   UNL     1       9.944  30.224  57.475  1.00  0.00     0.012 A 
ENDBRANCH  20  21
ENDBRANCH  16  20
ENDBRANCH   9  13
BRANCH   9  31
HETATM   31  C   UNL     1       4.903  28.699  52.244  1.00  0.00     0.080 C 
BRANCH  31  32
HETATM   32  C   UNL     1       3.859  28.589  51.158  1.00  0.00    -0.052 A 
HETATM   33  C   UNL     1       4.136  27.928  49.956  1.00  0.00     0.049 A 
HETATM   34  C   UNL     1       3.155  27.826  48.973  1.00  0.00     0.116 A 
HETATM   35  F   UNL     1       3.442  27.196  47.826  1.00  0.00    -0.206 F 
HETATM   36  C   UNL     1       1.890  28.366  49.162  1.00  0.00     0.042 A 
HETATM   37  C   UNL     1       1.598  29.016  50.358  1.00  0.00     0.003 A 
HETATM   38  C   UNL     1       2.576  29.128  51.351  1.00  0.00     0.007 A 
ENDBRANCH  31  32
ENDBRANCH   9  31
ENDBRANCH   4   5
ENDBRANCH   3   4
TORSDOF 7
ENDMDL
MODEL 4
REMARK VINA RESULT:      -9.5      3.856      8.739
REMARK  7 active torsions:
REMARK  status: ('A' for Active; 'I' for Inactive)
REMARK    1  A    between atoms: C_3  and  C_4 
REMARK    2  A    between atoms: C_4  and  N_5 
REMARK    3  A    between atoms: C_9  and  C_10 
REMARK    4  A    between atoms: C_9  and  C_28 
REMARK    5  A    between atoms: N_13  and  C_15 
REMARK    6  A    between atoms: C_15  and  C_16 
REMARK    7  A    between atoms: C_28  and  C_29 
ROOT
HETATM    1  C   UNL     1       4.138  32.819  55.126  1.00  0.00     0.112 C 
HETATM    2  C   UNL     1       3.937  31.467  54.600  1.00  0.00    -0.109 C 
HETATM    3  C   UNL     1       3.777  30.244  54.178  1.00  0.00    -0.087 C 
ENDROOT
BRANCH   3   4
HETATM    4  C   UNL     1       3.591  28.818  53.687  1.00  0.00     0.230 C 
BRANCH   4   5
HETATM    5  N   UNL     1       4.779  28.015  53.808  1.00  0.00    -0.257 N 
HETATM    6  C   UNL     1       5.440  27.475  52.752  1.00  0.00     0.327 C 
HETATM    7  O   UNL     1       5.226  27.649  51.567  1.00  0.00    -0.247 OA
HETATM    8  N   UNL     1       6.422  26.644  53.239  1.00  0.00    -0.324 N 
HETATM    9  C   UNL     1       6.380  26.489  54.683  1.00  0.00     0.123 C 
HETATM   10  H   UNL     1       6.961  26.068  52.599  1.00  0.00     0.165 HD
HETATM   11  C   UNL     1       5.194  27.434  54.966  1.00  0.00     0.257 C 
HETATM   12  O   UNL     1       4.709  27.627  56.072  1.00  0.00    -0.270 OA
BRANCH   9  13
HETATM   13  C   UNL     1       7.745  26.941  55.305  1.00  0.00     0.027 C 
HETATM   14  C   UNL     1       7.894  26.803  56.829  1.00  0.00     0.035 C 
HETATM   15  C   UNL     1       7.279  27.916  57.669  1.00  0.00     0.235 C 
HETATM   16  N   UNL     1       7.592  29.294  57.140  1.00  0.00    -0.067 N 
HETATM   17  H   UNL     1       8.556  29.502  57.429  1.00  0.00     0.280 HD
HETATM   18  C   UNL     1       7.520  29.474  55.649  1.00  0.00     0.235 C 
HETATM   19  C   UNL     1       8.228  28.351  54.916  1.00  0.00     0.035 C 
BRANCH  16  20
HETATM   20  C   UNL     1       6.711  30.351  57.799  1.00  0.00     0.273 C 
BRANCH  20  21
HETATM   21  C   UNL     1       7.162  30.761  59.170  1.00  0.00    -0.030 A 
HETATM   22  C   UNL     1       6.341  31.558  59.981  1.00  0.00     0.048 A 
HETATM   23  C   UNL     1       6.775  31.946  61.247  1.00  0.00     0.102 A 
HETATM   24  C   UNL     1       8.039  31.571  61.706  1.00  0.00     0.102 A 
HETATM   25  O   UNL     1       5.904  32.704  61.985  1.00  0.00    -0.346 OA
HETATM   26  O   UNL     1       8.540  31.944  62.924  1.00  0.00    -0.346 OA
HETATM   27  C   UNL     1       8.856  30.768  60.914  1.00  0.00     0.040 A 
HETATM   28  C   UNL     1       7.771  33.002  63.511  1.00  0.00     0.202 C 
HETATM   29  C   UNL     1       6.282  32.729  63.368  1.00  0.00     0.202 C 
HETATM   30  C   UNL     1       8.421  30.364  59.651  1.00  0.00     0.012 A 
ENDBRANCH  20  21
ENDBRANCH  16  20
ENDBRANCH   9  13
BRANCH   9  31
HETATM   31  C   UNL     1       5.895  25.070  55.088  1.00  0.00     0.080 C 
BRANCH  31  32
HETATM   32  C   UNL     1       6.828  23.934  54.741  1.00  0.00    -0.052 A 
HETATM   33  C   UNL     1       7.473  23.199  55.743  1.00  0.00     0.049 A 
HETATM   34  C   UNL     1       8.320  22.148  55.402  1.00  0.00     0.116 A 
HETATM   35  F   UNL     1       8.934  21.461  56.375  1.00  0.00    -0.206 F 
HETATM   36  C   UNL     1       8.536  21.801  54.075  1.00  0.00     0.042 A 
HETATM   37  C   UNL     1       7.891  22.516  53.070  1.00  0.00     0.003 A 
HETATM   38  C   UNL     1       7.043  23.577  53.400  1.00  0.00     0.007 A 
ENDBRANCH  31  32
ENDBRANCH   9  31
ENDBRANCH   4   5
ENDBRANCH   3   4
TORSDOF 7
ENDMDL
MODEL 5
REMARK VINA RESULT:      -8.7      5.511      8.955
REMARK  7 active torsions:
REMARK  status: ('A' for Active; 'I' for Inactive)
REMARK    1  A    between atoms: C_3  and  C_4 
REMARK    2  A    between atoms: C_4  and  N_5 
REMARK    3  A    between atoms: C_9  and  C_10 
REMARK    4  A    between atoms: C_9  and  C_28 
REMARK    5  A    between atoms: N_13  and  C_15 
REMARK    6  A    between atoms: C_15  and  C_16 
REMARK    7  A    between atoms: C_28  and  C_29 
ROOT
HETATM    1  C   UNL     1       8.738  31.997  62.607  1.00  0.00     0.112 C 
HETATM    2  C   UNL     1       9.097  31.763  61.207  1.00  0.00    -0.109 C 
HETATM    3  C   UNL     1       9.469  31.549  59.976  1.00  0.00    -0.087 C 
ENDROOT
BRANCH   3   4
HETATM    4  C   UNL     1       9.903  31.299  58.541  1.00  0.00     0.230 C 
BRANCH   4   5
HETATM    5  N   UNL     1       8.945  30.538  57.783  1.00  0.00    -0.257 N 
HETATM    6  C   UNL     1       9.187  30.034  56.545  1.00  0.00     0.327 C 
HETATM    7  O   UNL     1      10.234  30.037  55.927  1.00  0.00    -0.247 OA
HETATM    8  N   UNL     1       8.012  29.512  56.057  1.00  0.00    -0.324 N 
HETATM    9  C   UNL     1       6.869  29.762  56.919  1.00  0.00     0.123 C 
HETATM   10  H   UNL     1       7.966  29.176  55.099  1.00  0.00     0.165 HD
HETATM   11  C   UNL     1       7.611  30.507  58.048  1.00  0.00     0.257 C 
HETATM   12  O   UNL     1       7.070  30.991  59.032  1.00  0.00    -0.270 OA
BRANCH   9  13
HETATM   13  C   UNL     1       6.218  28.402  57.346  1.00  0.00     0.027 C 
HETATM   14  C   UNL     1       7.173  27.235  57.640  1.00  0.00     0.035 C 
HETATM   15  C   UNL     1       7.694  26.469  56.431  1.00  0.00     0.235 C 
HETATM   16  N   UNL     1       6.612  26.144  55.430  1.00  0.00    -0.067 N 
HETATM   17  H   UNL     1       6.096  25.342  55.813  1.00  0.00     0.280 HD
HETATM   18  C   UNL     1       5.612  27.229  55.145  1.00  0.00     0.235 C 
HETATM   19  C   UNL     1       5.105  27.870  56.422  1.00  0.00     0.035 C 
BRANCH  16  20
HETATM   20  C   UNL     1       7.209  25.675  54.106  1.00  0.00     0.273 C 
BRANCH  20  21
HETATM   21  C   UNL     1       7.522  24.208  54.057  1.00  0.00    -0.030 A 
HETATM   22  C   UNL     1       7.752  23.489  55.239  1.00  0.00     0.048 A 
HETATM   23  C   UNL     1       8.057  22.130  55.183  1.00  0.00     0.102 A 
HETATM   24  C   UNL     1       8.166  21.482  53.951  1.00  0.00     0.102 A 
HETATM   25  O   UNL     1       8.243  21.496  56.383  1.00  0.00    -0.346 OA
HETATM   26  O   UNL     1       8.493  20.159  53.822  1.00  0.00    -0.346 OA
HETATM   27  C   UNL     1       7.926  22.183  52.772  1.00  0.00     0.040 A 
HETATM   28  C   UNL     1       9.016  19.622  55.044  1.00  0.00     0.202 C 
HETATM   29  C   UNL     1       8.181  20.071  56.232  1.00  0.00     0.202 C 
HETATM   30  C   UNL     1       7.605  23.541  52.823  1.00  0.00     0.012 A 
ENDBRANCH  20  21
ENDBRANCH  16  20
ENDBRANCH   9  13
BRANCH   9  31
HETATM   31  C   UNL     1       5.901  30.802  56.291  1.00  0.00     0.080 C 
BRANCH  31  32
HETATM   32  C   UNL     1       5.047  31.576  57.267  1.00  0.00    -0.052 A 
HETATM   33  C   UNL     1       4.241  30.916  58.202  1.00  0.00     0.049 A 
HETATM   34  C   UNL     1       3.471  31.649  59.101  1.00  0.00     0.116 A 
HETATM   35  F   UNL     1       2.701  30.999  59.983  1.00  0.00    -0.206 F 
HETATM   36  C   UNL     1       3.490  33.037  59.098  1.00  0.00     0.042 A 
HETATM   37  C   UNL     1       4.297  33.706  58.181  1.00  0.00     0.003 A 
HETATM   38  C   UNL     1       5.071  32.980  57.270  1.00  0.00     0.007 A 
ENDBRANCH  31  32
ENDBRANCH   9  31
ENDBRANCH   4   5
ENDBRANCH   3   4
TORSDOF 7
ENDMDL
MODEL 6
REMARK VINA RESULT:      -8.6      5.206      9.276
REMARK  7 active torsions:
REMARK  status: ('A' for Active; 'I' for Inactive)
REMARK    1  A    between atoms: C_3  and  C_4 
REMARK    2  A    between atoms: C_4  and  N_5 
REMARK    3  A    between atoms: C_9  and  C_10 
REMARK    4  A    between atoms: C_9  and  C_28 
REMARK    5  A    between atoms: N_13  and  C_15 
REMARK    6  A    between atoms: C_15  and  C_16 
REMARK    7  A    between atoms: C_28  and  C_29 
ROOT
HETATM    1  C   UNL     1       9.192  24.042  56.514  1.00  0.00     0.112 C 
HETATM    2  C   UNL     1       8.483  25.249  56.945  1.00  0.00    -0.109 C 
HETATM    3  C   UNL     1       7.898  26.351  57.322  1.00  0.00    -0.087 C 
ENDROOT
BRANCH   3   4
HETATM    4  C   UNL     1       7.217  27.636  57.763  1.00  0.00     0.230 C 
BRANCH   4   5
HETATM    5  N   UNL     1       6.062  27.967  56.970  1.00  0.00    -0.257 N 
HETATM    6  C   UNL     1       5.016  27.126  56.767  1.00  0.00     0.327 C 
HETATM    7  O   UNL     1       4.819  26.040  57.278  1.00  0.00    -0.247 OA
HETATM    8  N   UNL     1       4.178  27.698  55.839  1.00  0.00    -0.324 N 
HETATM    9  C   UNL     1       4.706  28.926  55.268  1.00  0.00     0.123 C 
HETATM   10  H   UNL     1       3.387  27.173  55.479  1.00  0.00     0.165 HD
HETATM   11  C   UNL     1       6.016  28.995  56.079  1.00  0.00     0.257 C 
HETATM   12  O   UNL     1       6.877  29.852  55.937  1.00  0.00    -0.270 OA
BRANCH   9  13
HETATM   13  C   UNL     1       3.708  30.105  55.530  1.00  0.00     0.027 C 
HETATM   14  C   UNL     1       4.188  31.518  55.164  1.00  0.00     0.035 C 
HETATM   15  C   UNL     1       5.085  32.210  56.183  1.00  0.00     0.235 C 
HETATM   16  N   UNL     1       4.578  32.077  57.598  1.00  0.00    -0.067 N 
HETATM   17  H   UNL     1       3.813  32.756  57.695  1.00  0.00     0.280 HD
HETATM   18  C   UNL     1       4.039  30.731  57.996  1.00  0.00     0.235 C 
HETATM   19  C   UNL     1       3.101  30.172  56.945  1.00  0.00     0.035 C 
BRANCH  16  20
HETATM   20  C   UNL     1       5.646  32.489  58.608  1.00  0.00     0.273 C 
BRANCH  20  21
HETATM   21  C   UNL     1       5.108  33.192  59.820  1.00  0.00    -0.030 A 
HETATM   22  C   UNL     1       5.229  32.612  61.091  1.00  0.00     0.048 A 
HETATM   23  C   UNL     1       4.713  33.265  62.209  1.00  0.00     0.102 A 
HETATM   24  C   UNL     1       4.046  34.484  62.069  1.00  0.00     0.102 A 
HETATM   25  O   UNL     1       4.894  32.643  63.417  1.00  0.00    -0.346 OA
HETATM   26  O   UNL     1       3.489  35.162  63.119  1.00  0.00    -0.346 OA
HETATM   27  C   UNL     1       3.933  35.075  60.814  1.00  0.00     0.040 A 
HETATM   28  C   UNL     1       3.386  34.338  64.287  1.00  0.00     0.202 C 
HETATM   29  C   UNL     1       4.667  33.549  64.505  1.00  0.00     0.202 C 
HETATM   30  C   UNL     1       4.461  34.432  59.692  1.00  0.00     0.012 A 
ENDBRANCH  20  21
ENDBRANCH  16  20
ENDBRANCH   9  13
BRANCH   9  31
HETATM   31  C   UNL     1       5.135  28.726  53.789  1.00  0.00     0.080 C 
BRANCH  31  32
HETATM   32  C   UNL     1       5.502  27.315  53.397  1.00  0.00    -0.052 A 
HETATM   33  C   UNL     1       6.784  26.808  53.643  1.00  0.00     0.049 A 
HETATM   34  C   UNL     1       7.098  25.500  53.286  1.00  0.00     0.116 A 
HETATM   35  F   UNL     1       8.332  25.036  53.523  1.00  0.00    -0.206 F 
HETATM   36  C   UNL     1       6.156  24.672  52.690  1.00  0.00     0.042 A 
HETATM   37  C   UNL     1       4.874  25.160  52.450  1.00  0.00     0.003 A 
HETATM   38  C   UNL     1       4.549  26.473  52.801  1.00  0.00     0.007 A 
ENDBRANCH  31  32
ENDBRANCH   9  31
ENDBRANCH   4   5
ENDBRANCH   3   4
TORSDOF 7
ENDMDL
MODEL 7
REMARK VINA RESULT:      -8.4     12.209     17.455
REMARK  7 active torsions:
REMARK  status: ('A' for Active; 'I' for Inactive)
REMARK    1  A    between atoms: C_3  and  C_4 
REMARK    2  A    between atoms: C_4  and  N_5 
REMARK    3  A    between atoms: C_9  and  C_10 
REMARK    4  A    between atoms: C_9  and  C_28 
REMARK    5  A    between atoms: N_13  and  C_15 
REMARK    6  A    between atoms: C_15  and  C_16 
REMARK    7  A    between atoms: C_28  and  C_29 
ROOT
HETATM    1  C   UNL     1       3.653  34.569  56.924  1.00  0.00     0.112 C 
HETATM    2  C   UNL     1       3.713  35.563  57.997  1.00  0.00    -0.109 C 
HETATM    3  C   UNL     1       3.808  36.421  58.974  1.00  0.00    -0.087 C 
ENDROOT
BRANCH   3   4
HETATM    4  C   UNL     1       3.919  37.420  60.114  1.00  0.00     0.230 C 
BRANCH   4   5
HETATM    5  N   UNL     1       4.236  36.808  61.377  1.00  0.00    -0.257 N 
HETATM    6  C   UNL     1       5.469  36.840  61.946  1.00  0.00     0.327 C 
HETATM    7  O   UNL     1       6.451  37.450  61.571  1.00  0.00    -0.247 OA
HETATM    8  N   UNL     1       5.451  36.025  63.054  1.00  0.00    -0.324 N 
HETATM    9  C   UNL     1       4.206  35.291  63.209  1.00  0.00     0.123 C 
HETATM   10  H   UNL     1       6.312  35.838  63.559  1.00  0.00     0.165 HD
HETATM   11  C   UNL     1       3.463  35.868  61.986  1.00  0.00     0.257 C 
HETATM   12  O   UNL     1       2.345  35.527  61.628  1.00  0.00    -0.270 OA
BRANCH   9  13
HETATM   13  C   UNL     1       3.557  35.632  64.593  1.00  0.00     0.027 C 
HETATM   14  C   UNL     1       4.275  36.679  65.460  1.00  0.00     0.035 C 
HETATM   15  C   UNL     1       5.463  36.181  66.273  1.00  0.00     0.235 C 
HETATM   16  N   UNL     1       5.185  34.879  66.983  1.00  0.00    -0.067 N 
HETATM   17  H   UNL     1       4.620  35.115  67.808  1.00  0.00     0.280 HD
HETATM   18  C   UNL     1       4.432  33.836  66.205  1.00  0.00     0.235 C 
HETATM   19  C   UNL     1       3.229  34.428  65.497  1.00  0.00     0.035 C 
BRANCH  16  20
HETATM   20  C   UNL     1       6.472  34.253  67.512  1.00  0.00     0.273 C 
BRANCH  20  21
HETATM   21  C   UNL     1       6.772  34.580  68.946  1.00  0.00    -0.030 A 
HETATM   22  C   UNL     1       5.761  34.519  69.916  1.00  0.00     0.048 A 
HETATM   23  C   UNL     1       6.044  34.839  71.242  1.00  0.00     0.102 A 
HETATM   24  C   UNL     1       7.327  35.251  71.610  1.00  0.00     0.102 A 
HETATM   25  O   UNL     1       5.008  34.730  72.132  1.00  0.00    -0.346 OA
HETATM   26  O   UNL     1       7.666  35.610  72.887  1.00  0.00    -0.346 OA
HETATM   27  C   UNL     1       8.341  35.302  70.657  1.00  0.00     0.040 A 
HETATM   28  C   UNL     1       6.507  35.822  73.702  1.00  0.00     0.202 C 
HETATM   29  C   UNL     1       5.484  34.717  73.485  1.00  0.00     0.202 C 
HETATM   30  C   UNL     1       8.066  34.968  69.330  1.00  0.00     0.012 A 
ENDBRANCH  20  21
ENDBRANCH  16  20
ENDBRANCH   9  13
BRANCH   9  31
HETATM   31  C   UNL     1       4.397  33.779  62.912  1.00  0.00     0.080 C 
BRANCH  31  32
HETATM   32  C   UNL     1       5.824  33.325  62.711  1.00  0.00    -0.052 A 
HETATM   33  C   UNL     1       6.356  33.166  61.426  1.00  0.00     0.049 A 
HETATM   34  C   UNL     1       7.678  32.759  61.263  1.00  0.00     0.116 A 
HETATM   35  F   UNL     1       8.167  32.606  60.026  1.00  0.00    -0.206 F 
HETATM   36  C   UNL     1       8.493  32.511  62.360  1.00  0.00     0.042 A 
HETATM   37  C   UNL     1       7.979  32.676  63.643  1.00  0.00     0.003 A 
HETATM   38  C   UNL     1       6.652  33.080  63.818  1.00  0.00     0.007 A 
ENDBRANCH  31  32
ENDBRANCH   9  31
ENDBRANCH   4   5
ENDBRANCH   3   4
TORSDOF 7
ENDMDL
MODEL 8
REMARK VINA RESULT:      -8.0      5.191      9.679
REMARK  7 active torsions:
REMARK  status: ('A' for Active; 'I' for Inactive)
REMARK    1  A    between atoms: C_3  and  C_4 
REMARK    2  A    between atoms: C_4  and  N_5 
REMARK    3  A    between atoms: C_9  and  C_10 
REMARK    4  A    between atoms: C_9  and  C_28 
REMARK    5  A    between atoms: N_13  and  C_15 
REMARK    6  A    between atoms: C_15  and  C_16 
REMARK    7  A    between atoms: C_28  and  C_29 
ROOT
HETATM    1  C   UNL     1       7.594  22.495  54.483  1.00  0.00     0.112 C 
HETATM    2  C   UNL     1       7.517  23.819  55.104  1.00  0.00    -0.109 C 
HETATM    3  C   UNL     1       7.501  24.995  55.667  1.00  0.00    -0.087 C 
ENDROOT
BRANCH   3   4
HETATM    4  C   UNL     1       7.482  26.366  56.322  1.00  0.00     0.230 C 
BRANCH   4   5
HETATM    5  N   UNL     1       6.354  27.168  55.930  1.00  0.00    -0.257 N 
HETATM    6  C   UNL     1       5.126  27.082  56.505  1.00  0.00     0.327 C 
HETATM    7  O   UNL     1       4.799  26.428  57.476  1.00  0.00    -0.247 OA
HETATM    8  N   UNL     1       4.257  27.865  55.781  1.00  0.00    -0.324 N 
HETATM    9  C   UNL     1       4.853  28.427  54.581  1.00  0.00     0.123 C 
HETATM   10  H   UNL     1       3.265  27.853  55.997  1.00  0.00     0.165 HD
HETATM   11  C   UNL     1       6.274  27.853  54.757  1.00  0.00     0.257 C 
HETATM   12  O   UNL     1       7.186  28.000  53.956  1.00  0.00    -0.270 OA
BRANCH   9  13
HETATM   13  C   UNL     1       4.765  29.991  54.626  1.00  0.00     0.027 C 
HETATM   14  C   UNL     1       5.758  30.717  55.547  1.00  0.00     0.035 C 
HETATM   15  C   UNL     1       5.389  30.773  57.025  1.00  0.00     0.235 C 
HETATM   16  N   UNL     1       3.945  31.145  57.257  1.00  0.00    -0.067 N 
HETATM   17  H   UNL     1       3.885  32.163  57.124  1.00  0.00     0.280 HD
HETATM   18  C   UNL     1       2.932  30.511  56.346  1.00  0.00     0.235 C 
HETATM   19  C   UNL     1       3.366  30.579  54.895  1.00  0.00     0.035 C 
BRANCH  16  20
HETATM   20  C   UNL     1       3.532  30.878  58.702  1.00  0.00     0.273 C 
BRANCH  20  21
HETATM   21  C   UNL     1       3.595  32.085  59.593  1.00  0.00    -0.030 A 
HETATM   22  C   UNL     1       3.668  31.938  60.985  1.00  0.00     0.048 A 
HETATM   23  C   UNL     1       3.710  33.064  61.806  1.00  0.00     0.102 A 
HETATM   24  C   UNL     1       3.649  34.344  61.251  1.00  0.00     0.102 A 
HETATM   25  O   UNL     1       3.806  32.834  63.153  1.00  0.00    -0.346 OA
HETATM   26  O   UNL     1       3.654  35.490  61.999  1.00  0.00    -0.346 OA
HETATM   27  C   UNL     1       3.589  34.500  59.868  1.00  0.00     0.040 A 
HETATM   28  C   UNL     1       3.403  35.219  63.384  1.00  0.00     0.202 C 
HETATM   29  C   UNL     1       4.210  34.019  63.854  1.00  0.00     0.202 C 
HETATM   30  C   UNL     1       3.562  33.376  59.041  1.00  0.00     0.012 A 
ENDBRANCH  20  21
ENDBRANCH  16  20
ENDBRANCH   9  13
BRANCH   9  31
HETATM   31  C   UNL     1       4.283  27.760  53.299  1.00  0.00     0.080 C 
BRANCH  31  32
HETATM   32  C   UNL     1       4.198  28.648  52.080  1.00  0.00    -0.052 A 
HETATM   33  C   UNL     1       5.343  28.978  51.345  1.00  0.00     0.049 A 
HETATM   34  C   UNL     1       5.240  29.787  50.218  1.00  0.00     0.116 A 
HETATM   35  F   UNL     1       6.348  30.097  49.532  1.00  0.00    -0.206 F 
HETATM   36  C   UNL     1       4.011  30.276  49.794  1.00  0.00     0.042 A 
HETATM   37  C   UNL     1       2.863  29.946  50.509  1.00  0.00     0.003 A 
HETATM   38  C   UNL     1       2.955  29.138  51.646  1.00  0.00     0.007 A 
ENDBRANCH  31  32
ENDBRANCH   9  31
ENDBRANCH   4   5
ENDBRANCH   3   4
TORSDOF 7
ENDMDL
MODEL 9
REMARK VINA RESULT:      -7.9      3.965      7.033
REMARK  7 active torsions:
REMARK  status: ('A' for Active; 'I' for Inactive)
REMARK    1  A    between atoms: C_3  and  C_4 
REMARK    2  A    between atoms: C_4  and  N_5 
REMARK    3  A    between atoms: C_9  and  C_10 
REMARK    4  A    between atoms: C_9  and  C_28 
REMARK    5  A    between atoms: N_13  and  C_15 
REMARK    6  A    between atoms: C_15  and  C_16 
REMARK    7  A    between atoms: C_28  and  C_29 
ROOT
HETATM    1  C   UNL     1       8.754  21.554  55.511  1.00  0.00     0.112 C 
HETATM    2  C   UNL     1       8.313  22.608  54.596  1.00  0.00    -0.109 C 
HETATM    3  C   UNL     1       7.904  23.508  53.746  1.00  0.00    -0.087 C 
ENDROOT
BRANCH   3   4
HETATM    4  C   UNL     1       7.428  24.557  52.755  1.00  0.00     0.230 C 
BRANCH   4   5
HETATM    5  N   UNL     1       6.470  25.474  53.315  1.00  0.00    -0.257 N 
HETATM    6  C   UNL     1       5.129  25.382  53.120  1.00  0.00     0.327 C 
HETATM    7  O   UNL     1       4.514  24.496  52.559  1.00  0.00    -0.247 OA
HETATM    8  N   UNL     1       4.539  26.502  53.657  1.00  0.00    -0.324 N 
HETATM    9  C   UNL     1       5.498  27.483  54.137  1.00  0.00     0.123 C 
HETATM   10  H   UNL     1       3.546  26.666  53.521  1.00  0.00     0.165 HD
HETATM   11  C   UNL     1       6.787  26.699  53.816  1.00  0.00     0.257 C 
HETATM   12  O   UNL     1       7.920  27.123  53.993  1.00  0.00    -0.270 OA
BRANCH   9  13
HETATM   13  C   UNL     1       5.258  27.758  55.661  1.00  0.00     0.027 C 
HETATM   14  C   UNL     1       3.913  28.394  56.050  1.00  0.00     0.035 C 
HETATM   15  C   UNL     1       3.809  29.905  55.883  1.00  0.00     0.235 C 
HETATM   16  N   UNL     1       5.016  30.639  56.413  1.00  0.00    -0.067 N 
HETATM   17  H   UNL     1       4.911  30.667  57.435  1.00  0.00     0.280 HD
HETATM   18  C   UNL     1       6.358  30.031  56.114  1.00  0.00     0.235 C 
HETATM   19  C   UNL     1       6.369  28.540  56.387  1.00  0.00     0.035 C 
BRANCH  16  20
HETATM   20  C   UNL     1       5.027  32.092  55.945  1.00  0.00     0.273 C 
BRANCH  20  21
HETATM   21  C   UNL     1       3.847  32.475  55.099  1.00  0.00    -0.030 A 
HETATM   22  C   UNL     1       2.623  32.810  55.695  1.00  0.00     0.048 A 
HETATM   23  C   UNL     1       1.529  33.149  54.901  1.00  0.00     0.102 A 
HETATM   24  C   UNL     1       1.635  33.131  53.508  1.00  0.00     0.102 A 
HETATM   25  O   UNL     1       0.377  33.486  55.561  1.00  0.00    -0.346 OA
HETATM   26  O   UNL     1       0.593  33.422  52.670  1.00  0.00    -0.346 OA
HETATM   27  C   UNL     1       2.850  32.813  52.908  1.00  0.00     0.040 A 
HETATM   28  C   UNL     1      -0.661  33.425  53.365  1.00  0.00     0.202 C 
HETATM   29  C   UNL     1      -0.542  34.161  54.690  1.00  0.00     0.202 C 
HETATM   30  C   UNL     1       3.953  32.487  53.699  1.00  0.00     0.012 A 
ENDBRANCH  20  21
ENDBRANCH  16  20
ENDBRANCH   9  13
BRANCH   9  31
HETATM   31  C   UNL     1       5.530  28.740  53.226  1.00  0.00     0.080 C 
BRANCH  31  32
HETATM   32  C   UNL     1       4.559  28.737  52.069  1.00  0.00    -0.052 A 
HETATM   33  C   UNL     1       4.929  28.231  50.818  1.00  0.00     0.049 A 
HETATM   34  C   UNL     1       4.014  28.226  49.768  1.00  0.00     0.116 A 
HETATM   35  F   UNL     1       4.390  27.745  48.576  1.00  0.00    -0.206 F 
HETATM   36  C   UNL     1       2.724  28.709  49.938  1.00  0.00     0.042 A 
HETATM   37  C   UNL     1       2.338  29.204  51.181  1.00  0.00     0.003 A 
HETATM   38  C   UNL     1       3.250  29.218  52.241  1.00  0.00     0.007 A 
ENDBRANCH  31  32
ENDBRANCH   9  31
ENDBRANCH   4   5
ENDBRANCH   3   4
TORSDOF 7
ENDMDL
MODEL 10
REMARK VINA RESULT:      -7.8      4.405      9.995
REMARK  7 active torsions:
REMARK  status: ('A' for Active; 'I' for Inactive)
REMARK    1  A    between atoms: C_3  and  C_4 
REMARK    2  A    between atoms: C_4  and  N_5 
REMARK    3  A    between atoms: C_9  and  C_10 
REMARK    4  A    between atoms: C_9  and  C_28 
REMARK    5  A    between atoms: N_13  and  C_15 
REMARK    6  A    between atoms: C_15  and  C_16 
REMARK    7  A    between atoms: C_28  and  C_29 
ROOT
HETATM    1  C   UNL     1       6.817  33.711  45.290  1.00  0.00     0.112 C 
HETATM    2  C   UNL     1       5.777  32.727  45.598  1.00  0.00    -0.109 C 
HETATM    3  C   UNL     1       4.826  31.889  45.901  1.00  0.00    -0.087 C 
ENDROOT
BRANCH   3   4
HETATM    4  C   UNL     1       3.717  30.912  46.255  1.00  0.00     0.230 C 
BRANCH   4   5
HETATM    5  N   UNL     1       3.592  30.682  47.671  1.00  0.00    -0.257 N 
HETATM    6  C   UNL     1       2.863  31.468  48.504  1.00  0.00     0.327 C 
HETATM    7  O   UNL     1       2.131  32.393  48.211  1.00  0.00    -0.247 OA
HETATM    8  N   UNL     1       3.098  31.058  49.796  1.00  0.00    -0.324 N 
HETATM    9  C   UNL     1       4.122  30.032  49.896  1.00  0.00     0.123 C 
HETATM   10  H   UNL     1       2.718  31.590  50.573  1.00  0.00     0.165 HD
HETATM   11  C   UNL     1       4.423  29.881  48.391  1.00  0.00     0.257 C 
HETATM   12  O   UNL     1       5.281  29.144  47.925  1.00  0.00    -0.270 OA
BRANCH   9  13
HETATM   13  C   UNL     1       3.529  28.754  50.581  1.00  0.00     0.027 C 
HETATM   14  C   UNL     1       3.373  28.792  52.109  1.00  0.00     0.035 C 
HETATM   15  C   UNL     1       4.628  28.499  52.922  1.00  0.00     0.235 C 
HETATM   16  N   UNL     1       5.395  27.305  52.409  1.00  0.00    -0.067 N 
HETATM   17  H   UNL     1       4.891  26.473  52.742  1.00  0.00     0.280 HD
HETATM   18  C   UNL     1       5.529  27.182  50.917  1.00  0.00     0.235 C 
HETATM   19  C   UNL     1       4.206  27.419  50.215  1.00  0.00     0.035 C 
BRANCH  16  20
HETATM   20  C   UNL     1       6.788  27.236  53.028  1.00  0.00     0.273 C 
BRANCH  20  21
HETATM   21  C   UNL     1       7.256  25.844  53.338  1.00  0.00    -0.030 A 
HETATM   22  C   UNL     1       7.478  25.446  54.664  1.00  0.00     0.048 A 
HETATM   23  C   UNL     1       7.928  24.156  54.941  1.00  0.00     0.102 A 
HETATM   24  C   UNL     1       8.190  23.262  53.901  1.00  0.00     0.102 A 
HETATM   25  O   UNL     1       8.095  23.839  56.263  1.00  0.00    -0.346 OA
HETATM   26  O   UNL     1       8.663  21.993  54.100  1.00  0.00    -0.346 OA
HETATM   27  C   UNL     1       7.960  23.643  52.581  1.00  0.00     0.040 A 
HETATM   28  C   UNL     1       9.153  21.814  55.435  1.00  0.00     0.202 C 
HETATM   29  C   UNL     1       8.194  22.420  56.447  1.00  0.00     0.202 C 
HETATM   30  C   UNL     1       7.495  24.929  52.299  1.00  0.00     0.012 A 
ENDBRANCH  20  21
ENDBRANCH  16  20
ENDBRANCH   9  13
BRANCH   9  31
HETATM   31  C   UNL     1       5.424  30.591  50.533  1.00  0.00     0.080 C 
BRANCH  31  32
HETATM   32  C   UNL     1       5.630  32.081  50.407  1.00  0.00    -0.052 A 
HETATM   33  C   UNL     1       6.370  32.621  49.349  1.00  0.00     0.049 A 
HETATM   34  C   UNL     1       6.537  33.999  49.244  1.00  0.00     0.116 A 
HETATM   35  F   UNL     1       7.255  34.495  48.228  1.00  0.00    -0.206 F 
HETATM   36  C   UNL     1       5.972  34.863  50.172  1.00  0.00     0.042 A 
HETATM   37  C   UNL     1       5.223  34.341  51.223  1.00  0.00     0.003 A 
HETATM   38  C   UNL     1       5.053  32.958  51.341  1.00  0.00     0.007 A 
ENDBRANCH  31  32
ENDBRANCH   9  31
ENDBRANCH   4   5
ENDBRANCH   3   4
TORSDOF 7
ENDMDL
