MODEL 1
REMARK VINA RESULT:     -10.4      0.000      0.000
REMARK  13 active torsions:
REMARK  status: ('A' for Active; 'I' for Inactive)
REMARK    1  A    between atoms: C_2  and  O_3 
REMARK    2  A    between atoms: O_3  and  C_4 
REMARK    3  A    between atoms: C_5  and  O_6 
REMARK    4  A    between atoms: C_9  and  C_10 
REMARK    5  A    between atoms: N_11  and  C_12 
REMARK    6  A    between atoms: C_12  and  C_13 
REMARK    7  A    between atoms: C_13  and  N_14 
REMARK    8  A    between atoms: C_23  and  O_24 
REMARK    9  A    between atoms: C_25  and  C_26 
REMARK   10  A    between atoms: C_26  and  C_27 
REMARK   11  A    between atoms: C_31  and  O_32 
REMARK   12  A    between atoms: O_32  and  C_33 
REMARK   13  A    between atoms: C_33  and  C_34 
ROOT
HETATM    1  C   UNL     1       7.135  26.691  54.599  1.00  0.00     0.161 A 
HETATM    2  N   UNL     1       6.692  25.445  55.210  1.00  0.00    -0.332 N 
HETATM    3  C   UNL     1       7.006  25.433  56.561  1.00  0.00     0.278 A 
HETATM    4  O   UNL     1       6.847  24.506  57.334  1.00  0.00    -0.265 OA
HETATM    5  C   UNL     1       7.649  26.719  56.895  1.00  0.00     0.146 A 
HETATM    6  C   UNL     1       7.758  27.410  55.754  1.00  0.00     0.059 A 
ENDROOT
BRANCH   6   7
HETATM    7  C   UNL     1       8.412  28.736  55.641  1.00  0.00     0.194 C 
HETATM    8  O   UNL     1       9.057  29.069  54.656  1.00  0.00    -0.287 OA
BRANCH   7   9
HETATM    9  C   UNL     1       8.325  29.648  56.812  1.00  0.00     0.021 A 
HETATM   10  C   UNL     1       9.477  30.004  57.534  1.00  0.00    -0.045 A 
HETATM   11  C   UNL     1      10.859  29.607  57.093  1.00  0.00     0.049 C 
HETATM   12  C   UNL     1       9.326  30.786  58.689  1.00  0.00     0.044 A 
HETATM   13  C   UNL     1       8.064  31.192  59.130  1.00  0.00     0.069 A 
HETATM   14  C   UNL     1       6.936  30.900  58.368  1.00  0.00     0.038 A 
HETATM   15  C   UNL     1       7.068  30.138  57.203  1.00  0.00     0.019 A 
BRANCH  13  16
HETATM   16  O   UNL     1       8.057  31.904  60.295  1.00  0.00    -0.347 OA
BRANCH  16  17
HETATM   17  C   UNL     1       8.033  31.136  61.501  1.00  0.00     0.214 C 
BRANCH  17  18
HETATM   18  C   UNL     1       7.330  31.897  62.604  1.00  0.00    -0.034 A 
HETATM   19  C   UNL     1       8.088  32.656  63.510  1.00  0.00     0.009 A 
HETATM   20  C   UNL     1       7.462  33.402  64.512  1.00  0.00     0.001 A 
HETATM   21  C   UNL     1       6.074  33.404  64.618  1.00  0.00     0.000 A 
HETATM   22  C   UNL     1       5.308  32.665  63.720  1.00  0.00     0.001 A 
HETATM   23  C   UNL     1       5.932  31.921  62.716  1.00  0.00     0.009 A 
ENDBRANCH  17  18
ENDBRANCH  16  17
ENDBRANCH  13  16
ENDBRANCH   7   9
ENDBRANCH   6   7
BRANCH   1  24
HETATM   24  C   UNL     1       5.943  27.389  53.969  1.00  0.00    -0.028 A 
HETATM   25  C   UNL     1       5.006  28.083  54.760  1.00  0.00     0.012 A 
HETATM   26  C   UNL     1       3.878  28.660  54.182  1.00  0.00     0.040 A 
HETATM   27  C   UNL     1       3.690  28.553  52.812  1.00  0.00     0.099 A 
HETATM   28  C   UNL     1       4.617  27.905  51.992  1.00  0.00     0.102 A 
HETATM   29  C   UNL     1       5.742  27.319  52.575  1.00  0.00     0.049 A 
BRANCH  27  30
HETATM   30  O   UNL     1       2.558  29.102  52.279  1.00  0.00    -0.358 OA
HETATM   31  H   UNL     1       2.665  30.071  52.355  1.00  0.00     0.218 HD
ENDBRANCH  27  30
BRANCH  28  32
HETATM   32  O   UNL     1       4.292  27.875  50.663  1.00  0.00    -0.349 OA
BRANCH  32  33
HETATM   33  C   UNL     1       4.946  26.895  49.855  1.00  0.00     0.171 C 
HETATM   34  C   UNL     1       3.917  26.327  48.895  1.00  0.00     0.034 C 
ENDBRANCH  32  33
ENDBRANCH  28  32
ENDBRANCH   1  24
BRANCH   5  35
HETATM   35  O   UNL     1       8.108  27.024  58.138  1.00  0.00    -0.355 OA
HETATM   36  H   UNL     1       7.994  26.233  58.700  1.00  0.00     0.218 HD
ENDBRANCH   5  35
BRANCH   2  37
HETATM   37  C   UNL     1       6.674  24.194  54.460  1.00  0.00     0.155 C 
BRANCH  37  38
HETATM   38  C   UNL     1       7.885  24.006  53.530  1.00  0.00     0.255 C 
BRANCH  38  39
HETATM   39  N   UNL     1       8.588  22.680  53.778  1.00  0.00    -0.066 N 
HETATM   40  H   UNL     1       9.573  22.805  53.499  1.00  0.00     0.280 HD
HETATM   41  C   UNL     1       8.562  22.240  55.240  1.00  0.00     0.261 C 
HETATM   42  C   UNL     1       9.197  20.855  55.393  1.00  0.00     0.195 C 
HETATM   43  O   UNL     1       8.528  19.900  54.565  1.00  0.00    -0.388 OA
HETATM   44  C   UNL     1       8.652  20.238  53.180  1.00  0.00     0.195 C 
HETATM   45  C   UNL     1       7.990  21.588  52.889  1.00  0.00     0.261 C 
ENDBRANCH  38  39
ENDBRANCH  37  38
ENDBRANCH   2  37
TORSDOF 13
ENDMDL
MODEL 2
REMARK VINA RESULT:     -10.2      3.053      9.953
REMARK  13 active torsions:
REMARK  status: ('A' for Active; 'I' for Inactive)
REMARK    1  A    between atoms: C_2  and  O_3 
REMARK    2  A    between atoms: O_3  and  C_4 
REMARK    3  A    between atoms: C_5  and  O_6 
REMARK    4  A    between atoms: C_9  and  C_10 
REMARK    5  A    between atoms: N_11  and  C_12 
REMARK    6  A    between atoms: C_12  and  C_13 
REMARK    7  A    between atoms: C_13  and  N_14 
REMARK    8  A    between atoms: C_23  and  O_24 
REMARK    9  A    between atoms: C_25  and  C_26 
REMARK   10  A    between atoms: C_26  and  C_27 
REMARK   11  A    between atoms: C_31  and  O_32 
REMARK   12  A    between atoms: O_32  and  C_33 
REMARK   13  A    between atoms: C_33  and  C_34 
ROOT
HETATM    1  C   UNL     1       7.494  30.636  58.960  1.00  0.00     0.161 A 
HETATM    2  N   UNL     1       8.460  31.709  59.154  1.00  0.00    -0.332 N 
HETATM    3  C   UNL     1       9.636  31.426  58.475  1.00  0.00     0.278 A 
HETATM    4  O   UNL     1      10.665  32.077  58.503  1.00  0.00    -0.265 OA
HETATM    5  C   UNL     1       9.460  30.143  57.766  1.00  0.00     0.146 A 
HETATM    6  C   UNL     1       8.247  29.680  58.090  1.00  0.00     0.059 A 
ENDROOT
BRANCH   6   7
HETATM    7  C   UNL     1       7.704  28.376  57.638  1.00  0.00     0.194 C 
HETATM    8  O   UNL     1       7.772  27.363  58.321  1.00  0.00    -0.287 OA
BRANCH   7   9
HETATM    9  C   UNL     1       7.123  28.310  56.271  1.00  0.00     0.021 A 
HETATM   10  C   UNL     1       5.736  28.175  56.085  1.00  0.00    -0.045 A 
HETATM   11  C   UNL     1       4.761  28.231  57.227  1.00  0.00     0.049 C 
HETATM   12  C   UNL     1       5.251  28.017  54.777  1.00  0.00     0.044 A 
HETATM   13  C   UNL     1       6.118  27.974  53.682  1.00  0.00     0.069 A 
HETATM   14  C   UNL     1       7.481  28.185  53.869  1.00  0.00     0.038 A 
HETATM   15  C   UNL     1       7.982  28.363  55.161  1.00  0.00     0.019 A 
BRANCH  13  16
HETATM   16  O   UNL     1       5.516  27.764  52.475  1.00  0.00    -0.347 OA
BRANCH  16  17
HETATM   17  C   UNL     1       4.975  26.458  52.261  1.00  0.00     0.214 C 
BRANCH  17  18
HETATM   18  C   UNL     1       5.987  25.395  52.626  1.00  0.00    -0.034 A 
HETATM   19  C   UNL     1       7.119  25.211  51.816  1.00  0.00     0.009 A 
HETATM   20  C   UNL     1       8.090  24.266  52.153  1.00  0.00     0.001 A 
HETATM   21  C   UNL     1       7.947  23.496  53.305  1.00  0.00     0.000 A 
HETATM   22  C   UNL     1       6.835  23.674  54.124  1.00  0.00     0.001 A 
HETATM   23  C   UNL     1       5.865  24.620  53.790  1.00  0.00     0.009 A 
ENDBRANCH  17  18
ENDBRANCH  16  17
ENDBRANCH  13  16
ENDBRANCH   7   9
ENDBRANCH   6   7
BRANCH   1  24
HETATM   24  C   UNL     1       6.228  31.209  58.348  1.00  0.00    -0.028 A 
HETATM   25  C   UNL     1       6.154  31.499  56.971  1.00  0.00     0.012 A 
HETATM   26  C   UNL     1       5.015  32.090  56.431  1.00  0.00     0.040 A 
HETATM   27  C   UNL     1       3.945  32.384  57.263  1.00  0.00     0.099 A 
HETATM   28  C   UNL     1       3.969  32.076  58.625  1.00  0.00     0.102 A 
HETATM   29  C   UNL     1       5.116  31.492  59.167  1.00  0.00     0.049 A 
BRANCH  27  30
HETATM   30  O   UNL     1       2.855  32.992  56.708  1.00  0.00    -0.358 OA
HETATM   31  H   UNL     1       2.107  32.374  56.831  1.00  0.00     0.218 HD
ENDBRANCH  27  30
BRANCH  28  32
HETATM   32  O   UNL     1       2.844  32.431  59.318  1.00  0.00    -0.349 OA
BRANCH  32  33
HETATM   33  C   UNL     1       3.030  33.138  60.544  1.00  0.00     0.171 C 
HETATM   34  C   UNL     1       3.290  34.594  60.203  1.00  0.00     0.034 C 
ENDBRANCH  32  33
ENDBRANCH  28  32
ENDBRANCH   1  24
BRANCH   5  35
HETATM   35  O   UNL     1      10.439  29.559  57.024  1.00  0.00    -0.355 OA
HETATM   36  H   UNL     1      10.915  30.268  56.549  1.00  0.00     0.218 HD
ENDBRANCH   5  35
BRANCH   2  37
HETATM   37  C   UNL     1       8.508  32.476  60.395  1.00  0.00     0.155 C 
BRANCH  37  38
HETATM   38  C   UNL     1       7.928  31.733  61.610  1.00  0.00     0.255 C 
BRANCH  38  39
HETATM   39  N   UNL     1       7.177  32.672  62.542  1.00  0.00    -0.066 N 
HETATM   40  H   UNL     1       7.120  33.585  62.067  1.00  0.00     0.280 HD
HETATM   41  C   UNL     1       5.755  32.212  62.855  1.00  0.00     0.261 C 
HETATM   42  C   UNL     1       5.101  33.150  63.874  1.00  0.00     0.195 C 
HETATM   43  O   UNL     1       5.884  33.220  65.068  1.00  0.00    -0.388 OA
HETATM   44  C   UNL     1       7.181  33.767  64.806  1.00  0.00     0.195 C 
HETATM   45  C   UNL     1       7.963  32.873  63.839  1.00  0.00     0.261 C 
ENDBRANCH  38  39
ENDBRANCH  37  38
ENDBRANCH   2  37
TORSDOF 13
ENDMDL
MODEL 3
REMARK VINA RESULT:     -10.1      1.287      2.561
REMARK  13 active torsions:
REMARK  status: ('A' for Active; 'I' for Inactive)
REMARK    1  A    between atoms: C_2  and  O_3 
REMARK    2  A    between atoms: O_3  and  C_4 
REMARK    3  A    between atoms: C_5  and  O_6 
REMARK    4  A    between atoms: C_9  and  C_10 
REMARK    5  A    between atoms: N_11  and  C_12 
REMARK    6  A    between atoms: C_12  and  C_13 
REMARK    7  A    between atoms: C_13  and  N_14 
REMARK    8  A    between atoms: C_23  and  O_24 
REMARK    9  A    between atoms: C_25  and  C_26 
REMARK   10  A    between atoms: C_26  and  C_27 
REMARK   11  A    between atoms: C_31  and  O_32 
REMARK   12  A    between atoms: O_32  and  C_33 
REMARK   13  A    between atoms: C_33  and  C_34 
ROOT
HETATM    1  C   UNL     1       6.864  27.248  54.708  1.00  0.00     0.161 A 
HETATM    2  N   UNL     1       6.265  26.026  55.228  1.00  0.00    -0.332 N 
HETATM    3  C   UNL     1       6.634  25.835  56.551  1.00  0.00     0.278 A 
HETATM    4  O   UNL     1       6.372  24.870  57.246  1.00  0.00    -0.265 OA
HETATM    5  C   UNL     1       7.478  26.974  56.962  1.00  0.00     0.146 A 
HETATM    6  C   UNL     1       7.639  27.751  55.884  1.00  0.00     0.059 A 
ENDROOT
BRANCH   6   7
HETATM    7  C   UNL     1       8.481  28.972  55.854  1.00  0.00     0.194 C 
HETATM    8  O   UNL     1       9.232  29.229  54.923  1.00  0.00    -0.287 OA
BRANCH   7   9
HETATM    9  C   UNL     1       8.442  29.863  57.043  1.00  0.00     0.021 A 
HETATM   10  C   UNL     1       9.620  30.180  57.743  1.00  0.00    -0.045 A 
HETATM   11  C   UNL     1      10.981  29.760  57.261  1.00  0.00     0.049 C 
HETATM   12  C   UNL     1       9.514  30.943  58.916  1.00  0.00     0.044 A 
HETATM   13  C   UNL     1       8.272  31.368  59.395  1.00  0.00     0.069 A 
HETATM   14  C   UNL     1       7.121  31.116  58.655  1.00  0.00     0.038 A 
HETATM   15  C   UNL     1       7.207  30.373  57.474  1.00  0.00     0.019 A 
BRANCH  13  16
HETATM   16  O   UNL     1       8.310  32.058  60.572  1.00  0.00    -0.347 OA
BRANCH  16  17
HETATM   17  C   UNL     1       8.128  31.284  61.761  1.00  0.00     0.214 C 
BRANCH  17  18
HETATM   18  C   UNL     1       7.358  32.072  62.798  1.00  0.00    -0.034 A 
HETATM   19  C   UNL     1       5.956  32.013  62.808  1.00  0.00     0.009 A 
HETATM   20  C   UNL     1       5.221  32.697  63.780  1.00  0.00     0.001 A 
HETATM   21  C   UNL     1       5.877  33.444  64.756  1.00  0.00     0.000 A 
HETATM   22  C   UNL     1       7.268  33.503  64.764  1.00  0.00     0.001 A 
HETATM   23  C   UNL     1       8.004  32.818  63.796  1.00  0.00     0.009 A 
ENDBRANCH  17  18
ENDBRANCH  16  17
ENDBRANCH  13  16
ENDBRANCH   7   9
ENDBRANCH   6   7
BRANCH   1  24
HETATM   24  C   UNL     1       5.764  28.172  54.214  1.00  0.00    -0.028 A 
HETATM   25  C   UNL     1       5.564  28.392  52.837  1.00  0.00     0.012 A 
HETATM   26  C   UNL     1       4.601  29.295  52.396  1.00  0.00     0.040 A 
HETATM   27  C   UNL     1       3.830  29.972  53.328  1.00  0.00     0.099 A 
HETATM   28  C   UNL     1       3.975  29.751  54.700  1.00  0.00     0.102 A 
HETATM   29  C   UNL     1       4.948  28.852  55.141  1.00  0.00     0.049 A 
BRANCH  27  30
HETATM   30  O   UNL     1       2.915  30.875  52.865  1.00  0.00    -0.358 OA
HETATM   31  H   UNL     1       3.373  31.739  52.844  1.00  0.00     0.218 HD
ENDBRANCH  27  30
BRANCH  28  32
HETATM   32  O   UNL     1       3.149  30.496  55.497  1.00  0.00    -0.349 OA
BRANCH  32  33
HETATM   33  C   UNL     1       3.760  31.248  56.546  1.00  0.00     0.171 C 
HETATM   34  C   UNL     1       4.331  32.514  55.935  1.00  0.00     0.034 C 
ENDBRANCH  32  33
ENDBRANCH  28  32
ENDBRANCH   1  24
BRANCH   5  35
HETATM   35  O   UNL     1       8.034  27.085  58.198  1.00  0.00    -0.355 OA
HETATM   36  H   UNL     1       8.978  27.306  58.081  1.00  0.00     0.218 HD
ENDBRANCH   5  35
BRANCH   2  37
HETATM   37  C   UNL     1       6.025  24.871  54.370  1.00  0.00     0.155 C 
BRANCH  37  38
HETATM   38  C   UNL     1       7.309  24.203  53.848  1.00  0.00     0.255 C 
BRANCH  38  39
HETATM   39  N   UNL     1       7.282  22.695  54.044  1.00  0.00    -0.066 N 
HETATM   40  H   UNL     1       6.293  22.404  54.010  1.00  0.00     0.280 HD
HETATM   41  C   UNL     1       8.038  21.927  52.962  1.00  0.00     0.261 C 
HETATM   42  C   UNL     1       8.053  20.429  53.282  1.00  0.00     0.195 C 
HETATM   43  O   UNL     1       8.633  20.194  54.568  1.00  0.00    -0.388 OA
HETATM   44  C   UNL     1       7.861  20.810  55.604  1.00  0.00     0.195 C 
HETATM   45  C   UNL     1       7.826  22.330  55.426  1.00  0.00     0.261 C 
ENDBRANCH  38  39
ENDBRANCH  37  38
ENDBRANCH   2  37
TORSDOF 13
ENDMDL
MODEL 4
REMARK VINA RESULT:      -9.8      2.219      5.470
REMARK  13 active torsions:
REMARK  status: ('A' for Active; 'I' for Inactive)
REMARK    1  A    between atoms: C_2  and  O_3 
REMARK    2  A    between atoms: O_3  and  C_4 
REMARK    3  A    between atoms: C_5  and  O_6 
REMARK    4  A    between atoms: C_9  and  C_10 
REMARK    5  A    between atoms: N_11  and  C_12 
REMARK    6  A    between atoms: C_12  and  C_13 
REMARK    7  A    between atoms: C_13  and  N_14 
REMARK    8  A    between atoms: C_23  and  O_24 
REMARK    9  A    between atoms: C_25  and  C_26 
REMARK   10  A    between atoms: C_26  and  C_27 
REMARK   11  A    between atoms: C_31  and  O_32 
REMARK   12  A    between atoms: O_32  and  C_33 
REMARK   13  A    between atoms: C_33  and  C_34 
ROOT
HETATM    1  C   UNL     1       6.215  28.798  56.499  1.00  0.00     0.161 A 
HETATM    2  N   UNL     1       6.180  27.512  55.816  1.00  0.00    -0.332 N 
HETATM    3  C   UNL     1       5.442  27.608  54.645  1.00  0.00     0.278 A 
HETATM    4  O   UNL     1       5.153  26.695  53.893  1.00  0.00    -0.265 OA
HETATM    5  C   UNL     1       4.988  29.005  54.501  1.00  0.00     0.146 A 
HETATM    6  C   UNL     1       5.397  29.664  55.592  1.00  0.00     0.059 A 
ENDROOT
BRANCH   6   7
HETATM    7  C   UNL     1       5.088  31.087  55.872  1.00  0.00     0.194 C 
HETATM    8  O   UNL     1       5.052  31.936  54.992  1.00  0.00    -0.287 OA
BRANCH   7   9
HETATM    9  C   UNL     1       4.888  31.481  57.291  1.00  0.00     0.021 A 
HETATM   10  C   UNL     1       3.733  31.091  57.990  1.00  0.00    -0.045 A 
HETATM   11  C   UNL     1       2.714  30.154  57.404  1.00  0.00     0.049 C 
HETATM   12  C   UNL     1       3.547  31.574  59.295  1.00  0.00     0.044 A 
HETATM   13  C   UNL     1       4.473  32.436  59.888  1.00  0.00     0.069 A 
HETATM   14  C   UNL     1       5.651  32.755  59.218  1.00  0.00     0.038 A 
HETATM   15  C   UNL     1       5.864  32.269  57.925  1.00  0.00     0.019 A 
BRANCH  13  16
HETATM   16  O   UNL     1       4.143  32.870  61.140  1.00  0.00    -0.347 OA
BRANCH  16  17
HETATM   17  C   UNL     1       4.362  31.941  62.205  1.00  0.00     0.214 C 
BRANCH  17  18
HETATM   18  C   UNL     1       5.401  32.471  63.169  1.00  0.00    -0.034 A 
HETATM   19  C   UNL     1       6.763  32.260  62.900  1.00  0.00     0.009 A 
HETATM   20  C   UNL     1       7.744  32.773  63.750  1.00  0.00     0.001 A 
HETATM   21  C   UNL     1       7.380  33.508  64.876  1.00  0.00     0.000 A 
HETATM   22  C   UNL     1       6.034  33.735  65.150  1.00  0.00     0.001 A 
HETATM   23  C   UNL     1       5.051  33.225  64.299  1.00  0.00     0.009 A 
ENDBRANCH  17  18
ENDBRANCH  16  17
ENDBRANCH  13  16
ENDBRANCH   7   9
ENDBRANCH   6   7
BRANCH   1  24
HETATM   24  C   UNL     1       7.659  29.230  56.678  1.00  0.00    -0.028 A 
HETATM   25  C   UNL     1       8.576  29.159  55.610  1.00  0.00     0.012 A 
HETATM   26  C   UNL     1       9.915  29.489  55.802  1.00  0.00     0.040 A 
HETATM   27  C   UNL     1      10.338  29.900  57.057  1.00  0.00     0.099 A 
HETATM   28  C   UNL     1       9.450  30.018  58.128  1.00  0.00     0.102 A 
HETATM   29  C   UNL     1       8.110  29.677  57.936  1.00  0.00     0.049 A 
BRANCH  27  30
HETATM   30  O   UNL     1      11.664  30.187  57.221  1.00  0.00    -0.358 OA
HETATM   31  H   UNL     1      11.700  31.028  57.719  1.00  0.00     0.218 HD
ENDBRANCH  27  30
BRANCH  28  32
HETATM   32  O   UNL     1      10.014  30.429  59.305  1.00  0.00    -0.349 OA
BRANCH  32  33
HETATM   33  C   UNL     1       9.130  30.915  60.316  1.00  0.00     0.171 C 
HETATM   34  C   UNL     1       9.197  32.432  60.298  1.00  0.00     0.034 C 
ENDBRANCH  32  33
ENDBRANCH  28  32
ENDBRANCH   1  24
BRANCH   5  35
HETATM   35  O   UNL     1       4.212  29.436  53.471  1.00  0.00    -0.355 OA
HETATM   36  H   UNL     1       4.784  29.519  52.683  1.00  0.00     0.218 HD
ENDBRANCH   5  35
BRANCH   2  37
HETATM   37  C   UNL     1       6.201  26.255  56.557  1.00  0.00     0.155 C 
BRANCH  37  38
HETATM   38  C   UNL     1       7.574  25.562  56.573  1.00  0.00     0.255 C 
BRANCH  38  39
HETATM   39  N   UNL     1       7.554  24.251  55.802  1.00  0.00    -0.066 N 
HETATM   40  H   UNL     1       6.591  23.886  55.853  1.00  0.00     0.280 HD
HETATM   41  C   UNL     1       7.925  24.404  54.329  1.00  0.00     0.261 C 
HETATM   42  C   UNL     1       7.983  23.035  53.646  1.00  0.00     0.195 C 
HETATM   43  O   UNL     1       8.911  22.177  54.315  1.00  0.00    -0.388 OA
HETATM   44  C   UNL     1       8.506  21.927  55.664  1.00  0.00     0.195 C 
HETATM   45  C   UNL     1       8.473  23.227  56.472  1.00  0.00     0.261 C 
ENDBRANCH  38  39
ENDBRANCH  37  38
ENDBRANCH   2  37
TORSDOF 13
ENDMDL
MODEL 5
REMARK VINA RESULT:      -9.7      2.174      6.152
REMARK  13 active torsions:
REMARK  status: ('A' for Active; 'I' for Inactive)
REMARK    1  A    between atoms: C_2  and  O_3 
REMARK    2  A    between atoms: O_3  and  C_4 
REMARK    3  A    between atoms: C_5  and  O_6 
REMARK    4  A    between atoms: C_9  and  C_10 
REMARK    5  A    between atoms: N_11  and  C_12 
REMARK    6  A    between atoms: C_12  and  C_13 
REMARK    7  A    between atoms: C_13  and  N_14 
REMARK    8  A    between atoms: C_23  and  O_24 
REMARK    9  A    between atoms: C_25  and  C_26 
REMARK   10  A    between atoms: C_26  and  C_27 
REMARK   11  A    between atoms: C_31  and  O_32 
REMARK   12  A    between atoms: O_32  and  C_33 
REMARK   13  A    between atoms: C_33  and  C_34 
ROOT
HETATM    1  C   UNL     1       5.197  26.293  53.512  1.00  0.00     0.161 A 
HETATM    2  N   UNL     1       5.201  26.959  52.216  1.00  0.00    -0.332 N 
HETATM    3  C   UNL     1       5.405  28.322  52.376  1.00  0.00     0.278 A 
HETATM    4  O   UNL     1       5.378  29.167  51.501  1.00  0.00    -0.265 OA
HETATM    5  C   UNL     1       5.581  28.594  53.816  1.00  0.00     0.146 A 
HETATM    6  C   UNL     1       5.413  27.432  54.458  1.00  0.00     0.059 A 
ENDROOT
BRANCH   6   7
HETATM    7  C   UNL     1       5.444  27.281  55.934  1.00  0.00     0.194 C 
HETATM    8  O   UNL     1       4.586  26.662  56.548  1.00  0.00    -0.287 OA
BRANCH   7   9
HETATM    9  C   UNL     1       6.530  27.976  56.673  1.00  0.00     0.021 A 
HETATM   10  C   UNL     1       6.266  29.145  57.408  1.00  0.00    -0.045 A 
HETATM   11  C   UNL     1       4.873  29.676  57.603  1.00  0.00     0.049 C 
HETATM   12  C   UNL     1       7.344  29.817  58.004  1.00  0.00     0.044 A 
HETATM   13  C   UNL     1       8.655  29.353  57.863  1.00  0.00     0.069 A 
HETATM   14  C   UNL     1       8.898  28.154  57.200  1.00  0.00     0.038 A 
HETATM   15  C   UNL     1       7.835  27.460  56.614  1.00  0.00     0.019 A 
BRANCH  13  16
HETATM   16  O   UNL     1       9.611  30.130  58.451  1.00  0.00    -0.347 OA
BRANCH  16  17
HETATM   17  C   UNL     1       9.221  31.465  58.782  1.00  0.00     0.214 C 
BRANCH  17  18
HETATM   18  C   UNL     1       8.846  31.565  60.244  1.00  0.00    -0.034 A 
HETATM   19  C   UNL     1       8.067  32.645  60.685  1.00  0.00     0.009 A 
HETATM   20  C   UNL     1       7.672  32.740  62.022  1.00  0.00     0.001 A 
HETATM   21  C   UNL     1       8.044  31.755  62.933  1.00  0.00     0.000 A 
HETATM   22  C   UNL     1       8.808  30.671  62.508  1.00  0.00     0.001 A 
HETATM   23  C   UNL     1       9.202  30.573  61.172  1.00  0.00     0.009 A 
ENDBRANCH  17  18
ENDBRANCH  16  17
ENDBRANCH  13  16
ENDBRANCH   7   9
ENDBRANCH   6   7
BRANCH   1  24
HETATM   24  C   UNL     1       6.275  25.224  53.528  1.00  0.00    -0.028 A 
HETATM   25  C   UNL     1       7.275  25.186  52.536  1.00  0.00     0.012 A 
HETATM   26  C   UNL     1       8.217  24.162  52.516  1.00  0.00     0.040 A 
HETATM   27  C   UNL     1       8.168  23.179  53.493  1.00  0.00     0.099 A 
HETATM   28  C   UNL     1       7.214  23.205  54.513  1.00  0.00     0.102 A 
HETATM   29  C   UNL     1       6.264  24.228  54.525  1.00  0.00     0.049 A 
BRANCH  27  30
HETATM   30  O   UNL     1       9.087  22.170  53.429  1.00  0.00    -0.358 OA
HETATM   31  H   UNL     1       8.747  21.456  54.006  1.00  0.00     0.218 HD
ENDBRANCH  27  30
BRANCH  28  32
HETATM   32  O   UNL     1       7.287  22.166  55.401  1.00  0.00    -0.349 OA
BRANCH  32  33
HETATM   33  C   UNL     1       8.294  22.241  56.411  1.00  0.00     0.171 C 
HETATM   34  C   UNL     1       8.754  20.826  56.712  1.00  0.00     0.034 C 
ENDBRANCH  32  33
ENDBRANCH  28  32
ENDBRANCH   1  24
BRANCH   5  35
HETATM   35  O   UNL     1       5.773  29.841  54.323  1.00  0.00    -0.355 OA
HETATM   36  H   UNL     1       6.325  30.339  53.689  1.00  0.00     0.218 HD
ENDBRANCH   5  35
BRANCH   2  37
HETATM   37  C   UNL     1       4.385  26.475  51.108  1.00  0.00     0.155 C 
BRANCH  37  38
HETATM   38  C   UNL     1       5.063  26.595  49.734  1.00  0.00     0.255 C 
BRANCH  38  39
HETATM   39  N   UNL     1       4.063  26.921  48.636  1.00  0.00    -0.066 N 
HETATM   40  H   UNL     1       4.592  27.358  47.866  1.00  0.00     0.280 HD
HETATM   41  C   UNL     1       3.347  25.692  48.079  1.00  0.00     0.261 C 
HETATM   42  C   UNL     1       2.287  26.108  47.054  1.00  0.00     0.195 C 
HETATM   43  O   UNL     1       1.351  27.017  47.639  1.00  0.00    -0.388 OA
HETATM   44  C   UNL     1       1.994  28.227  48.054  1.00  0.00     0.195 C 
HETATM   45  C   UNL     1       3.040  27.944  49.135  1.00  0.00     0.261 C 
ENDBRANCH  38  39
ENDBRANCH  37  38
ENDBRANCH   2  37
TORSDOF 13
ENDMDL
MODEL 6
REMARK VINA RESULT:      -9.6      5.494     10.301
REMARK  13 active torsions:
REMARK  status: ('A' for Active; 'I' for Inactive)
REMARK    1  A    between atoms: C_2  and  O_3 
REMARK    2  A    between atoms: O_3  and  C_4 
REMARK    3  A    between atoms: C_5  and  O_6 
REMARK    4  A    between atoms: C_9  and  C_10 
REMARK    5  A    between atoms: N_11  and  C_12 
REMARK    6  A    between atoms: C_12  and  C_13 
REMARK    7  A    between atoms: C_13  and  N_14 
REMARK    8  A    between atoms: C_23  and  O_24 
REMARK    9  A    between atoms: C_25  and  C_26 
REMARK   10  A    between atoms: C_26  and  C_27 
REMARK   11  A    between atoms: C_31  and  O_32 
REMARK   12  A    between atoms: O_32  and  C_33 
REMARK   13  A    between atoms: C_33  and  C_34 
ROOT
HETATM    1  C   UNL     1       3.704  29.411  49.469  1.00  0.00     0.161 A 
HETATM    2  N   UNL     1       4.768  30.173  48.829  1.00  0.00    -0.332 N 
HETATM    3  C   UNL     1       5.846  30.313  49.692  1.00  0.00     0.278 A 
HETATM    4  O   UNL     1       6.854  30.965  49.494  1.00  0.00    -0.265 OA
HETATM    5  C   UNL     1       5.528  29.597  50.943  1.00  0.00     0.146 A 
HETATM    6  C   UNL     1       4.282  29.126  50.819  1.00  0.00     0.059 A 
ENDROOT
BRANCH   6   7
HETATM    7  C   UNL     1       3.554  28.398  51.888  1.00  0.00     0.194 C 
HETATM    8  O   UNL     1       2.401  28.666  52.196  1.00  0.00    -0.287 OA
BRANCH   7   9
HETATM    9  C   UNL     1       4.301  27.358  52.643  1.00  0.00     0.021 A 
HETATM   10  C   UNL     1       4.686  27.575  53.977  1.00  0.00    -0.045 A 
HETATM   11  C   UNL     1       4.254  28.788  54.753  1.00  0.00     0.049 C 
HETATM   12  C   UNL     1       5.475  26.603  54.611  1.00  0.00     0.044 A 
HETATM   13  C   UNL     1       5.889  25.452  53.935  1.00  0.00     0.069 A 
HETATM   14  C   UNL     1       5.440  25.209  52.641  1.00  0.00     0.038 A 
HETATM   15  C   UNL     1       4.638  26.156  51.998  1.00  0.00     0.019 A 
BRANCH  13  16
HETATM   16  O   UNL     1       6.695  24.616  54.653  1.00  0.00    -0.347 OA
BRANCH  16  17
HETATM   17  C   UNL     1       7.961  24.304  54.066  1.00  0.00     0.214 C 
BRANCH  17  18
HETATM   18  C   UNL     1       8.233  22.818  54.143  1.00  0.00    -0.034 A 
HETATM   19  C   UNL     1       8.708  22.264  55.342  1.00  0.00     0.009 A 
HETATM   20  C   UNL     1       8.928  20.890  55.454  1.00  0.00     0.001 A 
HETATM   21  C   UNL     1       8.672  20.050  54.373  1.00  0.00     0.000 A 
HETATM   22  C   UNL     1       8.191  20.583  53.180  1.00  0.00     0.001 A 
HETATM   23  C   UNL     1       7.968  21.957  53.067  1.00  0.00     0.009 A 
ENDBRANCH  17  18
ENDBRANCH  16  17
ENDBRANCH  13  16
ENDBRANCH   7   9
ENDBRANCH   6   7
BRANCH   1  24
HETATM   24  C   UNL     1       3.391  28.187  48.626  1.00  0.00    -0.028 A 
HETATM   25  C   UNL     1       4.322  27.137  48.496  1.00  0.00     0.012 A 
HETATM   26  C   UNL     1       4.057  26.052  47.665  1.00  0.00     0.040 A 
HETATM   27  C   UNL     1       2.857  26.009  46.971  1.00  0.00     0.099 A 
HETATM   28  C   UNL     1       1.895  27.013  47.105  1.00  0.00     0.102 A 
HETATM   29  C   UNL     1       2.168  28.105  47.931  1.00  0.00     0.049 A 
BRANCH  27  30
HETATM   30  O   UNL     1       2.640  24.947  46.139  1.00  0.00    -0.358 OA
HETATM   31  H   UNL     1       1.755  24.599  46.370  1.00  0.00     0.218 HD
ENDBRANCH  27  30
BRANCH  28  32
HETATM   32  O   UNL     1       0.766  26.836  46.353  1.00  0.00    -0.349 OA
BRANCH  32  33
HETATM   33  C   UNL     1      -0.250  27.835  46.458  1.00  0.00     0.171 C 
HETATM   34  C   UNL     1      -0.678  28.208  45.050  1.00  0.00     0.034 C 
ENDBRANCH  32  33
ENDBRANCH  28  32
ENDBRANCH   1  24
BRANCH   5  35
HETATM   35  O   UNL     1       6.364  29.559  52.016  1.00  0.00    -0.355 OA
HETATM   36  H   UNL     1       7.233  29.898  51.727  1.00  0.00     0.218 HD
ENDBRANCH   5  35
BRANCH   2  37
HETATM   37  C   UNL     1       4.476  31.225  47.861  1.00  0.00     0.155 C 
BRANCH  37  38
HETATM   38  C   UNL     1       4.610  30.779  46.396  1.00  0.00     0.255 C 
BRANCH  38  39
HETATM   39  N   UNL     1       5.288  31.840  45.542  1.00  0.00    -0.066 N 
HETATM   40  H   UNL     1       6.118  31.399  45.116  1.00  0.00     0.280 HD
HETATM   41  C   UNL     1       4.405  32.373  44.416  1.00  0.00     0.261 C 
HETATM   42  C   UNL     1       5.117  33.504  43.667  1.00  0.00     0.195 C 
HETATM   43  O   UNL     1       5.477  34.555  44.568  1.00  0.00    -0.388 OA
HETATM   44  C   UNL     1       6.404  34.094  45.557  1.00  0.00     0.195 C 
HETATM   45  C   UNL     1       5.777  32.995  46.419  1.00  0.00     0.261 C 
ENDBRANCH  38  39
ENDBRANCH  37  38
ENDBRANCH   2  37
TORSDOF 13
ENDMDL
MODEL 7
REMARK VINA RESULT:      -9.5      3.595     10.377
REMARK  13 active torsions:
REMARK  status: ('A' for Active; 'I' for Inactive)
REMARK    1  A    between atoms: C_2  and  O_3 
REMARK    2  A    between atoms: O_3  and  C_4 
REMARK    3  A    between atoms: C_5  and  O_6 
REMARK    4  A    between atoms: C_9  and  C_10 
REMARK    5  A    between atoms: N_11  and  C_12 
REMARK    6  A    between atoms: C_12  and  C_13 
REMARK    7  A    between atoms: C_13  and  N_14 
REMARK    8  A    between atoms: C_23  and  O_24 
REMARK    9  A    between atoms: C_25  and  C_26 
REMARK   10  A    between atoms: C_26  and  C_27 
REMARK   11  A    between atoms: C_31  and  O_32 
REMARK   12  A    between atoms: O_32  and  C_33 
REMARK   13  A    between atoms: C_33  and  C_34 
ROOT
HETATM    1  C   UNL     1       7.452  30.562  58.847  1.00  0.00     0.161 A 
HETATM    2  N   UNL     1       8.431  31.629  59.012  1.00  0.00    -0.332 N 
HETATM    3  C   UNL     1       9.595  31.325  58.322  1.00  0.00     0.278 A 
HETATM    4  O   UNL     1      10.630  31.967  58.326  1.00  0.00    -0.265 OA
HETATM    5  C   UNL     1       9.399  30.034  57.635  1.00  0.00     0.146 A 
HETATM    6  C   UNL     1       8.186  29.586  57.982  1.00  0.00     0.059 A 
ENDROOT
BRANCH   6   7
HETATM    7  C   UNL     1       7.625  28.280  57.556  1.00  0.00     0.194 C 
HETATM    8  O   UNL     1       7.673  27.284  58.263  1.00  0.00    -0.287 OA
BRANCH   7   9
HETATM    9  C   UNL     1       7.053  28.191  56.187  1.00  0.00     0.021 A 
HETATM   10  C   UNL     1       5.668  28.039  55.995  1.00  0.00    -0.045 A 
HETATM   11  C   UNL     1       4.686  28.097  57.132  1.00  0.00     0.049 C 
HETATM   12  C   UNL     1       5.191  27.859  54.687  1.00  0.00     0.044 A 
HETATM   13  C   UNL     1       6.065  27.813  53.597  1.00  0.00     0.069 A 
HETATM   14  C   UNL     1       7.424  28.041  53.788  1.00  0.00     0.038 A 
HETATM   15  C   UNL     1       7.917  28.241  55.081  1.00  0.00     0.019 A 
BRANCH  13  16
HETATM   16  O   UNL     1       5.472  27.581  52.389  1.00  0.00    -0.347 OA
BRANCH  16  17
HETATM   17  C   UNL     1       5.628  28.607  51.405  1.00  0.00     0.214 C 
BRANCH  17  18
HETATM   18  C   UNL     1       5.207  28.106  50.041  1.00  0.00    -0.034 A 
HETATM   19  C   UNL     1       5.356  28.941  48.923  1.00  0.00     0.009 A 
HETATM   20  C   UNL     1       5.014  28.490  47.646  1.00  0.00     0.001 A 
HETATM   21  C   UNL     1       4.526  27.197  47.469  1.00  0.00     0.000 A 
HETATM   22  C   UNL     1       4.384  26.354  48.567  1.00  0.00     0.001 A 
HETATM   23  C   UNL     1       4.727  26.802  49.844  1.00  0.00     0.009 A 
ENDBRANCH  17  18
ENDBRANCH  16  17
ENDBRANCH  13  16
ENDBRANCH   7   9
ENDBRANCH   6   7
BRANCH   1  24
HETATM   24  C   UNL     1       6.184  31.137  58.242  1.00  0.00    -0.028 A 
HETATM   25  C   UNL     1       6.092  31.400  56.861  1.00  0.00     0.012 A 
HETATM   26  C   UNL     1       4.951  31.993  56.325  1.00  0.00     0.040 A 
HETATM   27  C   UNL     1       3.898  32.316  57.167  1.00  0.00     0.099 A 
HETATM   28  C   UNL     1       3.940  32.037  58.535  1.00  0.00     0.102 A 
HETATM   29  C   UNL     1       5.088  31.451  59.071  1.00  0.00     0.049 A 
BRANCH  27  30
HETATM   30  O   UNL     1       2.806  32.926  56.618  1.00  0.00    -0.358 OA
HETATM   31  H   UNL     1       2.044  32.344  56.810  1.00  0.00     0.218 HD
ENDBRANCH  27  30
BRANCH  28  32
HETATM   32  O   UNL     1       2.829  32.418  59.238  1.00  0.00    -0.349 OA
BRANCH  32  33
HETATM   33  C   UNL     1       3.038  33.225  60.398  1.00  0.00     0.171 C 
HETATM   34  C   UNL     1       3.061  34.676  59.953  1.00  0.00     0.034 C 
ENDBRANCH  32  33
ENDBRANCH  28  32
ENDBRANCH   1  24
BRANCH   5  35
HETATM   35  O   UNL     1      10.362  29.430  56.889  1.00  0.00    -0.355 OA
HETATM   36  H   UNL     1      11.141  30.020  56.874  1.00  0.00     0.218 HD
ENDBRANCH   5  35
BRANCH   2  37
HETATM   37  C   UNL     1       8.501  32.414  60.240  1.00  0.00     0.155 C 
BRANCH  37  38
HETATM   38  C   UNL     1       7.974  31.677  61.483  1.00  0.00     0.255 C 
BRANCH  38  39
HETATM   39  N   UNL     1       7.199  32.606  62.404  1.00  0.00    -0.066 N 
HETATM   40  H   UNL     1       7.143  33.521  61.932  1.00  0.00     0.280 HD
HETATM   41  C   UNL     1       5.776  32.133  62.690  1.00  0.00     0.261 C 
HETATM   42  C   UNL     1       5.096  33.061  63.701  1.00  0.00     0.195 C 
HETATM   43  O   UNL     1       5.857  33.132  64.909  1.00  0.00    -0.388 OA
HETATM   44  C   UNL     1       7.153  33.690  64.673  1.00  0.00     0.195 C 
HETATM   45  C   UNL     1       7.960  32.807  63.717  1.00  0.00     0.261 C 
ENDBRANCH  38  39
ENDBRANCH  37  38
ENDBRANCH   2  37
TORSDOF 13
ENDMDL
MODEL 8
REMARK VINA RESULT:      -9.5      3.276     10.556
REMARK  13 active torsions:
REMARK  status: ('A' for Active; 'I' for Inactive)
REMARK    1  A    between atoms: C_2  and  O_3 
REMARK    2  A    between atoms: O_3  and  C_4 
REMARK    3  A    between atoms: C_5  and  O_6 
REMARK    4  A    between atoms: C_9  and  C_10 
REMARK    5  A    between atoms: N_11  and  C_12 
REMARK    6  A    between atoms: C_12  and  C_13 
REMARK    7  A    between atoms: C_13  and  N_14 
REMARK    8  A    between atoms: C_23  and  O_24 
REMARK    9  A    between atoms: C_25  and  C_26 
REMARK   10  A    between atoms: C_26  and  C_27 
REMARK   11  A    between atoms: C_31  and  O_32 
REMARK   12  A    between atoms: O_32  and  C_33 
REMARK   13  A    between atoms: C_33  and  C_34 
ROOT
HETATM    1  C   UNL     1       6.785  31.045  59.109  1.00  0.00     0.161 A 
HETATM    2  N   UNL     1       7.957  31.877  59.346  1.00  0.00    -0.332 N 
HETATM    3  C   UNL     1       8.984  31.518  58.485  1.00  0.00     0.278 A 
HETATM    4  O   UNL     1      10.118  31.961  58.484  1.00  0.00    -0.265 OA
HETATM    5  C   UNL     1       8.493  30.436  57.609  1.00  0.00     0.146 A 
HETATM    6  C   UNL     1       7.249  30.144  58.009  1.00  0.00     0.059 A 
ENDROOT
BRANCH   6   7
HETATM    7  C   UNL     1       6.419  29.060  57.427  1.00  0.00     0.194 C 
HETATM    8  O   UNL     1       5.211  29.172  57.267  1.00  0.00    -0.287 OA
BRANCH   7   9
HETATM    9  C   UNL     1       7.093  27.776  57.102  1.00  0.00     0.021 A 
HETATM   10  C   UNL     1       7.189  27.330  55.772  1.00  0.00    -0.045 A 
HETATM   11  C   UNL     1       6.750  28.173  54.607  1.00  0.00     0.049 C 
HETATM   12  C   UNL     1       7.746  26.065  55.531  1.00  0.00     0.044 A 
HETATM   13  C   UNL     1       8.182  25.252  56.581  1.00  0.00     0.069 A 
HETATM   14  C   UNL     1       8.154  25.733  57.887  1.00  0.00     0.038 A 
HETATM   15  C   UNL     1       7.620  26.998  58.147  1.00  0.00     0.019 A 
BRANCH  13  16
HETATM   16  O   UNL     1       8.654  24.027  56.208  1.00  0.00    -0.347 OA
BRANCH  16  17
HETATM   17  C   UNL     1       7.712  22.952  56.244  1.00  0.00     0.214 C 
BRANCH  17  18
HETATM   18  C   UNL     1       7.945  21.999  55.092  1.00  0.00    -0.034 A 
HETATM   19  C   UNL     1       7.665  22.419  53.783  1.00  0.00     0.009 A 
HETATM   20  C   UNL     1       7.909  21.575  52.696  1.00  0.00     0.001 A 
HETATM   21  C   UNL     1       8.442  20.305  52.904  1.00  0.00     0.000 A 
HETATM   22  C   UNL     1       8.735  19.879  54.196  1.00  0.00     0.001 A 
HETATM   23  C   UNL     1       8.494  20.722  55.283  1.00  0.00     0.009 A 
ENDBRANCH  17  18
ENDBRANCH  16  17
ENDBRANCH  13  16
ENDBRANCH   7   9
ENDBRANCH   6   7
BRANCH   1  24
HETATM   24  C   UNL     1       5.603  31.934  58.763  1.00  0.00    -0.028 A 
HETATM   25  C   UNL     1       5.563  32.649  57.549  1.00  0.00     0.012 A 
HETATM   26  C   UNL     1       4.510  33.517  57.272  1.00  0.00     0.040 A 
HETATM   27  C   UNL     1       3.491  33.664  58.201  1.00  0.00     0.099 A 
HETATM   28  C   UNL     1       3.479  32.943  59.397  1.00  0.00     0.102 A 
HETATM   29  C   UNL     1       4.541  32.081  59.678  1.00  0.00     0.049 A 
BRANCH  27  30
HETATM   30  O   UNL     1       2.489  34.546  57.913  1.00  0.00    -0.358 OA
HETATM   31  H   UNL     1       2.659  35.338  58.461  1.00  0.00     0.218 HD
ENDBRANCH  27  30
BRANCH  28  32
HETATM   32  O   UNL     1       2.413  33.198  60.216  1.00  0.00    -0.349 OA
BRANCH  32  33
HETATM   33  C   UNL     1       2.679  33.896  61.433  1.00  0.00     0.171 C 
HETATM   34  C   UNL     1       1.822  35.149  61.444  1.00  0.00     0.034 C 
ENDBRANCH  32  33
ENDBRANCH  28  32
ENDBRANCH   1  24
BRANCH   5  35
HETATM   35  O   UNL     1       9.261  29.832  56.664  1.00  0.00    -0.355 OA
HETATM   36  H   UNL     1       8.691  29.215  56.167  1.00  0.00     0.218 HD
ENDBRANCH   5  35
BRANCH   2  37
HETATM   37  C   UNL     1       8.272  32.387  60.676  1.00  0.00     0.155 C 
BRANCH  37  38
HETATM   38  C   UNL     1       7.502  31.690  61.810  1.00  0.00     0.255 C 
BRANCH  38  39
HETATM   39  N   UNL     1       6.896  32.692  62.781  1.00  0.00    -0.066 N 
HETATM   40  H   UNL     1       6.800  33.585  62.272  1.00  0.00     0.280 HD
HETATM   41  C   UNL     1       5.515  32.288  63.291  1.00  0.00     0.261 C 
HETATM   42  C   UNL     1       5.016  33.291  64.337  1.00  0.00     0.195 C 
HETATM   43  O   UNL     1       5.945  33.393  65.419  1.00  0.00    -0.388 OA
HETATM   44  C   UNL     1       7.211  33.890  64.970  1.00  0.00     0.195 C 
HETATM   45  C   UNL     1       7.844  32.930  63.959  1.00  0.00     0.261 C 
ENDBRANCH  38  39
ENDBRANCH  37  38
ENDBRANCH   2  37
TORSDOF 13
ENDMDL
MODEL 9
REMARK VINA RESULT:      -9.4      2.062      5.660
REMARK  13 active torsions:
REMARK  status: ('A' for Active; 'I' for Inactive)
REMARK    1  A    between atoms: C_2  and  O_3 
REMARK    2  A    between atoms: O_3  and  C_4 
REMARK    3  A    between atoms: C_5  and  O_6 
REMARK    4  A    between atoms: C_9  and  C_10 
REMARK    5  A    between atoms: N_11  and  C_12 
REMARK    6  A    between atoms: C_12  and  C_13 
REMARK    7  A    between atoms: C_13  and  N_14 
REMARK    8  A    between atoms: C_23  and  O_24 
REMARK    9  A    between atoms: C_25  and  C_26 
REMARK   10  A    between atoms: C_26  and  C_27 
REMARK   11  A    between atoms: C_31  and  O_32 
REMARK   12  A    between atoms: O_32  and  C_33 
REMARK   13  A    between atoms: C_33  and  C_34 
ROOT
HETATM    1  C   UNL     1       5.337  26.216  54.372  1.00  0.00     0.161 A 
HETATM    2  N   UNL     1       5.457  26.633  52.982  1.00  0.00    -0.332 N 
HETATM    3  C   UNL     1       5.580  28.013  52.903  1.00  0.00     0.278 A 
HETATM    4  O   UNL     1       5.614  28.681  51.886  1.00  0.00    -0.265 OA
HETATM    5  C   UNL     1       5.580  28.554  54.276  1.00  0.00     0.146 A 
HETATM    6  C   UNL     1       5.394  27.519  55.104  1.00  0.00     0.059 A 
ENDROOT
BRANCH   6   7
HETATM    7  C   UNL     1       5.265  27.642  56.577  1.00  0.00     0.194 C 
HETATM    8  O   UNL     1       4.515  26.931  57.232  1.00  0.00    -0.287 OA
BRANCH   7   9
HETATM    9  C   UNL     1       6.035  28.723  57.247  1.00  0.00     0.021 A 
HETATM   10  C   UNL     1       5.417  29.938  57.592  1.00  0.00    -0.045 A 
HETATM   11  C   UNL     1       3.939  30.163  57.436  1.00  0.00     0.049 C 
HETATM   12  C   UNL     1       6.212  30.961  58.131  1.00  0.00     0.044 A 
HETATM   13  C   UNL     1       7.588  30.794  58.308  1.00  0.00     0.069 A 
HETATM   14  C   UNL     1       8.177  29.562  58.036  1.00  0.00     0.038 A 
HETATM   15  C   UNL     1       7.399  28.524  57.516  1.00  0.00     0.019 A 
BRANCH  13  16
HETATM   16  O   UNL     1       8.247  31.887  58.792  1.00  0.00    -0.347 OA
BRANCH  16  17
HETATM   17  C   UNL     1       9.006  31.684  59.987  1.00  0.00     0.214 C 
BRANCH  17  18
HETATM   18  C   UNL     1       8.298  32.292  61.178  1.00  0.00    -0.034 A 
HETATM   19  C   UNL     1       7.175  33.108  60.971  1.00  0.00     0.009 A 
HETATM   20  C   UNL     1       6.477  33.648  62.054  1.00  0.00     0.001 A 
HETATM   21  C   UNL     1       6.888  33.375  63.356  1.00  0.00     0.000 A 
HETATM   22  C   UNL     1       7.994  32.559  63.578  1.00  0.00     0.001 A 
HETATM   23  C   UNL     1       8.691  32.016  62.497  1.00  0.00     0.009 A 
ENDBRANCH  17  18
ENDBRANCH  16  17
ENDBRANCH  13  16
ENDBRANCH   7   9
ENDBRANCH   6   7
BRANCH   1  24
HETATM   24  C   UNL     1       6.453  25.240  54.699  1.00  0.00    -0.028 A 
HETATM   25  C   UNL     1       7.083  25.252  55.960  1.00  0.00     0.012 A 
HETATM   26  C   UNL     1       8.153  24.403  56.227  1.00  0.00     0.040 A 
HETATM   27  C   UNL     1       8.590  23.534  55.239  1.00  0.00     0.099 A 
HETATM   28  C   UNL     1       7.966  23.468  53.991  1.00  0.00     0.102 A 
HETATM   29  C   UNL     1       6.899  24.327  53.722  1.00  0.00     0.049 A 
BRANCH  27  30
HETATM   30  O   UNL     1       9.662  22.735  55.520  1.00  0.00    -0.358 OA
HETATM   31  H   UNL     1      10.422  23.337  55.651  1.00  0.00     0.218 HD
ENDBRANCH  27  30
BRANCH  28  32
HETATM   32  O   UNL     1       8.512  22.566  53.118  1.00  0.00    -0.349 OA
BRANCH  32  33
HETATM   33  C   UNL     1       7.791  21.353  52.899  1.00  0.00     0.171 C 
HETATM   34  C   UNL     1       8.717  20.198  53.236  1.00  0.00     0.034 C 
ENDBRANCH  32  33
ENDBRANCH  28  32
ENDBRANCH   1  24
BRANCH   5  35
HETATM   35  O   UNL     1       5.658  29.882  54.556  1.00  0.00    -0.355 OA
HETATM   36  H   UNL     1       4.746  30.217  54.661  1.00  0.00     0.218 HD
ENDBRANCH   5  35
BRANCH   2  37
HETATM   37  C   UNL     1       4.793  25.903  51.907  1.00  0.00     0.155 C 
BRANCH  37  38
HETATM   38  C   UNL     1       5.388  26.165  50.514  1.00  0.00     0.255 C 
BRANCH  38  39
HETATM   39  N   UNL     1       4.336  26.661  49.533  1.00  0.00    -0.066 N 
HETATM   40  H   UNL     1       3.596  27.116  50.090  1.00  0.00     0.280 HD
HETATM   41  C   UNL     1       4.869  27.682  48.531  1.00  0.00     0.261 C 
HETATM   42  C   UNL     1       3.783  28.056  47.518  1.00  0.00     0.195 C 
HETATM   43  O   UNL     1       3.301  26.890  46.845  1.00  0.00    -0.388 OA
HETATM   44  C   UNL     1       2.686  25.979  47.762  1.00  0.00     0.195 C 
HETATM   45  C   UNL     1       3.701  25.481  48.795  1.00  0.00     0.261 C 
ENDBRANCH  38  39
ENDBRANCH  37  38
ENDBRANCH   2  37
TORSDOF 13
ENDMDL
MODEL 10
REMARK VINA RESULT:      -9.4      3.272      9.775
REMARK  13 active torsions:
REMARK  status: ('A' for Active; 'I' for Inactive)
REMARK    1  A    between atoms: C_2  and  O_3 
REMARK    2  A    between atoms: O_3  and  C_4 
REMARK    3  A    between atoms: C_5  and  O_6 
REMARK    4  A    between atoms: C_9  and  C_10 
REMARK    5  A    between atoms: N_11  and  C_12 
REMARK    6  A    between atoms: C_12  and  C_13 
REMARK    7  A    between atoms: C_13  and  N_14 
REMARK    8  A    between atoms: C_23  and  O_24 
REMARK    9  A    between atoms: C_25  and  C_26 
REMARK   10  A    between atoms: C_26  and  C_27 
REMARK   11  A    between atoms: C_31  and  O_32 
REMARK   12  A    between atoms: O_32  and  C_33 
REMARK   13  A    between atoms: C_33  and  C_34 
ROOT
HETATM    1  C   UNL     1       7.294  29.996  58.354  1.00  0.00     0.161 A 
HETATM    2  N   UNL     1       8.065  31.208  58.596  1.00  0.00    -0.332 N 
HETATM    3  C   UNL     1       9.358  31.060  58.117  1.00  0.00     0.278 A 
HETATM    4  O   UNL     1      10.272  31.855  58.238  1.00  0.00    -0.265 OA
HETATM    5  C   UNL     1       9.468  29.725  57.496  1.00  0.00     0.146 A 
HETATM    6  C   UNL     1       8.294  29.110  57.681  1.00  0.00     0.059 A 
ENDROOT
BRANCH   6   7
HETATM    7  C   UNL     1       8.007  27.716  57.262  1.00  0.00     0.194 C 
HETATM    8  O   UNL     1       8.394  26.746  57.901  1.00  0.00    -0.287 OA
BRANCH   7   9
HETATM    9  C   UNL     1       7.282  27.518  55.980  1.00  0.00     0.021 A 
HETATM   10  C   UNL     1       6.202  26.623  55.896  1.00  0.00    -0.045 A 
HETATM   11  C   UNL     1       5.633  25.930  57.103  1.00  0.00     0.049 C 
HETATM   12  C   UNL     1       5.617  26.398  54.640  1.00  0.00     0.044 A 
HETATM   13  C   UNL     1       6.101  27.030  53.491  1.00  0.00     0.069 A 
HETATM   14  C   UNL     1       7.121  27.972  53.596  1.00  0.00     0.038 A 
HETATM   15  C   UNL     1       7.704  28.224  54.841  1.00  0.00     0.019 A 
BRANCH  13  16
HETATM   16  O   UNL     1       5.474  26.682  52.330  1.00  0.00    -0.347 OA
BRANCH  16  17
HETATM   17  C   UNL     1       4.694  27.705  51.705  1.00  0.00     0.214 C 
BRANCH  17  18
HETATM   18  C   UNL     1       4.870  27.668  50.203  1.00  0.00    -0.034 A 
HETATM   19  C   UNL     1       4.537  26.501  49.498  1.00  0.00     0.009 A 
HETATM   20  C   UNL     1       4.650  26.452  48.107  1.00  0.00     0.001 A 
HETATM   21  C   UNL     1       5.090  27.570  47.402  1.00  0.00     0.000 A 
HETATM   22  C   UNL     1       5.413  28.738  48.086  1.00  0.00     0.001 A 
HETATM   23  C   UNL     1       5.299  28.789  49.477  1.00  0.00     0.009 A 
ENDBRANCH  17  18
ENDBRANCH  16  17
ENDBRANCH  13  16
ENDBRANCH   7   9
ENDBRANCH   6   7
BRANCH   1  24
HETATM   24  C   UNL     1       6.070  30.340  57.524  1.00  0.00    -0.028 A 
HETATM   25  C   UNL     1       4.913  29.537  57.567  1.00  0.00     0.012 A 
HETATM   26  C   UNL     1       3.822  29.819  56.749  1.00  0.00     0.040 A 
HETATM   27  C   UNL     1       3.882  30.908  55.893  1.00  0.00     0.099 A 
HETATM   28  C   UNL     1       4.997  31.748  55.851  1.00  0.00     0.102 A 
HETATM   29  C   UNL     1       6.094  31.458  56.665  1.00  0.00     0.049 A 
BRANCH  27  30
HETATM   30  O   UNL     1       2.808  31.140  55.081  1.00  0.00    -0.358 OA
HETATM   31  H   UNL     1       2.699  30.334  54.538  1.00  0.00     0.218 HD
ENDBRANCH  27  30
BRANCH  28  32
HETATM   32  O   UNL     1       4.912  32.778  54.954  1.00  0.00    -0.349 OA
BRANCH  32  33
HETATM   33  C   UNL     1       5.026  34.104  55.472  1.00  0.00     0.171 C 
HETATM   34  C   UNL     1       3.664  34.510  56.004  1.00  0.00     0.034 C 
ENDBRANCH  32  33
ENDBRANCH  28  32
ENDBRANCH   1  24
BRANCH   5  35
HETATM   35  O   UNL     1      10.618  29.247  56.950  1.00  0.00    -0.355 OA
HETATM   36  H   UNL     1      11.264  29.131  57.674  1.00  0.00     0.218 HD
ENDBRANCH   5  35
BRANCH   2  37
HETATM   37  C   UNL     1       7.818  32.047  59.765  1.00  0.00     0.155 C 
BRANCH  37  38
HETATM   38  C   UNL     1       7.753  31.269  61.089  1.00  0.00     0.255 C 
BRANCH  38  39
HETATM   39  N   UNL     1       6.488  31.587  61.871  1.00  0.00    -0.066 N 
HETATM   40  H   UNL     1       6.076  30.685  62.157  1.00  0.00     0.280 HD
HETATM   41  C   UNL     1       6.740  32.413  63.130  1.00  0.00     0.261 C 
HETATM   42  C   UNL     1       5.415  32.778  63.805  1.00  0.00     0.195 C 
HETATM   43  O   UNL     1       4.566  33.485  62.898  1.00  0.00    -0.388 OA
HETATM   44  C   UNL     1       4.222  32.674  61.770  1.00  0.00     0.195 C 
HETATM   45  C   UNL     1       5.472  32.295  60.972  1.00  0.00     0.261 C 
ENDBRANCH  38  39
ENDBRANCH  37  38
ENDBRANCH   2  37
TORSDOF 13
ENDMDL
