MODEL 1
REMARK VINA RESULT:     -10.4      0.000      0.000
REMARK  7 active torsions:
REMARK  status: ('A' for Active; 'I' for Inactive)
REMARK    1  A    between atoms: C_8  and  C_9 
REMARK    2  A    between atoms: C_9  and  C_10 
REMARK    3  A    between atoms: C_10  and  N_11 
REMARK       I    between atoms: N_11  and  C_12 
REMARK    4  A    between atoms: C_12  and  C_13 
REMARK    5  A    between atoms: C_13  and  C_14 
REMARK    6  A    between atoms: C_14  and  C_15 
REMARK    7  A    between atoms: C_15  and  N_16 
ROOT
HETATM    1  C   UNL     1       9.809  29.105  57.386  1.00  0.00     0.104 C 
ENDROOT
BRANCH   1   2
HETATM    2  C   UNL     1      10.087  30.457  58.006  1.00  0.00     0.217 C 
HETATM    3  N   UNL     1       9.380  30.722  59.155  1.00  0.00    -0.361 N 
HETATM    4  H   UNL     1       8.528  30.199  59.323  1.00  0.00     0.162 HD
HETATM    5  O   UNL     1      10.926  31.221  57.537  1.00  0.00    -0.274 OA
BRANCH   3   6
HETATM    6  C   UNL     1       9.515  32.004  59.826  1.00  0.00     0.127 C 
BRANCH   6   7
HETATM    7  C   UNL     1       9.258  31.920  61.332  1.00  0.00     0.060 C 
BRANCH   7   8
HETATM    8  C   UNL     1       7.819  32.130  61.692  1.00  0.00    -0.029 A 
HETATM    9  C   UNL     1       7.301  32.632  62.930  1.00  0.00    -0.002 A 
HETATM   10  C   UNL     1       7.887  33.077  64.133  1.00  0.00     0.014 A 
HETATM   11  C   UNL     1       5.910  32.639  62.827  1.00  0.00     0.042 A 
HETATM   12  C   UNL     1       7.066  33.496  65.187  1.00  0.00     0.001 A 
HETATM   13  C   UNL     1       5.680  33.489  65.053  1.00  0.00     0.002 A 
HETATM   14  C   UNL     1       5.074  33.062  63.868  1.00  0.00     0.030 A 
HETATM   15  N   UNL     1       5.593  32.177  61.572  1.00  0.00    -0.365 N 
HETATM   16  H   UNL     1       4.651  32.082  61.217  1.00  0.00     0.165 HD
HETATM   17  C   UNL     1       6.732  31.866  60.881  1.00  0.00     0.096 A 
ENDBRANCH   7   8
ENDBRANCH   6   7
ENDBRANCH   3   6
ENDBRANCH   1   2
BRANCH   1  18
HETATM   18  C   UNL     1       8.475  29.039  56.647  1.00  0.00     0.029 C 
BRANCH  18  19
HETATM   19  C   UNL     1       7.579  27.960  57.263  1.00  0.00     0.135 C 
BRANCH  19  20
HETATM   20  N   UNL     1       7.412  26.798  56.379  1.00  0.00    -0.290 N 
HETATM   21  C   UNL     1       6.792  26.903  55.135  1.00  0.00     0.181 A 
HETATM   22  S   UNL     1       6.118  28.280  54.452  1.00  0.00    -0.040 SA
HETATM   23  N   UNL     1       6.725  25.764  54.378  1.00  0.00    -0.332 N 
HETATM   24  C   UNL     1       7.237  24.532  54.773  1.00  0.00     0.050 A 
HETATM   25  H   UNL     1       6.284  25.858  53.469  1.00  0.00     0.168 HD
HETATM   26  C   UNL     1       7.827  24.401  56.022  1.00  0.00     0.060 A 
HETATM   27  C   UNL     1       7.157  23.437  53.912  1.00  0.00     0.032 A 
HETATM   28  C   UNL     1       7.898  25.586  56.896  1.00  0.00     0.262 A 
HETATM   29  C   UNL     1       8.349  23.170  56.432  1.00  0.00     0.038 A 
HETATM   30  O   UNL     1       8.374  25.459  58.023  1.00  0.00    -0.267 OA
HETATM   31  C   UNL     1       8.273  22.078  55.570  1.00  0.00     0.012 A 
HETATM   32  C   UNL     1       7.680  22.205  54.312  1.00  0.00     0.021 A 
HETATM   33 BR   UNL     1       8.982  20.409  56.105  1.00  0.00    -0.051 Br
ENDBRANCH  19  20
ENDBRANCH  18  19
ENDBRANCH   1  18
TORSDOF 7
ENDMDL
MODEL 2
REMARK VINA RESULT:     -10.2      3.482     10.619
REMARK  7 active torsions:
REMARK  status: ('A' for Active; 'I' for Inactive)
REMARK    1  A    between atoms: C_8  and  C_9 
REMARK    2  A    between atoms: C_9  and  C_10 
REMARK    3  A    between atoms: C_10  and  N_11 
REMARK       I    between atoms: N_11  and  C_12 
REMARK    4  A    between atoms: C_12  and  C_13 
REMARK    5  A    between atoms: C_13  and  C_14 
REMARK    6  A    between atoms: C_14  and  C_15 
REMARK    7  A    between atoms: C_15  and  N_16 
ROOT
HETATM    1  C   UNL     1       9.118  29.140  57.213  1.00  0.00     0.104 C 
ENDROOT
BRANCH   1   2
HETATM    2  C   UNL     1       8.140  27.992  57.093  1.00  0.00     0.217 C 
HETATM    3  N   UNL     1       7.805  27.653  55.803  1.00  0.00    -0.361 N 
HETATM    4  H   UNL     1       7.939  28.346  55.076  1.00  0.00     0.162 HD
HETATM    5  O   UNL     1       7.734  27.384  58.079  1.00  0.00    -0.274 OA
BRANCH   3   6
HETATM    6  C   UNL     1       6.837  26.600  55.544  1.00  0.00     0.127 C 
BRANCH   6   7
HETATM    7  C   UNL     1       7.353  25.543  54.565  1.00  0.00     0.060 C 
BRANCH   7   8
HETATM    8  C   UNL     1       7.754  24.267  55.241  1.00  0.00    -0.029 A 
HETATM    9  C   UNL     1       7.923  22.981  54.633  1.00  0.00    -0.002 A 
HETATM   10  C   UNL     1       7.800  22.492  53.316  1.00  0.00     0.014 A 
HETATM   11  C   UNL     1       8.280  22.086  55.643  1.00  0.00     0.042 A 
HETATM   12  C   UNL     1       8.023  21.133  53.061  1.00  0.00     0.001 A 
HETATM   13  C   UNL     1       8.376  20.266  54.091  1.00  0.00     0.002 A 
HETATM   14  C   UNL     1       8.514  20.726  55.404  1.00  0.00     0.030 A 
HETATM   15  N   UNL     1       8.344  22.801  56.815  1.00  0.00    -0.365 N 
HETATM   16  H   UNL     1       8.589  22.407  57.713  1.00  0.00     0.165 HD
HETATM   17  C   UNL     1       8.028  24.112  56.587  1.00  0.00     0.096 A 
ENDBRANCH   7   8
ENDBRANCH   6   7
ENDBRANCH   3   6
ENDBRANCH   1   2
BRANCH   1  18
HETATM   18  C   UNL     1       9.128  29.786  58.596  1.00  0.00     0.029 C 
BRANCH  18  19
HETATM   19  C   UNL     1       8.824  31.283  58.485  1.00  0.00     0.135 C 
BRANCH  19  20
HETATM   20  N   UNL     1       7.756  31.707  59.401  1.00  0.00    -0.290 N 
HETATM   21  C   UNL     1       6.413  31.684  59.026  1.00  0.00     0.181 A 
HETATM   22  S   UNL     1       5.784  31.232  57.537  1.00  0.00    -0.040 SA
HETATM   23  N   UNL     1       5.499  32.064  59.972  1.00  0.00    -0.332 N 
HETATM   24  C   UNL     1       5.830  32.460  61.264  1.00  0.00     0.050 A 
HETATM   25  H   UNL     1       4.524  32.028  59.691  1.00  0.00     0.168 HD
HETATM   26  C   UNL     1       7.164  32.522  61.643  1.00  0.00     0.060 A 
HETATM   27  C   UNL     1       4.823  32.791  62.170  1.00  0.00     0.032 A 
HETATM   28  C   UNL     1       8.195  32.157  60.656  1.00  0.00     0.262 A 
HETATM   29  C   UNL     1       7.513  32.917  62.940  1.00  0.00     0.038 A 
HETATM   30  O   UNL     1       9.379  32.261  60.975  1.00  0.00    -0.267 OA
HETATM   31  C   UNL     1       6.506  33.241  63.846  1.00  0.00     0.012 A 
HETATM   32  C   UNL     1       5.163  33.180  63.469  1.00  0.00     0.021 A 
HETATM   33 BR   UNL     1       6.960  33.766  65.604  1.00  0.00    -0.051 Br
ENDBRANCH  19  20
ENDBRANCH  18  19
ENDBRANCH   1  18
TORSDOF 7
ENDMDL
MODEL 3
REMARK VINA RESULT:     -10.2      3.608     10.404
REMARK  7 active torsions:
REMARK  status: ('A' for Active; 'I' for Inactive)
REMARK    1  A    between atoms: C_8  and  C_9 
REMARK    2  A    between atoms: C_9  and  C_10 
REMARK    3  A    between atoms: C_10  and  N_11 
REMARK       I    between atoms: N_11  and  C_12 
REMARK    4  A    between atoms: C_12  and  C_13 
REMARK    5  A    between atoms: C_13  and  C_14 
REMARK    6  A    between atoms: C_14  and  C_15 
REMARK    7  A    between atoms: C_15  and  N_16 
ROOT
HETATM    1  C   UNL     1       4.781  28.923  55.451  1.00  0.00     0.104 C 
ENDROOT
BRANCH   1   2
HETATM    2  C   UNL     1       5.109  27.449  55.560  1.00  0.00     0.217 C 
HETATM    3  N   UNL     1       5.030  26.753  54.377  1.00  0.00    -0.361 N 
HETATM    4  H   UNL     1       4.469  27.142  53.628  1.00  0.00     0.162 HD
HETATM    5  O   UNL     1       5.472  26.945  56.619  1.00  0.00    -0.274 OA
BRANCH   3   6
HETATM    6  C   UNL     1       5.272  25.319  54.348  1.00  0.00     0.127 C 
BRANCH   6   7
HETATM    7  C   UNL     1       6.702  24.964  53.934  1.00  0.00     0.060 C 
BRANCH   7   8
HETATM    8  C   UNL     1       7.304  23.886  54.784  1.00  0.00    -0.029 A 
HETATM    9  C   UNL     1       7.756  22.597  54.355  1.00  0.00    -0.002 A 
HETATM   10  C   UNL     1       7.809  21.937  53.109  1.00  0.00     0.014 A 
HETATM   11  C   UNL     1       8.221  21.921  55.484  1.00  0.00     0.042 A 
HETATM   12  C   UNL     1       8.308  20.631  53.041  1.00  0.00     0.001 A 
HETATM   13  C   UNL     1       8.762  19.983  54.187  1.00  0.00     0.002 A 
HETATM   14  C   UNL     1       8.730  20.617  55.432  1.00  0.00     0.030 A 
HETATM   15  N   UNL     1       8.075  22.770  56.554  1.00  0.00    -0.365 N 
HETATM   16  H   UNL     1       8.339  22.546  57.504  1.00  0.00     0.165 HD
HETATM   17  C   UNL     1       7.523  23.954  56.147  1.00  0.00     0.096 A 
ENDBRANCH   7   8
ENDBRANCH   6   7
ENDBRANCH   3   6
ENDBRANCH   1   2
BRANCH   1  18
HETATM   18  C   UNL     1       4.750  29.639  56.798  1.00  0.00     0.029 C 
BRANCH  18  19
HETATM   19  C   UNL     1       5.728  30.818  56.796  1.00  0.00     0.135 C 
BRANCH  19  20
HETATM   20  N   UNL     1       6.691  30.751  57.904  1.00  0.00    -0.290 N 
HETATM   21  C   UNL     1       7.890  30.047  57.795  1.00  0.00     0.181 A 
HETATM   22  S   UNL     1       8.428  29.160  56.477  1.00  0.00    -0.040 SA
HETATM   23  N   UNL     1       8.730  30.084  58.876  1.00  0.00    -0.332 N 
HETATM   24  C   UNL     1       8.459  30.775  60.053  1.00  0.00     0.050 A 
HETATM   25  H   UNL     1       9.605  29.580  58.778  1.00  0.00     0.168 HD
HETATM   26  C   UNL     1       7.256  31.452  60.191  1.00  0.00     0.060 A 
HETATM   27  C   UNL     1       9.398  30.787  61.085  1.00  0.00     0.032 A 
HETATM   28  C   UNL     1       6.296  31.421  59.073  1.00  0.00     0.262 A 
HETATM   29  C   UNL     1       6.971  32.154  61.368  1.00  0.00     0.038 A 
HETATM   30  O   UNL     1       5.209  31.977  59.214  1.00  0.00    -0.267 OA
HETATM   31  C   UNL     1       7.911  32.169  62.395  1.00  0.00     0.012 A 
HETATM   32  C   UNL     1       9.123  31.490  62.261  1.00  0.00     0.021 A 
HETATM   33 BR   UNL     1       7.545  33.122  63.987  1.00  0.00    -0.051 Br
ENDBRANCH  19  20
ENDBRANCH  18  19
ENDBRANCH   1  18
TORSDOF 7
ENDMDL
MODEL 4
REMARK VINA RESULT:     -10.1      1.187      1.207
REMARK  7 active torsions:
REMARK  status: ('A' for Active; 'I' for Inactive)
REMARK    1  A    between atoms: C_8  and  C_9 
REMARK    2  A    between atoms: C_9  and  C_10 
REMARK    3  A    between atoms: C_10  and  N_11 
REMARK       I    between atoms: N_11  and  C_12 
REMARK    4  A    between atoms: C_12  and  C_13 
REMARK    5  A    between atoms: C_13  and  C_14 
REMARK    6  A    between atoms: C_14  and  C_15 
REMARK    7  A    between atoms: C_15  and  N_16 
ROOT
HETATM    1  C   UNL     1       7.991  28.825  58.110  1.00  0.00     0.104 C 
ENDROOT
BRANCH   1   2
HETATM    2  C   UNL     1       7.971  30.262  58.587  1.00  0.00     0.217 C 
HETATM    3  N   UNL     1       8.888  30.556  59.568  1.00  0.00    -0.361 N 
HETATM    4  H   UNL     1       9.257  29.793  60.123  1.00  0.00     0.162 HD
HETATM    5  O   UNL     1       7.226  31.098  58.084  1.00  0.00    -0.274 OA
BRANCH   3   6
HETATM    6  C   UNL     1       8.942  31.887  60.152  1.00  0.00     0.127 C 
BRANCH   6   7
HETATM    7  C   UNL     1       8.766  31.880  61.672  1.00  0.00     0.060 C 
BRANCH   7   8
HETATM    8  C   UNL     1       7.376  32.241  62.100  1.00  0.00    -0.029 A 
HETATM    9  C   UNL     1       6.978  32.820  63.348  1.00  0.00    -0.002 A 
HETATM   10  C   UNL     1       7.669  33.231  64.507  1.00  0.00     0.014 A 
HETATM   11  C   UNL     1       5.590  32.963  63.318  1.00  0.00     0.042 A 
HETATM   12  C   UNL     1       6.952  33.754  65.589  1.00  0.00     0.001 A 
HETATM   13  C   UNL     1       5.566  33.882  65.527  1.00  0.00     0.002 A 
HETATM   14  C   UNL     1       4.858  33.490  64.388  1.00  0.00     0.030 A 
HETATM   15  N   UNL     1       5.162  32.507  62.094  1.00  0.00    -0.365 N 
HETATM   16  H   UNL     1       4.198  32.498  61.791  1.00  0.00     0.165 HD
HETATM   17  C   UNL     1       6.226  32.068  61.354  1.00  0.00     0.096 A 
ENDBRANCH   7   8
ENDBRANCH   6   7
ENDBRANCH   3   6
ENDBRANCH   1   2
BRANCH   1  18
HETATM   18  C   UNL     1       7.628  28.670  56.637  1.00  0.00     0.029 C 
BRANCH  18  19
HETATM   19  C   UNL     1       6.401  27.766  56.485  1.00  0.00     0.135 C 
BRANCH  19  20
HETATM   20  N   UNL     1       6.642  26.641  55.570  1.00  0.00    -0.290 N 
HETATM   21  C   UNL     1       6.577  26.794  54.185  1.00  0.00     0.181 A 
HETATM   22  S   UNL     1       6.197  28.190  53.336  1.00  0.00    -0.040 SA
HETATM   23  N   UNL     1       6.858  25.689  53.427  1.00  0.00    -0.332 N 
HETATM   24  C   UNL     1       7.203  24.447  53.952  1.00  0.00     0.050 A 
HETATM   25  H   UNL     1       6.822  25.817  52.421  1.00  0.00     0.168 HD
HETATM   26  C   UNL     1       7.239  24.269  55.328  1.00  0.00     0.060 A 
HETATM   27  C   UNL     1       7.512  23.391  53.096  1.00  0.00     0.032 A 
HETATM   28  C   UNL     1       6.913  25.415  56.196  1.00  0.00     0.262 A 
HETATM   29  C   UNL     1       7.587  23.028  55.871  1.00  0.00     0.038 A 
HETATM   30  O   UNL     1       6.895  25.245  57.414  1.00  0.00    -0.267 OA
HETATM   31  C   UNL     1       7.901  21.975  55.015  1.00  0.00     0.012 A 
HETATM   32  C   UNL     1       7.866  22.149  53.631  1.00  0.00     0.021 A 
HETATM   33 BR   UNL     1       8.382  20.293  55.734  1.00  0.00    -0.051 Br
ENDBRANCH  19  20
ENDBRANCH  18  19
ENDBRANCH   1  18
TORSDOF 7
ENDMDL
MODEL 5
REMARK VINA RESULT:      -9.8      3.560     10.341
REMARK  7 active torsions:
REMARK  status: ('A' for Active; 'I' for Inactive)
REMARK    1  A    between atoms: C_8  and  C_9 
REMARK    2  A    between atoms: C_9  and  C_10 
REMARK    3  A    between atoms: C_10  and  N_11 
REMARK       I    between atoms: N_11  and  C_12 
REMARK    4  A    between atoms: C_12  and  C_13 
REMARK    5  A    between atoms: C_13  and  C_14 
REMARK    6  A    between atoms: C_14  and  C_15 
REMARK    7  A    between atoms: C_15  and  N_16 
ROOT
HETATM    1  C   UNL     1      10.198  29.649  57.472  1.00  0.00     0.104 C 
ENDROOT
BRANCH   1   2
HETATM    2  C   UNL     1       9.518  29.273  56.173  1.00  0.00     0.217 C 
HETATM    3  N   UNL     1       8.355  28.554  56.318  1.00  0.00    -0.361 N 
HETATM    4  H   UNL     1       8.207  28.053  57.186  1.00  0.00     0.162 HD
HETATM    5  O   UNL     1       9.954  29.641  55.086  1.00  0.00    -0.274 OA
BRANCH   3   6
HETATM    6  C   UNL     1       7.627  28.085  55.150  1.00  0.00     0.127 C 
BRANCH   6   7
HETATM    7  C   UNL     1       7.007  26.701  55.349  1.00  0.00     0.060 C 
BRANCH   7   8
HETATM    8  C   UNL     1       7.363  25.739  54.257  1.00  0.00    -0.029 A 
HETATM    9  C   UNL     1       7.490  24.316  54.364  1.00  0.00    -0.002 A 
HETATM   10  C   UNL     1       7.333  23.390  55.416  1.00  0.00     0.014 A 
HETATM   11  C   UNL     1       7.856  23.835  53.106  1.00  0.00     0.042 A 
HETATM   12  C   UNL     1       7.559  22.030  55.178  1.00  0.00     0.001 A 
HETATM   13  C   UNL     1       7.925  21.582  53.911  1.00  0.00     0.002 A 
HETATM   14  C   UNL     1       8.079  22.476  52.848  1.00  0.00     0.030 A 
HETATM   15  N   UNL     1       7.931  24.917  52.263  1.00  0.00    -0.365 N 
HETATM   16  H   UNL     1       8.170  24.864  51.282  1.00  0.00     0.165 HD
HETATM   17  C   UNL     1       7.640  26.068  52.943  1.00  0.00     0.096 A 
ENDBRANCH   7   8
ENDBRANCH   6   7
ENDBRANCH   3   6
ENDBRANCH   1   2
BRANCH   1  18
HETATM   18  C   UNL     1       9.220  29.986  58.593  1.00  0.00     0.029 C 
BRANCH  18  19
HETATM   19  C   UNL     1       8.855  31.473  58.551  1.00  0.00     0.135 C 
BRANCH  19  20
HETATM   20  N   UNL     1       7.767  31.810  59.480  1.00  0.00    -0.290 N 
HETATM   21  C   UNL     1       6.426  31.680  59.120  1.00  0.00     0.181 A 
HETATM   22  S   UNL     1       5.819  31.181  57.638  1.00  0.00    -0.040 SA
HETATM   23  N   UNL     1       5.496  31.985  60.077  1.00  0.00    -0.332 N 
HETATM   24  C   UNL     1       5.810  32.406  61.366  1.00  0.00     0.050 A 
HETATM   25  H   UNL     1       4.524  31.873  59.808  1.00  0.00     0.168 HD
HETATM   26  C   UNL     1       7.138  32.574  61.730  1.00  0.00     0.060 A 
HETATM   27  C   UNL     1       4.790  32.654  62.284  1.00  0.00     0.032 A 
HETATM   28  C   UNL     1       8.184  32.293  60.731  1.00  0.00     0.262 A 
HETATM   29  C   UNL     1       7.469  32.993  63.023  1.00  0.00     0.038 A 
HETATM   30  O   UNL     1       9.359  32.490  61.036  1.00  0.00    -0.267 OA
HETATM   31  C   UNL     1       6.450  33.236  63.941  1.00  0.00     0.012 A 
HETATM   32  C   UNL     1       5.112  33.069  63.580  1.00  0.00     0.021 A 
HETATM   33 BR   UNL     1       6.882  33.794  65.696  1.00  0.00    -0.051 Br
ENDBRANCH  19  20
ENDBRANCH  18  19
ENDBRANCH   1  18
TORSDOF 7
ENDMDL
MODEL 6
REMARK VINA RESULT:      -9.5      4.071     10.540
REMARK  7 active torsions:
REMARK  status: ('A' for Active; 'I' for Inactive)
REMARK    1  A    between atoms: C_8  and  C_9 
REMARK    2  A    between atoms: C_9  and  C_10 
REMARK    3  A    between atoms: C_10  and  N_11 
REMARK       I    between atoms: N_11  and  C_12 
REMARK    4  A    between atoms: C_12  and  C_13 
REMARK    5  A    between atoms: C_13  and  C_14 
REMARK    6  A    between atoms: C_14  and  C_15 
REMARK    7  A    between atoms: C_15  and  N_16 
ROOT
HETATM    1  C   UNL     1       5.075  30.124  56.205  1.00  0.00     0.104 C 
ENDROOT
BRANCH   1   2
HETATM    2  C   UNL     1       5.311  28.647  55.976  1.00  0.00     0.217 C 
HETATM    3  N   UNL     1       5.903  27.988  57.028  1.00  0.00    -0.361 N 
HETATM    4  H   UNL     1       6.424  28.535  57.704  1.00  0.00     0.162 HD
HETATM    5  O   UNL     1       4.944  28.086  54.948  1.00  0.00    -0.274 OA
BRANCH   3   6
HETATM    6  C   UNL     1       6.232  26.576  56.924  1.00  0.00     0.127 C 
BRANCH   6   7
HETATM    7  C   UNL     1       7.693  26.330  56.541  1.00  0.00     0.060 C 
BRANCH   7   8
HETATM    8  C   UNL     1       7.994  24.885  56.282  1.00  0.00    -0.029 A 
HETATM    9  C   UNL     1       7.934  24.200  55.026  1.00  0.00    -0.002 A 
HETATM   10  C   UNL     1       7.616  24.588  53.708  1.00  0.00     0.014 A 
HETATM   11  C   UNL     1       8.274  22.867  55.261  1.00  0.00     0.042 A 
HETATM   12  C   UNL     1       7.637  23.634  52.683  1.00  0.00     0.001 A 
HETATM   13  C   UNL     1       7.978  22.311  52.952  1.00  0.00     0.002 A 
HETATM   14  C   UNL     1       8.306  21.901  54.248  1.00  0.00     0.030 A 
HETATM   15  N   UNL     1       8.547  22.749  56.603  1.00  0.00    -0.365 N 
HETATM   16  H   UNL     1       8.829  21.891  57.057  1.00  0.00     0.165 HD
HETATM   17  C   UNL     1       8.380  23.954  57.228  1.00  0.00     0.096 A 
ENDBRANCH   7   8
ENDBRANCH   6   7
ENDBRANCH   3   6
ENDBRANCH   1   2
BRANCH   1  18
HETATM   18  C   UNL     1       5.085  30.519  57.679  1.00  0.00     0.029 C 
BRANCH  18  19
HETATM   19  C   UNL     1       5.959  31.759  57.890  1.00  0.00     0.135 C 
BRANCH  19  20
HETATM   20  N   UNL     1       6.537  31.814  59.240  1.00  0.00    -0.290 N 
HETATM   21  C   UNL     1       7.694  31.110  59.573  1.00  0.00     0.181 A 
HETATM   22  S   UNL     1       8.583  30.093  58.578  1.00  0.00    -0.040 SA
HETATM   23  N   UNL     1       8.167  31.265  60.849  1.00  0.00    -0.332 N 
HETATM   24  C   UNL     1       7.571  32.074  61.811  1.00  0.00     0.050 A 
HETATM   25  H   UNL     1       9.018  30.759  61.074  1.00  0.00     0.168 HD
HETATM   26  C   UNL     1       6.401  32.755  61.507  1.00  0.00     0.060 A 
HETATM   27  C   UNL     1       8.153  32.199  63.072  1.00  0.00     0.032 A 
HETATM   28  C   UNL     1       5.825  32.601  60.159  1.00  0.00     0.262 A 
HETATM   29  C   UNL     1       5.791  33.575  62.463  1.00  0.00     0.038 A 
HETATM   30  O   UNL     1       4.761  33.163  59.905  1.00  0.00    -0.267 OA
HETATM   31  C   UNL     1       6.375  33.703  63.720  1.00  0.00     0.012 A 
HETATM   32  C   UNL     1       7.552  33.020  64.031  1.00  0.00     0.021 A 
HETATM   33 BR   UNL     1       5.569  34.815  65.020  1.00  0.00    -0.051 Br
ENDBRANCH  19  20
ENDBRANCH  18  19
ENDBRANCH   1  18
TORSDOF 7
ENDMDL
MODEL 7
REMARK VINA RESULT:      -9.4      3.979     10.028
REMARK  7 active torsions:
REMARK  status: ('A' for Active; 'I' for Inactive)
REMARK    1  A    between atoms: C_8  and  C_9 
REMARK    2  A    between atoms: C_9  and  C_10 
REMARK    3  A    between atoms: C_10  and  N_11 
REMARK       I    between atoms: N_11  and  C_12 
REMARK    4  A    between atoms: C_12  and  C_13 
REMARK    5  A    between atoms: C_13  and  C_14 
REMARK    6  A    between atoms: C_14  and  C_15 
REMARK    7  A    between atoms: C_15  and  N_16 
ROOT
HETATM    1  C   UNL     1       4.341  28.275  53.314  1.00  0.00     0.104 C 
ENDROOT
BRANCH   1   2
HETATM    2  C   UNL     1       4.843  26.886  52.981  1.00  0.00     0.217 C 
HETATM    3  N   UNL     1       5.975  26.855  52.200  1.00  0.00    -0.361 N 
HETATM    4  H   UNL     1       6.196  27.673  51.645  1.00  0.00     0.162 HD
HETATM    5  O   UNL     1       4.303  25.880  53.429  1.00  0.00    -0.274 OA
BRANCH   3   6
HETATM    6  C   UNL     1       6.536  25.586  51.765  1.00  0.00     0.127 C 
BRANCH   6   7
HETATM    7  C   UNL     1       7.869  25.260  52.440  1.00  0.00     0.060 C 
BRANCH   7   8
HETATM    8  C   UNL     1       7.709  24.433  53.680  1.00  0.00    -0.029 A 
HETATM    9  C   UNL     1       7.855  23.013  53.797  1.00  0.00    -0.002 A 
HETATM   10  C   UNL     1       8.178  21.979  52.894  1.00  0.00     0.014 A 
HETATM   11  C   UNL     1       7.595  22.676  55.126  1.00  0.00     0.042 A 
HETATM   12  C   UNL     1       8.216  20.654  53.347  1.00  0.00     0.001 A 
HETATM   13  C   UNL     1       7.950  20.352  54.680  1.00  0.00     0.002 A 
HETATM   14  C   UNL     1       7.636  21.358  55.597  1.00  0.00     0.030 A 
HETATM   15  N   UNL     1       7.321  23.845  55.795  1.00  0.00    -0.365 N 
HETATM   16  H   UNL     1       7.103  23.903  56.781  1.00  0.00     0.165 HD
HETATM   17  C   UNL     1       7.384  24.908  54.937  1.00  0.00     0.096 A 
ENDBRANCH   7   8
ENDBRANCH   6   7
ENDBRANCH   3   6
ENDBRANCH   1   2
BRANCH   1  18
HETATM   18  C   UNL     1       5.329  29.096  54.138  1.00  0.00     0.029 C 
BRANCH  18  19
HETATM   19  C   UNL     1       5.612  28.402  55.474  1.00  0.00     0.135 C 
BRANCH  19  20
HETATM   20  N   UNL     1       6.660  29.081  56.248  1.00  0.00    -0.290 N 
HETATM   21  C   UNL     1       7.995  29.071  55.844  1.00  0.00     0.181 A 
HETATM   22  S   UNL     1       8.642  28.301  54.501  1.00  0.00    -0.040 SA
HETATM   23  N   UNL     1       8.881  29.770  56.620  1.00  0.00    -0.332 N 
HETATM   24  C   UNL     1       8.529  30.478  57.764  1.00  0.00     0.050 A 
HETATM   25  H   UNL     1       9.847  29.767  56.307  1.00  0.00     0.168 HD
HETATM   26  C   UNL     1       7.211  30.470  58.199  1.00  0.00     0.060 A 
HETATM   27  C   UNL     1       9.499  31.193  58.466  1.00  0.00     0.032 A 
HETATM   28  C   UNL     1       6.217  29.707  57.423  1.00  0.00     0.262 A 
HETATM   29  C   UNL     1       6.841  31.180  59.347  1.00  0.00     0.038 A 
HETATM   30  O   UNL     1       5.060  29.657  57.836  1.00  0.00    -0.267 OA
HETATM   31  C   UNL     1       7.810  31.898  60.044  1.00  0.00     0.012 A 
HETATM   32  C   UNL     1       9.137  31.909  59.610  1.00  0.00     0.021 A 
HETATM   33 BR   UNL     1       7.324  32.870  61.591  1.00  0.00    -0.051 Br
ENDBRANCH  19  20
ENDBRANCH  18  19
ENDBRANCH   1  18
TORSDOF 7
ENDMDL
MODEL 8
REMARK VINA RESULT:      -9.4      2.719      3.907
REMARK  7 active torsions:
REMARK  status: ('A' for Active; 'I' for Inactive)
REMARK    1  A    between atoms: C_8  and  C_9 
REMARK    2  A    between atoms: C_9  and  C_10 
REMARK    3  A    between atoms: C_10  and  N_11 
REMARK       I    between atoms: N_11  and  C_12 
REMARK    4  A    between atoms: C_12  and  C_13 
REMARK    5  A    between atoms: C_13  and  C_14 
REMARK    6  A    between atoms: C_14  and  C_15 
REMARK    7  A    between atoms: C_15  and  N_16 
ROOT
HETATM    1  C   UNL     1       4.817  29.401  54.090  1.00  0.00     0.104 C 
ENDROOT
BRANCH   1   2
HETATM    2  C   UNL     1       4.596  29.542  55.580  1.00  0.00     0.217 C 
HETATM    3  N   UNL     1       5.204  30.634  56.153  1.00  0.00    -0.361 N 
HETATM    4  H   UNL     1       5.987  31.056  55.666  1.00  0.00     0.162 HD
HETATM    5  O   UNL     1       3.877  28.765  56.202  1.00  0.00    -0.274 OA
BRANCH   3   6
HETATM    6  C   UNL     1       5.114  30.862  57.586  1.00  0.00     0.127 C 
BRANCH   6   7
HETATM    7  C   UNL     1       5.493  32.289  57.988  1.00  0.00     0.060 C 
BRANCH   7   8
HETATM    8  C   UNL     1       5.901  32.401  59.426  1.00  0.00    -0.029 A 
HETATM    9  C   UNL     1       7.205  32.183  59.975  1.00  0.00    -0.002 A 
HETATM   10  C   UNL     1       8.457  31.830  59.428  1.00  0.00     0.014 A 
HETATM   11  C   UNL     1       7.116  32.378  61.354  1.00  0.00     0.042 A 
HETATM   12  C   UNL     1       9.561  31.674  60.274  1.00  0.00     0.001 A 
HETATM   13  C   UNL     1       9.437  31.875  61.647  1.00  0.00     0.002 A 
HETATM   14  C   UNL     1       8.211  32.233  62.214  1.00  0.00     0.030 A 
HETATM   15  N   UNL     1       5.814  32.720  61.631  1.00  0.00    -0.365 N 
HETATM   16  H   UNL     1       5.460  32.927  62.555  1.00  0.00     0.165 HD
HETATM   17  C   UNL     1       5.073  32.735  60.481  1.00  0.00     0.096 A 
ENDBRANCH   7   8
ENDBRANCH   6   7
ENDBRANCH   3   6
ENDBRANCH   1   2
BRANCH   1  18
HETATM   18  C   UNL     1       5.440  28.067  53.692  1.00  0.00     0.029 C 
BRANCH  18  19
HETATM   19  C   UNL     1       6.915  28.026  54.103  1.00  0.00     0.135 C 
BRANCH  19  20
HETATM   20  N   UNL     1       7.299  26.735  54.692  1.00  0.00    -0.290 N 
HETATM   21  C   UNL     1       7.503  26.584  56.063  1.00  0.00     0.181 A 
HETATM   22  S   UNL     1       7.399  27.775  57.240  1.00  0.00    -0.040 SA
HETATM   23  N   UNL     1       7.819  25.328  56.507  1.00  0.00    -0.332 N 
HETATM   24  C   UNL     1       7.941  24.215  55.681  1.00  0.00     0.050 A 
HETATM   25  H   UNL     1       7.951  25.229  57.508  1.00  0.00     0.168 HD
HETATM   26  C   UNL     1       7.774  24.354  54.311  1.00  0.00     0.060 A 
HETATM   27  C   UNL     1       8.226  22.967  56.235  1.00  0.00     0.032 A 
HETATM   28  C   UNL     1       7.465  25.690  53.770  1.00  0.00     0.262 A 
HETATM   29  C   UNL     1       7.890  23.243  53.468  1.00  0.00     0.038 A 
HETATM   30  O   UNL     1       7.368  25.824  52.551  1.00  0.00    -0.267 OA
HETATM   31  C   UNL     1       8.170  21.996  54.022  1.00  0.00     0.012 A 
HETATM   32  C   UNL     1       8.338  21.851  55.400  1.00  0.00     0.021 A 
HETATM   33 BR   UNL     1       8.320  20.483  52.897  1.00  0.00    -0.051 Br
ENDBRANCH  19  20
ENDBRANCH  18  19
ENDBRANCH   1  18
TORSDOF 7
ENDMDL
MODEL 9
REMARK VINA RESULT:      -9.3      3.632     10.163
REMARK  7 active torsions:
REMARK  status: ('A' for Active; 'I' for Inactive)
REMARK    1  A    between atoms: C_8  and  C_9 
REMARK    2  A    between atoms: C_9  and  C_10 
REMARK    3  A    between atoms: C_10  and  N_11 
REMARK       I    between atoms: N_11  and  C_12 
REMARK    4  A    between atoms: C_12  and  C_13 
REMARK    5  A    between atoms: C_13  and  C_14 
REMARK    6  A    between atoms: C_14  and  C_15 
REMARK    7  A    between atoms: C_15  and  N_16 
ROOT
HETATM    1  C   UNL     1       5.021  28.494  53.144  1.00  0.00     0.104 C 
ENDROOT
BRANCH   1   2
HETATM    2  C   UNL     1       5.217  27.029  52.816  1.00  0.00     0.217 C 
HETATM    3  N   UNL     1       6.354  26.747  52.096  1.00  0.00    -0.361 N 
HETATM    4  H   UNL     1       6.783  27.496  51.566  1.00  0.00     0.162 HD
HETATM    5  O   UNL     1       4.442  26.168  53.221  1.00  0.00    -0.274 OA
BRANCH   3   6
HETATM    6  C   UNL     1       6.640  25.386  51.672  1.00  0.00     0.127 C 
BRANCH   6   7
HETATM    7  C   UNL     1       7.976  24.863  52.203  1.00  0.00     0.060 C 
BRANCH   7   8
HETATM    8  C   UNL     1       7.853  24.191  53.536  1.00  0.00    -0.029 A 
HETATM    9  C   UNL     1       7.973  22.791  53.814  1.00  0.00    -0.002 A 
HETATM   10  C   UNL     1       8.235  21.650  53.026  1.00  0.00     0.014 A 
HETATM   11  C   UNL     1       7.764  22.617  55.182  1.00  0.00     0.042 A 
HETATM   12  C   UNL     1       8.265  20.387  53.629  1.00  0.00     0.001 A 
HETATM   13  C   UNL     1       8.051  20.248  54.998  1.00  0.00     0.002 A 
HETATM   14  C   UNL     1       7.797  21.362  55.803  1.00  0.00     0.030 A 
HETATM   15  N   UNL     1       7.543  23.863  55.720  1.00  0.00    -0.365 N 
HETATM   16  H   UNL     1       7.369  24.041  56.700  1.00  0.00     0.165 HD
HETATM   17  C   UNL     1       7.591  24.817  54.741  1.00  0.00     0.096 A 
ENDBRANCH   7   8
ENDBRANCH   6   7
ENDBRANCH   3   6
ENDBRANCH   1   2
BRANCH   1  18
HETATM   18  C   UNL     1       5.944  28.997  54.250  1.00  0.00     0.029 C 
BRANCH  18  19
HETATM   19  C   UNL     1       5.384  28.615  55.623  1.00  0.00     0.135 C 
BRANCH  19  20
HETATM   20  N   UNL     1       5.517  29.700  56.606  1.00  0.00    -0.290 N 
HETATM   21  C   UNL     1       4.569  30.717  56.711  1.00  0.00     0.181 A 
HETATM   22  S   UNL     1       3.191  30.918  55.775  1.00  0.00    -0.040 SA
HETATM   23  N   UNL     1       4.773  31.655  57.688  1.00  0.00    -0.332 N 
HETATM   24  C   UNL     1       5.852  31.647  58.566  1.00  0.00     0.050 A 
HETATM   25  H   UNL     1       4.068  32.381  57.763  1.00  0.00     0.168 HD
HETATM   26  C   UNL     1       6.823  30.662  58.452  1.00  0.00     0.060 A 
HETATM   27  C   UNL     1       5.952  32.625  59.555  1.00  0.00     0.032 A 
HETATM   28  C   UNL     1       6.675  29.643  57.398  1.00  0.00     0.262 A 
HETATM   29  C   UNL     1       7.913  30.639  59.330  1.00  0.00     0.038 A 
HETATM   30  O   UNL     1       7.561  28.800  57.264  1.00  0.00    -0.267 OA
HETATM   31  C   UNL     1       8.009  31.613  60.321  1.00  0.00     0.012 A 
HETATM   32  C   UNL     1       7.034  32.606  60.439  1.00  0.00     0.021 A 
HETATM   33 BR   UNL     1       9.470  31.590  61.521  1.00  0.00    -0.051 Br
ENDBRANCH  19  20
ENDBRANCH  18  19
ENDBRANCH   1  18
TORSDOF 7
ENDMDL
MODEL 10
REMARK VINA RESULT:      -9.3      6.306     10.250
REMARK  7 active torsions:
REMARK  status: ('A' for Active; 'I' for Inactive)
REMARK    1  A    between atoms: C_8  and  C_9 
REMARK    2  A    between atoms: C_9  and  C_10 
REMARK    3  A    between atoms: C_10  and  N_11 
REMARK       I    between atoms: N_11  and  C_12 
REMARK    4  A    between atoms: C_12  and  C_13 
REMARK    5  A    between atoms: C_13  and  C_14 
REMARK    6  A    between atoms: C_14  and  C_15 
REMARK    7  A    between atoms: C_15  and  N_16 
ROOT
HETATM    1  C   UNL     1       4.600  29.285  53.634  1.00  0.00     0.104 C 
ENDROOT
BRANCH   1   2
HETATM    2  C   UNL     1       4.343  29.621  52.181  1.00  0.00     0.217 C 
HETATM    3  N   UNL     1       5.474  29.852  51.434  1.00  0.00    -0.361 N 
HETATM    4  H   UNL     1       6.325  30.110  51.921  1.00  0.00     0.162 HD
HETATM    5  O   UNL     1       3.209  29.625  51.710  1.00  0.00    -0.274 OA
BRANCH   3   6
HETATM    6  C   UNL     1       5.369  30.233  50.035  1.00  0.00     0.127 C 
BRANCH   6   7
HETATM    7  C   UNL     1       5.777  29.111  49.079  1.00  0.00     0.060 C 
BRANCH   7   8
HETATM    8  C   UNL     1       4.713  28.068  48.914  1.00  0.00    -0.029 A 
HETATM    9  C   UNL     1       3.502  28.179  48.157  1.00  0.00    -0.002 A 
HETATM   10  C   UNL     1       2.928  29.193  47.362  1.00  0.00     0.014 A 
HETATM   11  C   UNL     1       2.807  26.978  48.304  1.00  0.00     0.042 A 
HETATM   12  C   UNL     1       1.684  28.976  46.759  1.00  0.00     0.001 A 
HETATM   13  C   UNL     1       1.015  27.766  46.928  1.00  0.00     0.002 A 
HETATM   14  C   UNL     1       1.565  26.741  47.704  1.00  0.00     0.030 A 
HETATM   15  N   UNL     1       3.571  26.162  49.105  1.00  0.00    -0.365 N 
HETATM   16  H   UNL     1       3.315  25.223  49.375  1.00  0.00     0.165 HD
HETATM   17  C   UNL     1       4.718  26.807  49.480  1.00  0.00     0.096 A 
ENDBRANCH   7   8
ENDBRANCH   6   7
ENDBRANCH   3   6
ENDBRANCH   1   2
BRANCH   1  18
HETATM   18  C   UNL     1       5.091  27.857  53.849  1.00  0.00     0.029 C 
BRANCH  18  19
HETATM   19  C   UNL     1       6.612  27.841  54.030  1.00  0.00     0.135 C 
BRANCH  19  20
HETATM   20  N   UNL     1       7.092  26.589  54.633  1.00  0.00    -0.290 N 
HETATM   21  C   UNL     1       7.333  26.478  56.002  1.00  0.00     0.181 A 
HETATM   22  S   UNL     1       7.172  27.681  57.160  1.00  0.00    -0.040 SA
HETATM   23  N   UNL     1       7.741  25.254  56.461  1.00  0.00    -0.332 N 
HETATM   24  C   UNL     1       7.920  24.136  55.652  1.00  0.00     0.050 A 
HETATM   25  H   UNL     1       7.899  25.182  57.461  1.00  0.00     0.168 HD
HETATM   26  C   UNL     1       7.718  24.238  54.283  1.00  0.00     0.060 A 
HETATM   27  C   UNL     1       8.299  22.920  56.221  1.00  0.00     0.032 A 
HETATM   28  C   UNL     1       7.311  25.540  53.726  1.00  0.00     0.262 A 
HETATM   29  C   UNL     1       7.892  23.121  53.458  1.00  0.00     0.038 A 
HETATM   30  O   UNL     1       7.181  25.645  52.507  1.00  0.00    -0.267 OA
HETATM   31  C   UNL     1       8.265  21.907  54.027  1.00  0.00     0.012 A 
HETATM   32  C   UNL     1       8.469  21.799  55.404  1.00  0.00     0.021 A 
HETATM   33 BR   UNL     1       8.494  20.386  52.926  1.00  0.00    -0.051 Br
ENDBRANCH  19  20
ENDBRANCH  18  19
ENDBRANCH   1  18
TORSDOF 7
ENDMDL
