MODEL 1
REMARK VINA RESULT:      -7.6      0.000      0.000
REMARK  8 active torsions:
REMARK  status: ('A' for Active; 'I' for Inactive)
REMARK    1  A    between atoms: C_2  and  C_3 
REMARK    2  A    between atoms: C_3  and  N_4 
REMARK    3  A    between atoms: C_7  and  C_8 
REMARK       I    between atoms: C_8  and  N_9 
REMARK    4  A    between atoms: N_9  and  C_10 
REMARK    5  A    between atoms: C_13  and  O_14 
REMARK    6  A    between atoms: O_14  and  C_15 
REMARK    7  A    between atoms: C_15  and  C_16 
REMARK       I    between atoms: C_16  and  N_17 
REMARK    8  A    between atoms: C_23  and  C_24 
ROOT
HETATM    1  C   UNL     1       5.268  27.512  53.931  1.00  0.00     0.259 C 
HETATM    2  N   UNL     1       5.452  28.548  54.822  1.00  0.00    -0.323 N 
HETATM    3  O   UNL     1       4.241  27.557  53.253  1.00  0.00    -0.267 OA
HETATM    4  H   UNL     1       4.626  29.134  54.815  1.00  0.00     0.169 HD
ENDROOT
BRANCH   2   5
HETATM    5  C   UNL     1       6.457  28.916  55.734  1.00  0.00     0.035 A 
HETATM    6  C   UNL     1       7.825  28.745  55.552  1.00  0.00     0.032 A 
HETATM    7  C   UNL     1       8.718  29.022  56.599  1.00  0.00     0.039 A 
HETATM    8  C   UNL     1       8.264  29.516  57.822  1.00  0.00     0.069 A 
HETATM    9  C   UNL     1       6.912  29.813  57.960  1.00  0.00     0.039 A 
HETATM   10  C   UNL     1       6.019  29.509  56.926  1.00  0.00     0.032 A 
BRANCH   8  11
HETATM   11  O   UNL     1       9.223  29.648  58.787  1.00  0.00    -0.342 OA
BRANCH  11  12
HETATM   12  C   UNL     1       9.311  30.900  59.462  1.00  0.00     0.278 C 
BRANCH  12  13
HETATM   13  C   UNL     1       8.964  30.760  60.944  1.00  0.00     0.241 C 
HETATM   14  N   UNL     1       8.054  31.692  61.398  1.00  0.00    -0.364 N 
HETATM   15  C   UNL     1       7.755  31.853  62.797  1.00  0.00     0.149 C 
HETATM   16  H   UNL     1       7.679  32.352  60.725  1.00  0.00     0.161 HD
HETATM   17  O   UNL     1       9.533  29.954  61.676  1.00  0.00    -0.271 OA
ENDBRANCH  12  13
ENDBRANCH  11  12
ENDBRANCH   8  11
ENDBRANCH   2   5
BRANCH   1  18
HETATM   18  C   UNL     1       6.186  26.395  53.862  1.00  0.00     0.076 A 
HETATM   19  C   UNL     1       7.199  26.213  52.890  1.00  0.00     0.158 A 
HETATM   20  N   UNL     1       7.845  25.057  53.015  1.00  0.00    -0.183 NA
HETATM   21  N   UNL     1       7.324  24.518  54.136  1.00  0.00    -0.268 N 
HETATM   22  C   UNL     1       6.354  25.311  54.720  1.00  0.00     0.052 A 
BRANCH  21  23
HETATM   23  C   UNL     1       7.762  23.187  54.558  1.00  0.00     0.106 C 
HETATM   24  C   UNL     1       8.234  22.393  53.337  1.00  0.00     0.034 C 
BRANCH  23  25
HETATM   25  C   UNL     1       8.850  23.189  55.652  1.00  0.00     0.022 C 
HETATM   26  C   UNL     1       8.442  22.406  56.893  1.00  0.00     0.007 C 
ENDBRANCH  23  25
ENDBRANCH  21  23
BRANCH  22  27
HETATM   27  C   UNL     1       5.643  24.959  56.032  1.00  0.00     0.038 A 
HETATM   28  C   UNL     1       6.253  25.414  57.338  1.00  0.00     0.011 A 
HETATM   29  C   UNL     1       4.956  25.998  56.881  1.00  0.00     0.011 A 
ENDBRANCH  22  27
ENDBRANCH   1  18
TORSDOF 8
ENDMDL
MODEL 2
REMARK VINA RESULT:      -7.6      0.950      2.232
REMARK  8 active torsions:
REMARK  status: ('A' for Active; 'I' for Inactive)
REMARK    1  A    between atoms: C_2  and  C_3 
REMARK    2  A    between atoms: C_3  and  N_4 
REMARK    3  A    between atoms: C_7  and  C_8 
REMARK       I    between atoms: C_8  and  N_9 
REMARK    4  A    between atoms: N_9  and  C_10 
REMARK    5  A    between atoms: C_13  and  O_14 
REMARK    6  A    between atoms: O_14  and  C_15 
REMARK    7  A    between atoms: C_15  and  C_16 
REMARK       I    between atoms: C_16  and  N_17 
REMARK    8  A    between atoms: C_23  and  C_24 
ROOT
HETATM    1  C   UNL     1       5.332  27.520  54.566  1.00  0.00     0.259 C 
HETATM    2  N   UNL     1       5.718  28.733  55.096  1.00  0.00    -0.323 N 
HETATM    3  O   UNL     1       4.416  27.556  53.743  1.00  0.00    -0.267 OA
HETATM    4  H   UNL     1       5.088  29.451  54.760  1.00  0.00     0.169 HD
ENDROOT
BRANCH   2   5
HETATM    5  C   UNL     1       6.707  29.159  55.999  1.00  0.00     0.035 A 
HETATM    6  C   UNL     1       8.080  29.026  55.828  1.00  0.00     0.032 A 
HETATM    7  C   UNL     1       8.960  29.362  56.869  1.00  0.00     0.039 A 
HETATM    8  C   UNL     1       8.485  29.878  58.075  1.00  0.00     0.069 A 
HETATM    9  C   UNL     1       7.123  30.137  58.199  1.00  0.00     0.039 A 
HETATM   10  C   UNL     1       6.245  29.773  57.172  1.00  0.00     0.032 A 
BRANCH   8  11
HETATM   11  O   UNL     1       9.435  30.069  59.039  1.00  0.00    -0.342 OA
BRANCH  11  12
HETATM   12  C   UNL     1       9.405  31.299  59.759  1.00  0.00     0.278 C 
BRANCH  12  13
HETATM   13  C   UNL     1       9.020  31.079  61.222  1.00  0.00     0.241 C 
HETATM   14  N   UNL     1       8.340  32.136  61.789  1.00  0.00    -0.364 N 
HETATM   15  C   UNL     1       8.069  32.206  63.201  1.00  0.00     0.149 C 
HETATM   16  H   UNL     1       8.132  32.934  61.198  1.00  0.00     0.161 HD
HETATM   17  O   UNL     1       9.382  30.089  61.853  1.00  0.00    -0.271 OA
ENDBRANCH  12  13
ENDBRANCH  11  12
ENDBRANCH   8  11
ENDBRANCH   2   5
BRANCH   1  18
HETATM   18  C   UNL     1       5.912  26.272  55.016  1.00  0.00     0.076 A 
HETATM   19  C   UNL     1       5.531  25.550  56.172  1.00  0.00     0.158 A 
HETATM   20  N   UNL     1       6.286  24.477  56.393  1.00  0.00    -0.183 NA
HETATM   21  N   UNL     1       7.103  24.434  55.321  1.00  0.00    -0.268 N 
HETATM   22  C   UNL     1       6.884  25.466  54.428  1.00  0.00     0.052 A 
BRANCH  21  23
HETATM   23  C   UNL     1       8.134  23.398  55.251  1.00  0.00     0.106 C 
HETATM   24  C   UNL     1       9.059  23.514  56.467  1.00  0.00     0.034 C 
BRANCH  23  25
HETATM   25  C   UNL     1       7.588  21.961  55.127  1.00  0.00     0.022 C 
HETATM   26  C   UNL     1       8.101  21.238  53.888  1.00  0.00     0.007 C 
ENDBRANCH  23  25
ENDBRANCH  21  23
BRANCH  22  27
HETATM   27  C   UNL     1       7.637  25.620  53.102  1.00  0.00     0.038 A 
HETATM   28  C   UNL     1       7.658  24.458  52.135  1.00  0.00     0.011 A 
HETATM   29  C   UNL     1       6.927  25.711  51.776  1.00  0.00     0.011 A 
ENDBRANCH  22  27
ENDBRANCH   1  18
TORSDOF 8
ENDMDL
MODEL 3
REMARK VINA RESULT:      -7.5      3.258      8.173
REMARK  8 active torsions:
REMARK  status: ('A' for Active; 'I' for Inactive)
REMARK    1  A    between atoms: C_2  and  C_3 
REMARK    2  A    between atoms: C_3  and  N_4 
REMARK    3  A    between atoms: C_7  and  C_8 
REMARK       I    between atoms: C_8  and  N_9 
REMARK    4  A    between atoms: N_9  and  C_10 
REMARK    5  A    between atoms: C_13  and  O_14 
REMARK    6  A    between atoms: O_14  and  C_15 
REMARK    7  A    between atoms: C_15  and  C_16 
REMARK       I    between atoms: C_16  and  N_17 
REMARK    8  A    between atoms: C_23  and  C_24 
ROOT
HETATM    1  C   UNL     1       5.279  25.854  56.557  1.00  0.00     0.259 C 
HETATM    2  N   UNL     1       4.877  25.608  55.261  1.00  0.00    -0.323 N 
HETATM    3  O   UNL     1       4.799  25.119  57.421  1.00  0.00    -0.267 OA
HETATM    4  H   UNL     1       4.160  24.893  55.273  1.00  0.00     0.169 HD
ENDROOT
BRANCH   2   5
HETATM    5  C   UNL     1       5.185  26.147  54.000  1.00  0.00     0.035 A 
HETATM    6  C   UNL     1       5.266  27.499  53.688  1.00  0.00     0.032 A 
HETATM    7  C   UNL     1       5.440  27.911  52.357  1.00  0.00     0.039 A 
HETATM    8  C   UNL     1       5.581  26.980  51.328  1.00  0.00     0.069 A 
HETATM    9  C   UNL     1       5.634  25.628  51.655  1.00  0.00     0.039 A 
HETATM   10  C   UNL     1       5.431  25.219  52.978  1.00  0.00     0.032 A 
BRANCH   8  11
HETATM   11  O   UNL     1       5.643  27.510  50.071  1.00  0.00    -0.342 OA
BRANCH  11  12
HETATM   12  C   UNL     1       4.411  27.745  49.393  1.00  0.00     0.278 C 
BRANCH  12  13
HETATM   13  C   UNL     1       4.138  26.670  48.343  1.00  0.00     0.241 C 
HETATM   14  N   UNL     1       3.174  25.755  48.712  1.00  0.00    -0.364 N 
HETATM   15  C   UNL     1       2.919  24.559  47.953  1.00  0.00     0.149 C 
HETATM   16  H   UNL     1       2.718  25.887  49.609  1.00  0.00     0.161 HD
HETATM   17  O   UNL     1       4.801  26.578  47.312  1.00  0.00    -0.271 OA
ENDBRANCH  12  13
ENDBRANCH  11  12
ENDBRANCH   8  11
ENDBRANCH   2   5
BRANCH   1  18
HETATM   18  C   UNL     1       6.147  26.965  56.888  1.00  0.00     0.076 A 
HETATM   19  C   UNL     1       5.726  28.257  57.281  1.00  0.00     0.158 A 
HETATM   20  N   UNL     1       6.734  29.109  57.447  1.00  0.00    -0.183 NA
HETATM   21  N   UNL     1       7.832  28.348  57.261  1.00  0.00    -0.268 N 
HETATM   22  C   UNL     1       7.536  27.029  56.972  1.00  0.00     0.052 A 
BRANCH  21  23
HETATM   23  C   UNL     1       9.152  28.977  57.306  1.00  0.00     0.106 C 
HETATM   24  C   UNL     1       9.542  29.449  55.902  1.00  0.00     0.034 C 
BRANCH  23  25
HETATM   25  C   UNL     1       9.273  30.136  58.316  1.00  0.00     0.022 C 
HETATM   26  C   UNL     1      10.382  31.117  57.961  1.00  0.00     0.007 C 
ENDBRANCH  23  25
ENDBRANCH  21  23
BRANCH  22  27
HETATM   27  C   UNL     1       8.598  25.942  56.771  1.00  0.00     0.038 A 
HETATM   28  C   UNL     1       8.647  24.781  57.739  1.00  0.00     0.011 A 
HETATM   29  C   UNL     1       8.250  24.548  56.318  1.00  0.00     0.011 A 
ENDBRANCH  22  27
ENDBRANCH   1  18
TORSDOF 8
ENDMDL
MODEL 4
REMARK VINA RESULT:      -7.5      3.291      8.305
REMARK  8 active torsions:
REMARK  status: ('A' for Active; 'I' for Inactive)
REMARK    1  A    between atoms: C_2  and  C_3 
REMARK    2  A    between atoms: C_3  and  N_4 
REMARK    3  A    between atoms: C_7  and  C_8 
REMARK       I    between atoms: C_8  and  N_9 
REMARK    4  A    between atoms: N_9  and  C_10 
REMARK    5  A    between atoms: C_13  and  O_14 
REMARK    6  A    between atoms: O_14  and  C_15 
REMARK    7  A    between atoms: C_15  and  C_16 
REMARK       I    between atoms: C_16  and  N_17 
REMARK    8  A    between atoms: C_23  and  C_24 
ROOT
HETATM    1  C   UNL     1       5.428  25.846  56.808  1.00  0.00     0.259 C 
HETATM    2  N   UNL     1       4.910  25.599  55.555  1.00  0.00    -0.323 N 
HETATM    3  O   UNL     1       4.856  25.294  57.749  1.00  0.00    -0.267 OA
HETATM    4  H   UNL     1       4.061  25.055  55.655  1.00  0.00     0.169 HD
ENDROOT
BRANCH   2   5
HETATM    5  C   UNL     1       5.250  25.969  54.242  1.00  0.00     0.035 A 
HETATM    6  C   UNL     1       5.865  27.157  53.862  1.00  0.00     0.032 A 
HETATM    7  C   UNL     1       6.022  27.470  52.503  1.00  0.00     0.039 A 
HETATM    8  C   UNL     1       5.611  26.584  51.507  1.00  0.00     0.069 A 
HETATM    9  C   UNL     1       5.118  25.339  51.885  1.00  0.00     0.039 A 
HETATM   10  C   UNL     1       4.935  25.040  53.240  1.00  0.00     0.032 A 
BRANCH   8  11
HETATM   11  O   UNL     1       5.728  27.052  50.229  1.00  0.00    -0.342 OA
BRANCH  11  12
HETATM   12  C   UNL     1       4.531  27.430  49.553  1.00  0.00     0.278 C 
BRANCH  12  13
HETATM   13  C   UNL     1       4.208  26.466  48.412  1.00  0.00     0.241 C 
HETATM   14  N   UNL     1       3.145  25.626  48.671  1.00  0.00    -0.364 N 
HETATM   15  C   UNL     1       2.815  24.519  47.812  1.00  0.00     0.149 C 
HETATM   16  H   UNL     1       2.662  25.736  49.556  1.00  0.00     0.161 HD
HETATM   17  O   UNL     1       4.907  26.385  47.405  1.00  0.00    -0.271 OA
ENDBRANCH  12  13
ENDBRANCH  11  12
ENDBRANCH   8  11
ENDBRANCH   2   5
BRANCH   1  18
HETATM   18  C   UNL     1       6.526  26.768  57.011  1.00  0.00     0.076 A 
HETATM   19  C   UNL     1       7.902  26.436  56.993  1.00  0.00     0.158 A 
HETATM   20  N   UNL     1       8.693  27.463  57.290  1.00  0.00    -0.183 NA
HETATM   21  N   UNL     1       7.842  28.502  57.404  1.00  0.00    -0.268 N 
HETATM   22  C   UNL     1       6.522  28.149  57.191  1.00  0.00     0.052 A 
BRANCH  21  23
HETATM   23  C   UNL     1       8.363  29.813  57.792  1.00  0.00     0.106 C 
HETATM   24  C   UNL     1       8.217  29.993  59.306  1.00  0.00     0.034 C 
BRANCH  23  25
HETATM   25  C   UNL     1       9.820  30.074  57.358  1.00  0.00     0.022 C 
HETATM   26  C   UNL     1      10.437  31.281  58.054  1.00  0.00     0.007 C 
ENDBRANCH  23  25
ENDBRANCH  21  23
BRANCH  22  27
HETATM   27  C   UNL     1       5.360  29.148  57.207  1.00  0.00     0.038 A 
HETATM   28  C   UNL     1       5.203  30.104  56.046  1.00  0.00     0.011 A 
HETATM   29  C   UNL     1       4.185  29.035  56.270  1.00  0.00     0.011 A 
ENDBRANCH  22  27
ENDBRANCH   1  18
TORSDOF 8
ENDMDL
MODEL 5
REMARK VINA RESULT:      -7.4      5.503     11.717
REMARK  8 active torsions:
REMARK  status: ('A' for Active; 'I' for Inactive)
REMARK    1  A    between atoms: C_2  and  C_3 
REMARK    2  A    between atoms: C_3  and  N_4 
REMARK    3  A    between atoms: C_7  and  C_8 
REMARK       I    between atoms: C_8  and  N_9 
REMARK    4  A    between atoms: N_9  and  C_10 
REMARK    5  A    between atoms: C_13  and  O_14 
REMARK    6  A    between atoms: O_14  and  C_15 
REMARK    7  A    between atoms: C_15  and  C_16 
REMARK       I    between atoms: C_16  and  N_17 
REMARK    8  A    between atoms: C_23  and  C_24 
ROOT
HETATM    1  C   UNL     1       3.889  35.010  65.238  1.00  0.00     0.259 C 
HETATM    2  N   UNL     1       4.535  33.792  65.196  1.00  0.00    -0.323 N 
HETATM    3  O   UNL     1       3.084  35.164  66.157  1.00  0.00    -0.267 OA
HETATM    4  H   UNL     1       4.143  33.191  65.911  1.00  0.00     0.169 HD
ENDROOT
BRANCH   2   5
HETATM    5  C   UNL     1       5.524  33.213  64.382  1.00  0.00     0.035 A 
HETATM    6  C   UNL     1       5.302  32.326  63.335  1.00  0.00     0.032 A 
HETATM    7  C   UNL     1       6.383  31.705  62.691  1.00  0.00     0.039 A 
HETATM    8  C   UNL     1       7.700  31.996  63.051  1.00  0.00     0.069 A 
HETATM    9  C   UNL     1       7.927  32.981  64.007  1.00  0.00     0.039 A 
HETATM   10  C   UNL     1       6.847  33.577  64.669  1.00  0.00     0.032 A 
BRANCH   8  11
HETATM   11  O   UNL     1       8.653  31.250  62.417  1.00  0.00    -0.342 OA
BRANCH  11  12
HETATM   12  C   UNL     1       9.471  31.909  61.452  1.00  0.00     0.278 C 
BRANCH  12  13
HETATM   13  C   UNL     1       9.012  31.600  60.028  1.00  0.00     0.241 C 
HETATM   14  N   UNL     1       8.395  30.374  59.890  1.00  0.00    -0.364 N 
HETATM   15  C   UNL     1       8.075  29.817  58.602  1.00  0.00     0.149 C 
HETATM   16  H   UNL     1       8.273  29.812  60.725  1.00  0.00     0.161 HD
HETATM   17  O   UNL     1       9.272  32.339  59.081  1.00  0.00    -0.271 OA
ENDBRANCH  12  13
ENDBRANCH  11  12
ENDBRANCH   8  11
ENDBRANCH   2   5
BRANCH   1  18
HETATM   18  C   UNL     1       4.085  36.012  64.211  1.00  0.00     0.076 A 
HETATM   19  C   UNL     1       5.068  37.030  64.222  1.00  0.00     0.158 A 
HETATM   20  N   UNL     1       4.971  37.864  63.191  1.00  0.00    -0.183 NA
HETATM   21  N   UNL     1       3.982  37.335  62.441  1.00  0.00    -0.268 N 
HETATM   22  C   UNL     1       3.447  36.182  62.985  1.00  0.00     0.052 A 
BRANCH  21  23
HETATM   23  C   UNL     1       3.549  38.037  61.233  1.00  0.00     0.106 C 
HETATM   24  C   UNL     1       3.112  39.459  61.596  1.00  0.00     0.034 C 
BRANCH  23  25
HETATM   25  C   UNL     1       4.599  38.070  60.103  1.00  0.00     0.022 C 
HETATM   26  C   UNL     1       4.118  37.386  58.829  1.00  0.00     0.007 C 
ENDBRANCH  23  25
ENDBRANCH  21  23
BRANCH  22  27
HETATM   27  C   UNL     1       2.350  35.352  62.308  1.00  0.00     0.038 A 
HETATM   28  C   UNL     1       2.741  34.100  61.555  1.00  0.00     0.011 A 
HETATM   29  C   UNL     1       1.941  33.992  62.812  1.00  0.00     0.011 A 
ENDBRANCH  22  27
ENDBRANCH   1  18
TORSDOF 8
ENDMDL
MODEL 6
REMARK VINA RESULT:      -7.3      2.536      8.692
REMARK  8 active torsions:
REMARK  status: ('A' for Active; 'I' for Inactive)
REMARK    1  A    between atoms: C_2  and  C_3 
REMARK    2  A    between atoms: C_3  and  N_4 
REMARK    3  A    between atoms: C_7  and  C_8 
REMARK       I    between atoms: C_8  and  N_9 
REMARK    4  A    between atoms: N_9  and  C_10 
REMARK    5  A    between atoms: C_13  and  O_14 
REMARK    6  A    between atoms: O_14  and  C_15 
REMARK    7  A    between atoms: C_15  and  C_16 
REMARK       I    between atoms: C_16  and  N_17 
REMARK    8  A    between atoms: C_23  and  C_24 
ROOT
HETATM    1  C   UNL     1       9.312  31.307  58.440  1.00  0.00     0.259 C 
HETATM    2  N   UNL     1       9.457  30.182  57.657  1.00  0.00    -0.323 N 
HETATM    3  O   UNL     1      10.324  31.991  58.599  1.00  0.00    -0.267 OA
HETATM    4  H   UNL     1      10.436  30.074  57.421  1.00  0.00     0.169 HD
ENDROOT
BRANCH   2   5
HETATM    5  C   UNL     1       8.599  29.171  57.190  1.00  0.00     0.035 A 
HETATM    6  C   UNL     1       7.964  28.214  57.973  1.00  0.00     0.032 A 
HETATM    7  C   UNL     1       7.246  27.169  57.371  1.00  0.00     0.039 A 
HETATM    8  C   UNL     1       7.112  27.092  55.984  1.00  0.00     0.069 A 
HETATM    9  C   UNL     1       7.633  28.121  55.207  1.00  0.00     0.039 A 
HETATM   10  C   UNL     1       8.374  29.146  55.807  1.00  0.00     0.032 A 
BRANCH   8  11
HETATM   11  O   UNL     1       6.475  25.974  55.524  1.00  0.00    -0.342 OA
BRANCH  11  12
HETATM   12  C   UNL     1       6.829  24.724  56.112  1.00  0.00     0.278 C 
BRANCH  12  13
HETATM   13  C   UNL     1       7.768  23.928  55.207  1.00  0.00     0.241 C 
HETATM   14  N   UNL     1       7.169  23.447  54.061  1.00  0.00    -0.364 N 
HETATM   15  C   UNL     1       7.826  22.511  53.186  1.00  0.00     0.149 C 
HETATM   16  H   UNL     1       6.194  23.681  53.905  1.00  0.00     0.161 HD
HETATM   17  O   UNL     1       8.921  23.658  55.534  1.00  0.00    -0.271 OA
ENDBRANCH  12  13
ENDBRANCH  11  12
ENDBRANCH   8  11
ENDBRANCH   2   5
BRANCH   1  18
HETATM   18  C   UNL     1       8.062  31.618  59.103  1.00  0.00     0.076 A 
HETATM   19  C   UNL     1       6.798  31.737  58.478  1.00  0.00     0.158 A 
HETATM   20  N   UNL     1       5.833  32.110  59.313  1.00  0.00    -0.183 NA
HETATM   21  N   UNL     1       6.442  32.140  60.515  1.00  0.00    -0.268 N 
HETATM   22  C   UNL     1       7.780  31.798  60.455  1.00  0.00     0.052 A 
BRANCH  21  23
HETATM   23  C   UNL     1       5.685  32.579  61.688  1.00  0.00     0.106 C 
HETATM   24  C   UNL     1       5.973  34.059  61.958  1.00  0.00     0.034 C 
BRANCH  23  25
HETATM   25  C   UNL     1       4.165  32.335  61.595  1.00  0.00     0.022 C 
HETATM   26  C   UNL     1       3.355  33.335  62.409  1.00  0.00     0.007 C 
ENDBRANCH  23  25
ENDBRANCH  21  23
BRANCH  22  27
HETATM   27  C   UNL     1       8.690  31.698  61.685  1.00  0.00     0.038 A 
HETATM   28  C   UNL     1       8.412  30.627  62.714  1.00  0.00     0.011 A 
HETATM   29  C   UNL     1       9.653  30.557  61.886  1.00  0.00     0.011 A 
ENDBRANCH  22  27
ENDBRANCH   1  18
TORSDOF 8
ENDMDL
MODEL 7
REMARK VINA RESULT:      -7.2      5.941     11.033
REMARK  8 active torsions:
REMARK  status: ('A' for Active; 'I' for Inactive)
REMARK    1  A    between atoms: C_2  and  C_3 
REMARK    2  A    between atoms: C_3  and  N_4 
REMARK    3  A    between atoms: C_7  and  C_8 
REMARK       I    between atoms: C_8  and  N_9 
REMARK    4  A    between atoms: N_9  and  C_10 
REMARK    5  A    between atoms: C_13  and  O_14 
REMARK    6  A    between atoms: O_14  and  C_15 
REMARK    7  A    between atoms: C_15  and  C_16 
REMARK       I    between atoms: C_16  and  N_17 
REMARK    8  A    between atoms: C_23  and  C_24 
ROOT
HETATM    1  C   UNL     1       3.665  34.385  64.916  1.00  0.00     0.259 C 
HETATM    2  N   UNL     1       4.779  33.608  65.155  1.00  0.00    -0.323 N 
HETATM    3  O   UNL     1       3.046  34.765  65.910  1.00  0.00    -0.267 OA
HETATM    4  H   UNL     1       4.832  33.412  66.148  1.00  0.00     0.169 HD
ENDROOT
BRANCH   2   5
HETATM    5  C   UNL     1       5.771  33.010  64.359  1.00  0.00     0.035 A 
HETATM    6  C   UNL     1       7.142  33.207  64.480  1.00  0.00     0.032 A 
HETATM    7  C   UNL     1       8.022  32.664  63.531  1.00  0.00     0.039 A 
HETATM    8  C   UNL     1       7.551  31.881  62.477  1.00  0.00     0.069 A 
HETATM    9  C   UNL     1       6.195  31.573  62.429  1.00  0.00     0.039 A 
HETATM   10  C   UNL     1       5.316  32.140  63.359  1.00  0.00     0.032 A 
BRANCH   8  11
HETATM   11  O   UNL     1       8.499  31.499  61.569  1.00  0.00    -0.342 OA
BRANCH  11  12
HETATM   12  C   UNL     1       8.048  31.056  60.292  1.00  0.00     0.278 C 
BRANCH  12  13
HETATM   13  C   UNL     1       9.060  31.390  59.197  1.00  0.00     0.241 C 
HETATM   14  N   UNL     1       9.421  30.312  58.417  1.00  0.00    -0.364 N 
HETATM   15  C   UNL     1      10.504  30.376  57.471  1.00  0.00     0.149 C 
HETATM   16  H   UNL     1       8.975  29.421  58.609  1.00  0.00     0.161 HD
HETATM   17  O   UNL     1       9.577  32.501  59.099  1.00  0.00    -0.271 OA
ENDBRANCH  12  13
ENDBRANCH  11  12
ENDBRANCH   8  11
ENDBRANCH   2   5
BRANCH   1  18
HETATM   18  C   UNL     1       3.206  34.663  63.571  1.00  0.00     0.076 A 
HETATM   19  C   UNL     1       1.984  34.226  63.005  1.00  0.00     0.158 A 
HETATM   20  N   UNL     1       1.852  34.557  61.723  1.00  0.00    -0.183 NA
HETATM   21  N   UNL     1       2.945  35.304  61.470  1.00  0.00    -0.268 N 
HETATM   22  C   UNL     1       3.773  35.446  62.569  1.00  0.00     0.052 A 
BRANCH  21  23
HETATM   23  C   UNL     1       3.172  35.801  60.112  1.00  0.00     0.106 C 
HETATM   24  C   UNL     1       3.712  34.666  59.237  1.00  0.00     0.034 C 
BRANCH  23  25
HETATM   25  C   UNL     1       1.935  36.446  59.454  1.00  0.00     0.022 C 
HETATM   26  C   UNL     1       1.498  35.726  58.185  1.00  0.00     0.007 C 
ENDBRANCH  23  25
ENDBRANCH  21  23
BRANCH  22  27
HETATM   27  C   UNL     1       5.052  36.291  62.568  1.00  0.00     0.038 A 
HETATM   28  C   UNL     1       4.932  37.797  62.630  1.00  0.00     0.011 A 
HETATM   29  C   UNL     1       5.518  37.050  63.784  1.00  0.00     0.011 A 
ENDBRANCH  22  27
ENDBRANCH   1  18
TORSDOF 8
ENDMDL
MODEL 8
REMARK VINA RESULT:      -7.1      3.519      6.907
REMARK  8 active torsions:
REMARK  status: ('A' for Active; 'I' for Inactive)
REMARK    1  A    between atoms: C_2  and  C_3 
REMARK    2  A    between atoms: C_3  and  N_4 
REMARK    3  A    between atoms: C_7  and  C_8 
REMARK       I    between atoms: C_8  and  N_9 
REMARK    4  A    between atoms: N_9  and  C_10 
REMARK    5  A    between atoms: C_13  and  O_14 
REMARK    6  A    between atoms: O_14  and  C_15 
REMARK    7  A    between atoms: C_15  and  C_16 
REMARK       I    between atoms: C_16  and  N_17 
REMARK    8  A    between atoms: C_23  and  C_24 
ROOT
HETATM    1  C   UNL     1       9.093  32.011  59.179  1.00  0.00     0.259 C 
HETATM    2  N   UNL     1       8.780  32.606  60.382  1.00  0.00    -0.323 N 
HETATM    3  O   UNL     1      10.187  32.306  58.696  1.00  0.00    -0.267 OA
HETATM    4  H   UNL     1       9.505  33.276  60.612  1.00  0.00     0.169 HD
ENDROOT
BRANCH   2   5
HETATM    5  C   UNL     1       7.703  32.536  61.282  1.00  0.00     0.035 A 
HETATM    6  C   UNL     1       6.488  33.199  61.153  1.00  0.00     0.032 A 
HETATM    7  C   UNL     1       5.546  33.160  62.194  1.00  0.00     0.039 A 
HETATM    8  C   UNL     1       5.784  32.424  63.355  1.00  0.00     0.069 A 
HETATM    9  C   UNL     1       6.941  31.653  63.429  1.00  0.00     0.039 A 
HETATM   10  C   UNL     1       7.892  31.717  62.404  1.00  0.00     0.032 A 
BRANCH   8  11
HETATM   11  O   UNL     1       4.834  32.552  64.328  1.00  0.00    -0.342 OA
BRANCH  11  12
HETATM   12  C   UNL     1       4.713  33.819  64.969  1.00  0.00     0.278 C 
BRANCH  12  13
HETATM   13  C   UNL     1       5.569  33.889  66.233  1.00  0.00     0.241 C 
HETATM   14  N   UNL     1       4.841  33.913  67.404  1.00  0.00    -0.364 N 
HETATM   15  C   UNL     1       5.450  34.178  68.681  1.00  0.00     0.149 C 
HETATM   16  H   UNL     1       3.831  33.852  67.332  1.00  0.00     0.161 HD
HETATM   17  O   UNL     1       6.790  34.019  66.191  1.00  0.00    -0.271 OA
ENDBRANCH  12  13
ENDBRANCH  11  12
ENDBRANCH   8  11
ENDBRANCH   2   5
BRANCH   1  18
HETATM   18  C   UNL     1       8.152  31.156  58.484  1.00  0.00     0.076 A 
HETATM   19  C   UNL     1       6.760  31.380  58.365  1.00  0.00     0.158 A 
HETATM   20  N   UNL     1       6.121  30.393  57.743  1.00  0.00    -0.183 NA
HETATM   21  N   UNL     1       7.111  29.562  57.359  1.00  0.00    -0.268 N 
HETATM   22  C   UNL     1       8.366  30.002  57.735  1.00  0.00     0.052 A 
BRANCH  21  23
HETATM   23  C   UNL     1       6.769  28.308  56.686  1.00  0.00     0.106 C 
HETATM   24  C   UNL     1       5.377  27.851  57.133  1.00  0.00     0.034 C 
BRANCH  23  25
HETATM   25  C   UNL     1       6.847  28.369  55.147  1.00  0.00     0.022 C 
HETATM   26  C   UNL     1       7.411  27.093  54.533  1.00  0.00     0.007 C 
ENDBRANCH  23  25
ENDBRANCH  21  23
BRANCH  22  27
HETATM   27  C   UNL     1       9.666  29.274  57.376  1.00  0.00     0.038 A 
HETATM   28  C   UNL     1      10.279  29.502  56.013  1.00  0.00     0.011 A 
HETATM   29  C   UNL     1      10.983  29.995  57.235  1.00  0.00     0.011 A 
ENDBRANCH  22  27
ENDBRANCH   1  18
TORSDOF 8
ENDMDL
MODEL 9
REMARK VINA RESULT:      -7.1      2.927      8.500
REMARK  8 active torsions:
REMARK  status: ('A' for Active; 'I' for Inactive)
REMARK    1  A    between atoms: C_2  and  C_3 
REMARK    2  A    between atoms: C_3  and  N_4 
REMARK    3  A    between atoms: C_7  and  C_8 
REMARK       I    between atoms: C_8  and  N_9 
REMARK    4  A    between atoms: N_9  and  C_10 
REMARK    5  A    between atoms: C_13  and  O_14 
REMARK    6  A    between atoms: O_14  and  C_15 
REMARK    7  A    between atoms: C_15  and  C_16 
REMARK       I    between atoms: C_16  and  N_17 
REMARK    8  A    between atoms: C_23  and  C_24 
ROOT
HETATM    1  C   UNL     1       7.626  26.331  56.869  1.00  0.00     0.259 C 
HETATM    2  N   UNL     1       7.642  25.434  55.822  1.00  0.00    -0.323 N 
HETATM    3  O   UNL     1       8.326  26.041  57.840  1.00  0.00    -0.267 OA
HETATM    4  H   UNL     1       8.182  24.622  56.097  1.00  0.00     0.169 HD
ENDROOT
BRANCH   2   5
HETATM    5  C   UNL     1       7.053  25.376  54.547  1.00  0.00     0.035 A 
HETATM    6  C   UNL     1       7.661  25.740  53.351  1.00  0.00     0.032 A 
HETATM    7  C   UNL     1       6.919  25.772  52.160  1.00  0.00     0.039 A 
HETATM    8  C   UNL     1       5.575  25.398  52.138  1.00  0.00     0.069 A 
HETATM    9  C   UNL     1       5.001  24.906  53.307  1.00  0.00     0.039 A 
HETATM   10  C   UNL     1       5.734  24.903  54.499  1.00  0.00     0.032 A 
BRANCH   8  11
HETATM   11  O   UNL     1       4.944  25.570  50.939  1.00  0.00    -0.342 OA
BRANCH  11  12
HETATM   12  C   UNL     1       5.146  26.808  50.260  1.00  0.00     0.278 C 
BRANCH  12  13
HETATM   13  C   UNL     1       4.421  26.830  48.914  1.00  0.00     0.241 C 
HETATM   14  N   UNL     1       3.486  25.827  48.763  1.00  0.00    -0.364 N 
HETATM   15  C   UNL     1       2.847  25.556  47.502  1.00  0.00     0.149 C 
HETATM   16  H   UNL     1       3.340  25.197  49.545  1.00  0.00     0.161 HD
HETATM   17  O   UNL     1       4.729  27.610  48.017  1.00  0.00    -0.271 OA
ENDBRANCH  12  13
ENDBRANCH  11  12
ENDBRANCH   8  11
ENDBRANCH   2   5
BRANCH   1  18
HETATM   18  C   UNL     1       6.771  27.499  56.859  1.00  0.00     0.076 A 
HETATM   19  C   UNL     1       5.371  27.504  57.069  1.00  0.00     0.158 A 
HETATM   20  N   UNL     1       4.823  28.708  56.924  1.00  0.00    -0.183 NA
HETATM   21  N   UNL     1       5.880  29.519  56.718  1.00  0.00    -0.268 N 
HETATM   22  C   UNL     1       7.089  28.848  56.722  1.00  0.00     0.052 A 
BRANCH  21  23
HETATM   23  C   UNL     1       5.649  30.939  56.451  1.00  0.00     0.106 C 
HETATM   24  C   UNL     1       4.661  31.086  55.290  1.00  0.00     0.034 C 
BRANCH  23  25
HETATM   25  C   UNL     1       5.167  31.748  57.673  1.00  0.00     0.022 C 
HETATM   26  C   UNL     1       6.244  31.910  58.737  1.00  0.00     0.007 C 
ENDBRANCH  23  25
ENDBRANCH  21  23
BRANCH  22  27
HETATM   27  C   UNL     1       8.448  29.541  56.566  1.00  0.00     0.038 A 
HETATM   28  C   UNL     1       9.223  29.918  57.809  1.00  0.00     0.011 A 
HETATM   29  C   UNL     1       9.747  28.854  56.900  1.00  0.00     0.011 A 
ENDBRANCH  22  27
ENDBRANCH   1  18
TORSDOF 8
ENDMDL
MODEL 10
REMARK VINA RESULT:      -6.9      7.305     11.058
REMARK  8 active torsions:
REMARK  status: ('A' for Active; 'I' for Inactive)
REMARK    1  A    between atoms: C_2  and  C_3 
REMARK    2  A    between atoms: C_3  and  N_4 
REMARK    3  A    between atoms: C_7  and  C_8 
REMARK       I    between atoms: C_8  and  N_9 
REMARK    4  A    between atoms: N_9  and  C_10 
REMARK    5  A    between atoms: C_13  and  O_14 
REMARK    6  A    between atoms: O_14  and  C_15 
REMARK    7  A    between atoms: C_15  and  C_16 
REMARK       I    between atoms: C_16  and  N_17 
REMARK    8  A    between atoms: C_23  and  C_24 
ROOT
HETATM    1  C   UNL     1       3.233  34.326  63.002  1.00  0.00     0.259 C 
HETATM    2  N   UNL     1       3.251  35.626  63.462  1.00  0.00    -0.323 N 
HETATM    3  O   UNL     1       2.384  33.587  63.502  1.00  0.00    -0.267 OA
HETATM    4  H   UNL     1       2.590  35.711  64.224  1.00  0.00     0.169 HD
ENDROOT
BRANCH   2   5
HETATM    5  C   UNL     1       3.989  36.783  63.159  1.00  0.00     0.035 A 
HETATM    6  C   UNL     1       3.601  37.794  62.288  1.00  0.00     0.032 A 
HETATM    7  C   UNL     1       4.491  38.828  61.960  1.00  0.00     0.039 A 
HETATM    8  C   UNL     1       5.763  38.892  62.532  1.00  0.00     0.069 A 
HETATM    9  C   UNL     1       6.104  37.957  63.504  1.00  0.00     0.039 A 
HETATM   10  C   UNL     1       5.226  36.910  63.807  1.00  0.00     0.032 A 
BRANCH   8  11
HETATM   11  O   UNL     1       6.564  39.889  62.053  1.00  0.00    -0.342 OA
BRANCH  11  12
HETATM   12  C   UNL     1       7.639  40.327  62.882  1.00  0.00     0.278 C 
BRANCH  12  13
HETATM   13  C   UNL     1       7.181  41.405  63.864  1.00  0.00     0.241 C 
HETATM   14  N   UNL     1       7.515  41.147  65.177  1.00  0.00    -0.364 N 
HETATM   15  C   UNL     1       7.002  41.934  66.268  1.00  0.00     0.149 C 
HETATM   16  H   UNL     1       8.047  40.305  65.371  1.00  0.00     0.161 HD
HETATM   17  O   UNL     1       6.487  42.357  63.515  1.00  0.00    -0.271 OA
ENDBRANCH  12  13
ENDBRANCH  11  12
ENDBRANCH   8  11
ENDBRANCH   2   5
BRANCH   1  18
HETATM   18  C   UNL     1       4.211  33.840  62.051  1.00  0.00     0.076 A 
HETATM   19  C   UNL     1       4.199  34.076  60.656  1.00  0.00     0.158 A 
HETATM   20  N   UNL     1       5.174  33.444  60.009  1.00  0.00    -0.183 NA
HETATM   21  N   UNL     1       5.894  32.870  60.994  1.00  0.00    -0.268 N 
HETATM   22  C   UNL     1       5.387  33.122  62.255  1.00  0.00     0.052 A 
BRANCH  21  23
HETATM   23  C   UNL     1       7.034  32.022  60.643  1.00  0.00     0.106 C 
HETATM   24  C   UNL     1       6.866  31.505  59.211  1.00  0.00     0.034 C 
BRANCH  23  25
HETATM   25  C   UNL     1       8.409  32.700  60.813  1.00  0.00     0.022 C 
HETATM   26  C   UNL     1       9.408  31.829  61.564  1.00  0.00     0.007 C 
ENDBRANCH  23  25
ENDBRANCH  21  23
BRANCH  22  27
HETATM   27  C   UNL     1       6.045  32.635  63.550  1.00  0.00     0.038 A 
HETATM   28  C   UNL     1       7.193  33.429  64.130  1.00  0.00     0.011 A 
HETATM   29  C   UNL     1       5.890  33.366  64.859  1.00  0.00     0.011 A 
ENDBRANCH  22  27
ENDBRANCH   1  18
TORSDOF 8
ENDMDL
