MODEL 1
REMARK VINA RESULT:     -11.3      0.000      0.000
REMARK  7 active torsions:
REMARK  status: ('A' for Active; 'I' for Inactive)
REMARK    1  A    between atoms: C_3  and  N_4 
REMARK       I    between atoms: N_4  and  C_5 
REMARK    2  A    between atoms: C_5  and  C_6 
REMARK    3  A    between atoms: C_6  and  N_7 
REMARK    4  A    between atoms: N_10  and  C_11 
REMARK    5  A    between atoms: C_11  and  C_12 
REMARK    6  A    between atoms: C_27  and  C_28 
REMARK       I    between atoms: C_28  and  N_29 
REMARK    7  A    between atoms: N_29  and  C_30 
ROOT
HETATM    1  N   UNL     1       6.230  27.465  53.663  1.00  0.00    -0.290 N 
HETATM    2  C   UNL     1       6.933  27.374  54.855  1.00  0.00     0.332 C 
HETATM    3  O   UNL     1       8.029  26.807  54.866  1.00  0.00    -0.246 OA
HETATM    4  N   UNL     1       6.365  27.973  55.966  1.00  0.00    -0.261 N 
HETATM    5  C   UNL     1       5.377  28.945  55.880  1.00  0.00     0.264 C 
HETATM    6  O   UNL     1       4.972  29.605  56.835  1.00  0.00    -0.267 OA
HETATM    7  C   UNL     1       4.830  29.230  54.539  1.00  0.00     0.059 A 
HETATM    8  C   UNL     1       5.266  28.478  53.451  1.00  0.00     0.056 A 
HETATM    9  C   UNL     1       3.882  30.249  54.375  1.00  0.00     0.020 A 
HETATM   10  C   UNL     1       3.392  30.556  53.104  1.00  0.00     0.018 A 
HETATM   11  C   UNL     1       3.860  29.854  51.989  1.00  0.00     0.034 A 
HETATM   12  C   UNL     1       4.775  28.798  52.177  1.00  0.00     0.048 A 
ENDROOT
BRANCH   1  13
HETATM   13  C   UNL     1       6.460  26.413  52.667  1.00  0.00     0.237 C 
BRANCH  13  14
HETATM   14  C   UNL     1       6.318  24.947  53.093  1.00  0.00     0.240 C 
HETATM   15  N   UNL     1       7.511  24.321  53.385  1.00  0.00    -0.325 N 
HETATM   16  H   UNL     1       8.269  24.971  53.584  1.00  0.00     0.169 HD
HETATM   17  O   UNL     1       5.194  24.499  53.301  1.00  0.00    -0.271 OA
BRANCH  15  18
HETATM   18  C   UNL     1       7.729  22.994  53.823  1.00  0.00     0.040 A 
HETATM   19  C   UNL     1       7.812  22.545  55.154  1.00  0.00    -0.035 A 
HETATM   20  C   UNL     1       7.591  23.395  56.374  1.00  0.00     0.050 C 
HETATM   21  C   UNL     1       8.109  21.185  55.394  1.00  0.00     0.009 A 
HETATM   22  C   UNL     1       8.251  20.273  54.351  1.00  0.00     0.001 A 
HETATM   23  C   UNL     1       8.097  20.703  53.041  1.00  0.00     0.002 A 
HETATM   24  C   UNL     1       7.837  22.049  52.783  1.00  0.00     0.030 A 
ENDBRANCH  15  18
ENDBRANCH  13  14
ENDBRANCH   1  13
BRANCH   4  25
HETATM   25  C   UNL     1       7.030  27.819  57.260  1.00  0.00     0.175 C 
BRANCH  25  26
HETATM   26  C   UNL     1       7.951  28.958  57.652  1.00  0.00    -0.037 A 
HETATM   27  C   UNL     1       7.670  29.772  58.763  1.00  0.00     0.048 A 
HETATM   28  C   UNL     1       8.578  30.759  59.087  1.00  0.00     0.105 A 
HETATM   29  C   UNL     1       9.719  30.972  58.347  1.00  0.00     0.105 A 
HETATM   30  O   UNL     1       8.482  31.614  60.143  1.00  0.00    -0.323 OA
HETATM   31  O   UNL     1      10.481  31.983  58.843  1.00  0.00    -0.323 OA
HETATM   32  C   UNL     1      10.016  30.215  57.238  1.00  0.00     0.040 A 
HETATM   33  C   UNL     1       9.708  32.364  59.997  1.00  0.00     0.352 A 
HETATM   34  C   UNL     1       9.121  29.200  56.890  1.00  0.00     0.012 A 
ENDBRANCH  25  26
ENDBRANCH   4  25
BRANCH  11  35
HETATM   35  C   UNL     1       3.453  30.179  50.585  1.00  0.00     0.252 C 
HETATM   36  N   UNL     1       3.486  29.158  49.654  1.00  0.00    -0.352 N 
HETATM   37  H   UNL     1       3.658  28.211  49.951  1.00  0.00     0.163 HD
HETATM   38  O   UNL     1       3.077  31.315  50.319  1.00  0.00    -0.268 OA
BRANCH  36  39
HETATM   39  C   UNL     1       2.955  29.333  48.302  1.00  0.00     0.084 C 
HETATM   40  C   UNL     1       3.773  28.527  47.286  1.00  0.00     0.025 C 
HETATM   41  C   UNL     1       3.532  27.022  47.381  1.00  0.00     0.002 C 
HETATM   42  C   UNL     1       2.047  26.683  47.303  1.00  0.00     0.000 C 
HETATM   43  C   UNL     1       1.241  27.443  48.353  1.00  0.00     0.002 C 
HETATM   44  C   UNL     1       1.468  28.952  48.256  1.00  0.00     0.025 C 
ENDBRANCH  36  39
ENDBRANCH  11  35
TORSDOF 7
ENDMDL
MODEL 2
REMARK VINA RESULT:     -11.2      7.015     14.291
REMARK  7 active torsions:
REMARK  status: ('A' for Active; 'I' for Inactive)
REMARK    1  A    between atoms: C_3  and  N_4 
REMARK       I    between atoms: N_4  and  C_5 
REMARK    2  A    between atoms: C_5  and  C_6 
REMARK    3  A    between atoms: C_6  and  N_7 
REMARK    4  A    between atoms: N_10  and  C_11 
REMARK    5  A    between atoms: C_11  and  C_12 
REMARK    6  A    between atoms: C_27  and  C_28 
REMARK       I    between atoms: C_28  and  N_29 
REMARK    7  A    between atoms: N_29  and  C_30 
ROOT
HETATM    1  N   UNL     1       4.985  33.064  61.500  1.00  0.00    -0.290 N 
HETATM    2  C   UNL     1       5.509  32.872  60.231  1.00  0.00     0.332 C 
HETATM    3  O   UNL     1       4.881  33.281  59.252  1.00  0.00    -0.246 OA
HETATM    4  N   UNL     1       6.747  32.257  60.150  1.00  0.00    -0.261 N 
HETATM    5  C   UNL     1       7.626  32.180  61.222  1.00  0.00     0.264 C 
HETATM    6  O   UNL     1       8.788  31.786  61.136  1.00  0.00    -0.267 OA
HETATM    7  C   UNL     1       7.134  32.658  62.529  1.00  0.00     0.059 A 
HETATM    8  C   UNL     1       5.816  33.089  62.645  1.00  0.00     0.056 A 
HETATM    9  C   UNL     1       7.996  32.672  63.634  1.00  0.00     0.020 A 
HETATM   10  C   UNL     1       7.554  33.164  64.864  1.00  0.00     0.018 A 
HETATM   11  C   UNL     1       6.252  33.658  64.990  1.00  0.00     0.034 A 
HETATM   12  C   UNL     1       5.382  33.589  63.881  1.00  0.00     0.048 A 
ENDROOT
BRANCH   1  13
HETATM   13  C   UNL     1       3.525  33.148  61.617  1.00  0.00     0.237 C 
BRANCH  13  14
HETATM   14  C   UNL     1       2.866  34.530  61.665  1.00  0.00     0.240 C 
HETATM   15  N   UNL     1       3.574  35.522  61.021  1.00  0.00    -0.325 N 
HETATM   16  H   UNL     1       4.249  35.163  60.349  1.00  0.00     0.169 HD
HETATM   17  O   UNL     1       1.723  34.625  62.107  1.00  0.00    -0.271 OA
BRANCH  15  18
HETATM   18  C   UNL     1       3.238  36.887  60.862  1.00  0.00     0.040 A 
HETATM   19  C   UNL     1       3.643  37.958  61.680  1.00  0.00    -0.035 A 
HETATM   20  C   UNL     1       4.596  37.857  62.838  1.00  0.00     0.050 C 
HETATM   21  C   UNL     1       3.143  39.250  61.402  1.00  0.00     0.009 A 
HETATM   22  C   UNL     1       2.321  39.495  60.305  1.00  0.00     0.001 A 
HETATM   23  C   UNL     1       1.981  38.450  59.459  1.00  0.00     0.002 A 
HETATM   24  C   UNL     1       2.437  37.162  59.736  1.00  0.00     0.030 A 
ENDBRANCH  15  18
ENDBRANCH  13  14
ENDBRANCH   1  13
BRANCH   4  25
HETATM   25  C   UNL     1       7.291  31.953  58.826  1.00  0.00     0.175 C 
BRANCH  25  26
HETATM   26  C   UNL     1       6.942  30.580  58.284  1.00  0.00    -0.037 A 
HETATM   27  C   UNL     1       7.851  29.512  58.370  1.00  0.00     0.048 A 
HETATM   28  C   UNL     1       7.446  28.280  57.898  1.00  0.00     0.105 A 
HETATM   29  C   UNL     1       6.204  28.085  57.339  1.00  0.00     0.105 A 
HETATM   30  O   UNL     1       8.181  27.134  57.930  1.00  0.00    -0.323 OA
HETATM   31  O   UNL     1       6.002  26.798  56.950  1.00  0.00    -0.323 OA
HETATM   32  C   UNL     1       5.296  29.111  57.213  1.00  0.00     0.040 A 
HETATM   33  C   UNL     1       7.246  26.194  57.356  1.00  0.00     0.352 A 
HETATM   34  C   UNL     1       5.673  30.369  57.690  1.00  0.00     0.012 A 
ENDBRANCH  25  26
ENDBRANCH   4  25
BRANCH  11  35
HETATM   35  C   UNL     1       5.729  34.283  66.245  1.00  0.00     0.252 C 
HETATM   36  N   UNL     1       6.504  34.180  67.385  1.00  0.00    -0.352 N 
HETATM   37  H   UNL     1       7.439  33.808  67.326  1.00  0.00     0.163 HD
HETATM   38  O   UNL     1       4.661  34.884  66.215  1.00  0.00    -0.268 OA
BRANCH  36  39
HETATM   39  C   UNL     1       6.161  34.893  68.616  1.00  0.00     0.084 C 
HETATM   40  C   UNL     1       5.593  33.930  69.665  1.00  0.00     0.025 C 
HETATM   41  C   UNL     1       6.654  33.016  70.276  1.00  0.00     0.002 C 
HETATM   42  C   UNL     1       7.834  33.811  70.823  1.00  0.00     0.000 C 
HETATM   43  C   UNL     1       8.435  34.729  69.762  1.00  0.00     0.002 C 
HETATM   44  C   UNL     1       7.382  35.655  69.153  1.00  0.00     0.025 C 
ENDBRANCH  36  39
ENDBRANCH  11  35
TORSDOF 7
ENDMDL
MODEL 3
REMARK VINA RESULT:     -11.2      4.599      8.807
REMARK  7 active torsions:
REMARK  status: ('A' for Active; 'I' for Inactive)
REMARK    1  A    between atoms: C_3  and  N_4 
REMARK       I    between atoms: N_4  and  C_5 
REMARK    2  A    between atoms: C_5  and  C_6 
REMARK    3  A    between atoms: C_6  and  N_7 
REMARK    4  A    between atoms: N_10  and  C_11 
REMARK    5  A    between atoms: C_11  and  C_12 
REMARK    6  A    between atoms: C_27  and  C_28 
REMARK       I    between atoms: C_28  and  N_29 
REMARK    7  A    between atoms: N_29  and  C_30 
ROOT
HETATM    1  N   UNL     1       7.335  29.257  57.334  1.00  0.00    -0.290 N 
HETATM    2  C   UNL     1       6.546  30.363  57.058  1.00  0.00     0.332 C 
HETATM    3  O   UNL     1       7.088  31.448  56.834  1.00  0.00    -0.246 OA
HETATM    4  N   UNL     1       5.177  30.161  57.013  1.00  0.00    -0.261 N 
HETATM    5  C   UNL     1       4.601  28.908  56.847  1.00  0.00     0.264 C 
HETATM    6  O   UNL     1       3.403  28.720  56.643  1.00  0.00    -0.267 OA
HETATM    7  C   UNL     1       5.509  27.745  56.865  1.00  0.00     0.059 A 
HETATM    8  C   UNL     1       6.865  27.941  57.113  1.00  0.00     0.056 A 
HETATM    9  C   UNL     1       4.999  26.460  56.633  1.00  0.00     0.020 A 
HETATM   10  C   UNL     1       5.856  25.358  56.602  1.00  0.00     0.018 A 
HETATM   11  C   UNL     1       7.230  25.538  56.790  1.00  0.00     0.034 A 
HETATM   12  C   UNL     1       7.720  26.830  57.073  1.00  0.00     0.048 A 
ENDROOT
BRANCH   1  13
HETATM   13  C   UNL     1       8.643  29.503  57.951  1.00  0.00     0.237 C 
BRANCH  13  14
HETATM   14  C   UNL     1       8.768  30.613  59.001  1.00  0.00     0.240 C 
HETATM   15  N   UNL     1       7.782  30.600  59.964  1.00  0.00    -0.325 N 
HETATM   16  H   UNL     1       7.306  29.703  60.040  1.00  0.00     0.169 HD
HETATM   17  O   UNL     1       9.784  31.303  59.013  1.00  0.00    -0.271 OA
BRANCH  15  18
HETATM   18  C   UNL     1       7.619  31.461  61.074  1.00  0.00     0.040 A 
HETATM   19  C   UNL     1       8.210  31.327  62.344  1.00  0.00    -0.035 A 
HETATM   20  C   UNL     1       9.212  30.275  62.729  1.00  0.00     0.050 C 
HETATM   21  C   UNL     1       7.867  32.254  63.354  1.00  0.00     0.009 A 
HETATM   22  C   UNL     1       7.017  33.327  63.101  1.00  0.00     0.001 A 
HETATM   23  C   UNL     1       6.491  33.499  61.830  1.00  0.00     0.002 A 
HETATM   24  C   UNL     1       6.792  32.575  60.829  1.00  0.00     0.030 A 
ENDBRANCH  15  18
ENDBRANCH  13  14
ENDBRANCH   1  13
BRANCH   4  25
HETATM   25  C   UNL     1       4.306  31.320  56.817  1.00  0.00     0.175 C 
BRANCH  25  26
HETATM   26  C   UNL     1       3.957  32.086  58.079  1.00  0.00    -0.037 A 
HETATM   27  C   UNL     1       4.053  33.487  58.131  1.00  0.00     0.048 A 
HETATM   28  C   UNL     1       3.673  34.118  59.297  1.00  0.00     0.105 A 
HETATM   29  C   UNL     1       3.230  33.416  60.395  1.00  0.00     0.105 A 
HETATM   30  O   UNL     1       3.672  35.463  59.511  1.00  0.00    -0.323 OA
HETATM   31  O   UNL     1       2.896  34.228  61.434  1.00  0.00    -0.323 OA
HETATM   32  C   UNL     1       3.147  32.043  60.393  1.00  0.00     0.040 A 
HETATM   33  C   UNL     1       3.149  35.524  60.856  1.00  0.00     0.352 A 
HETATM   34  C   UNL     1       3.515  31.375  59.222  1.00  0.00     0.012 A 
ENDBRANCH  25  26
ENDBRANCH   4  25
BRANCH  11  35
HETATM   35  C   UNL     1       8.225  24.425  56.686  1.00  0.00     0.252 C 
HETATM   36  N   UNL     1       8.117  23.565  55.609  1.00  0.00    -0.352 N 
HETATM   37  H   UNL     1       7.468  23.769  54.865  1.00  0.00     0.163 HD
HETATM   38  O   UNL     1       9.111  24.333  57.528  1.00  0.00    -0.268 OA
BRANCH  36  39
HETATM   39  C   UNL     1       9.133  22.551  55.329  1.00  0.00     0.084 C 
HETATM   40  C   UNL     1       8.789  21.228  56.024  1.00  0.00     0.025 C 
HETATM   41  C   UNL     1       7.619  20.495  55.370  1.00  0.00     0.002 C 
HETATM   42  C   UNL     1       7.838  20.304  53.873  1.00  0.00     0.000 C 
HETATM   43  C   UNL     1       8.125  21.630  53.173  1.00  0.00     0.002 C 
HETATM   44  C   UNL     1       9.303  22.364  53.814  1.00  0.00     0.025 C 
ENDBRANCH  36  39
ENDBRANCH  11  35
TORSDOF 7
ENDMDL
MODEL 4
REMARK VINA RESULT:     -11.1      1.073      1.485
REMARK  7 active torsions:
REMARK  status: ('A' for Active; 'I' for Inactive)
REMARK    1  A    between atoms: C_3  and  N_4 
REMARK       I    between atoms: N_4  and  C_5 
REMARK    2  A    between atoms: C_5  and  C_6 
REMARK    3  A    between atoms: C_6  and  N_7 
REMARK    4  A    between atoms: N_10  and  C_11 
REMARK    5  A    between atoms: C_11  and  C_12 
REMARK    6  A    between atoms: C_27  and  C_28 
REMARK       I    between atoms: C_28  and  N_29 
REMARK    7  A    between atoms: N_29  and  C_30 
ROOT
HETATM    1  N   UNL     1       6.404  27.109  53.685  1.00  0.00    -0.290 N 
HETATM    2  C   UNL     1       6.729  27.232  55.027  1.00  0.00     0.332 C 
HETATM    3  O   UNL     1       7.858  26.910  55.405  1.00  0.00    -0.246 OA
HETATM    4  N   UNL     1       5.757  27.755  55.862  1.00  0.00    -0.261 N 
HETATM    5  C   UNL     1       4.675  28.492  55.397  1.00  0.00     0.264 C 
HETATM    6  O   UNL     1       3.891  29.101  56.122  1.00  0.00    -0.267 OA
HETATM    7  C   UNL     1       4.505  28.583  53.934  1.00  0.00     0.059 A 
HETATM    8  C   UNL     1       5.374  27.883  53.101  1.00  0.00     0.056 A 
HETATM    9  C   UNL     1       3.474  29.369  53.400  1.00  0.00     0.020 A 
HETATM   10  C   UNL     1       3.332  29.499  52.017  1.00  0.00     0.018 A 
HETATM   11  C   UNL     1       4.230  28.853  51.161  1.00  0.00     0.034 A 
HETATM   12  C   UNL     1       5.230  28.025  51.713  1.00  0.00     0.048 A 
ENDROOT
BRANCH   1  13
HETATM   13  C   UNL     1       7.110  26.078  52.915  1.00  0.00     0.237 C 
BRANCH  13  14
HETATM   14  C   UNL     1       6.922  24.608  53.304  1.00  0.00     0.240 C 
HETATM   15  N   UNL     1       8.047  24.008  53.827  1.00  0.00    -0.325 N 
HETATM   16  H   UNL     1       8.734  24.675  54.174  1.00  0.00     0.169 HD
HETATM   17  O   UNL     1       5.790  24.131  53.283  1.00  0.00    -0.271 OA
BRANCH  15  18
HETATM   18  C   UNL     1       8.205  22.684  54.299  1.00  0.00     0.040 A 
HETATM   19  C   UNL     1       8.334  22.274  55.639  1.00  0.00    -0.035 A 
HETATM   20  C   UNL     1       8.233  23.174  56.838  1.00  0.00     0.050 C 
HETATM   21  C   UNL     1       8.557  20.905  55.911  1.00  0.00     0.009 A 
HETATM   22  C   UNL     1       8.585  19.954  54.894  1.00  0.00     0.001 A 
HETATM   23  C   UNL     1       8.387  20.351  53.580  1.00  0.00     0.002 A 
HETATM   24  C   UNL     1       8.198  21.702  53.289  1.00  0.00     0.030 A 
ENDBRANCH  15  18
ENDBRANCH  13  14
ENDBRANCH   1  13
BRANCH   4  25
HETATM   25  C   UNL     1       6.027  27.814  57.299  1.00  0.00     0.175 C 
BRANCH  25  26
HETATM   26  C   UNL     1       6.828  29.018  57.756  1.00  0.00    -0.037 A 
HETATM   27  C   UNL     1       8.231  28.973  57.832  1.00  0.00     0.048 A 
HETATM   28  C   UNL     1       8.894  30.122  58.211  1.00  0.00     0.105 A 
HETATM   29  C   UNL     1       8.223  31.280  58.531  1.00  0.00     0.105 A 
HETATM   30  O   UNL     1      10.245  30.267  58.307  1.00  0.00    -0.323 OA
HETATM   31  O   UNL     1       9.063  32.296  58.867  1.00  0.00    -0.323 OA
HETATM   32  C   UNL     1       6.850  31.356  58.496  1.00  0.00     0.040 A 
HETATM   33  C   UNL     1      10.343  31.656  58.692  1.00  0.00     0.352 A 
HETATM   34  C   UNL     1       6.149  30.212  58.105  1.00  0.00     0.012 A 
ENDBRANCH  25  26
ENDBRANCH   4  25
BRANCH  11  35
HETATM   35  C   UNL     1       4.202  29.010  49.673  1.00  0.00     0.252 C 
HETATM   36  N   UNL     1       3.670  27.974  48.927  1.00  0.00    -0.352 N 
HETATM   37  H   UNL     1       3.208  27.207  49.389  1.00  0.00     0.163 HD
HETATM   38  O   UNL     1       4.615  30.050  49.173  1.00  0.00    -0.268 OA
BRANCH  36  39
HETATM   39  C   UNL     1       3.448  28.099  47.487  1.00  0.00     0.084 C 
HETATM   40  C   UNL     1       2.934  26.780  46.898  1.00  0.00     0.025 C 
HETATM   41  C   UNL     1       1.485  26.478  47.277  1.00  0.00     0.002 C 
HETATM   42  C   UNL     1       0.561  27.643  46.941  1.00  0.00     0.000 C 
HETATM   43  C   UNL     1       1.042  28.946  47.574  1.00  0.00     0.002 C 
HETATM   44  C   UNL     1       2.488  29.260  47.190  1.00  0.00     0.025 C 
ENDBRANCH  36  39
ENDBRANCH  11  35
TORSDOF 7
ENDMDL
MODEL 5
REMARK VINA RESULT:     -10.9      2.785      4.191
REMARK  7 active torsions:
REMARK  status: ('A' for Active; 'I' for Inactive)
REMARK    1  A    between atoms: C_3  and  N_4 
REMARK       I    between atoms: N_4  and  C_5 
REMARK    2  A    between atoms: C_5  and  C_6 
REMARK    3  A    between atoms: C_6  and  N_7 
REMARK    4  A    between atoms: N_10  and  C_11 
REMARK    5  A    between atoms: C_11  and  C_12 
REMARK    6  A    between atoms: C_27  and  C_28 
REMARK       I    between atoms: C_28  and  N_29 
REMARK    7  A    between atoms: N_29  and  C_30 
ROOT
HETATM    1  N   UNL     1       6.570  28.972  57.306  1.00  0.00    -0.290 N 
HETATM    2  C   UNL     1       7.322  29.761  58.163  1.00  0.00     0.332 C 
HETATM    3  O   UNL     1       8.328  29.283  58.694  1.00  0.00    -0.246 OA
HETATM    4  N   UNL     1       6.907  31.070  58.337  1.00  0.00    -0.261 N 
HETATM    5  C   UNL     1       6.059  31.720  57.450  1.00  0.00     0.264 C 
HETATM    6  O   UNL     1       5.805  32.923  57.492  1.00  0.00    -0.267 OA
HETATM    7  C   UNL     1       5.479  30.911  56.361  1.00  0.00     0.059 A 
HETATM    8  C   UNL     1       5.742  29.544  56.311  1.00  0.00     0.056 A 
HETATM    9  C   UNL     1       4.672  31.522  55.392  1.00  0.00     0.020 A 
HETATM   10  C   UNL     1       4.155  30.775  54.332  1.00  0.00     0.018 A 
HETATM   11  C   UNL     1       4.456  29.413  54.229  1.00  0.00     0.034 A 
HETATM   12  C   UNL     1       5.227  28.801  55.239  1.00  0.00     0.048 A 
ENDROOT
BRANCH   1  13
HETATM   13  C   UNL     1       6.594  27.523  57.534  1.00  0.00     0.237 C 
BRANCH  13  14
HETATM   14  C   UNL     1       7.412  26.640  56.586  1.00  0.00     0.240 C 
HETATM   15  N   UNL     1       6.678  25.676  55.929  1.00  0.00    -0.325 N 
HETATM   16  H   UNL     1       5.679  25.874  55.911  1.00  0.00     0.169 HD
HETATM   17  O   UNL     1       8.580  26.943  56.356  1.00  0.00    -0.271 OA
BRANCH  15  18
HETATM   18  C   UNL     1       7.117  24.723  54.981  1.00  0.00     0.040 A 
HETATM   19  C   UNL     1       7.341  24.936  53.608  1.00  0.00    -0.035 A 
HETATM   20  C   UNL     1       7.239  26.261  52.906  1.00  0.00     0.050 C 
HETATM   21  C   UNL     1       7.712  23.836  52.802  1.00  0.00     0.009 A 
HETATM   22  C   UNL     1       7.925  22.572  53.345  1.00  0.00     0.001 A 
HETATM   23  C   UNL     1       7.773  22.379  54.710  1.00  0.00     0.002 A 
HETATM   24  C   UNL     1       7.375  23.445  55.516  1.00  0.00     0.030 A 
ENDBRANCH  15  18
ENDBRANCH  13  14
ENDBRANCH   1  13
BRANCH   4  25
HETATM   25  C   UNL     1       7.619  31.906  59.303  1.00  0.00     0.175 C 
BRANCH  25  26
HETATM   26  C   UNL     1       6.916  32.099  60.633  1.00  0.00    -0.037 A 
HETATM   27  C   UNL     1       5.818  32.968  60.756  1.00  0.00     0.048 A 
HETATM   28  C   UNL     1       5.199  33.055  61.987  1.00  0.00     0.105 A 
HETATM   29  C   UNL     1       5.638  32.340  63.077  1.00  0.00     0.105 A 
HETATM   30  O   UNL     1       4.109  33.819  62.277  1.00  0.00    -0.323 OA
HETATM   31  O   UNL     1       4.883  32.562  64.186  1.00  0.00    -0.323 OA
HETATM   32  C   UNL     1       6.725  31.500  63.003  1.00  0.00     0.040 A 
HETATM   33  C   UNL     1       3.898  33.475  63.664  1.00  0.00     0.352 A 
HETATM   34  C   UNL     1       7.368  31.382  61.768  1.00  0.00     0.012 A 
ENDBRANCH  25  26
ENDBRANCH   4  25
BRANCH  11  35
HETATM   35  C   UNL     1       4.016  28.560  53.080  1.00  0.00     0.252 C 
HETATM   36  N   UNL     1       3.889  29.164  51.843  1.00  0.00    -0.352 N 
HETATM   37  H   UNL     1       4.206  30.112  51.711  1.00  0.00     0.163 HD
HETATM   38  O   UNL     1       3.817  27.364  53.263  1.00  0.00    -0.268 OA
BRANCH  36  39
HETATM   39  C   UNL     1       3.625  28.388  50.631  1.00  0.00     0.084 C 
HETATM   40  C   UNL     1       2.757  29.186  49.651  1.00  0.00     0.025 C 
HETATM   41  C   UNL     1       3.512  30.327  48.973  1.00  0.00     0.002 C 
HETATM   42  C   UNL     1       4.799  29.840  48.316  1.00  0.00     0.000 C 
HETATM   43  C   UNL     1       5.689  29.095  49.307  1.00  0.00     0.002 C 
HETATM   44  C   UNL     1       4.944  27.943  49.981  1.00  0.00     0.025 C 
ENDBRANCH  36  39
ENDBRANCH  11  35
TORSDOF 7
ENDMDL
MODEL 6
REMARK VINA RESULT:     -10.9      4.100      9.450
REMARK  7 active torsions:
REMARK  status: ('A' for Active; 'I' for Inactive)
REMARK    1  A    between atoms: C_3  and  N_4 
REMARK       I    between atoms: N_4  and  C_5 
REMARK    2  A    between atoms: C_5  and  C_6 
REMARK    3  A    between atoms: C_6  and  N_7 
REMARK    4  A    between atoms: N_10  and  C_11 
REMARK    5  A    between atoms: C_11  and  C_12 
REMARK    6  A    between atoms: C_27  and  C_28 
REMARK       I    between atoms: C_28  and  N_29 
REMARK    7  A    between atoms: N_29  and  C_30 
ROOT
HETATM    1  N   UNL     1       7.084  29.653  57.410  1.00  0.00    -0.290 N 
HETATM    2  C   UNL     1       7.118  28.280  57.603  1.00  0.00     0.332 C 
HETATM    3  O   UNL     1       7.966  27.799  58.358  1.00  0.00    -0.246 OA
HETATM    4  N   UNL     1       6.151  27.532  56.952  1.00  0.00    -0.261 N 
HETATM    5  C   UNL     1       4.974  28.079  56.459  1.00  0.00     0.264 C 
HETATM    6  O   UNL     1       4.033  27.418  56.025  1.00  0.00    -0.267 OA
HETATM    7  C   UNL     1       4.839  29.548  56.521  1.00  0.00     0.059 A 
HETATM    8  C   UNL     1       5.903  30.311  56.993  1.00  0.00     0.056 A 
HETATM    9  C   UNL     1       3.647  30.156  56.105  1.00  0.00     0.020 A 
HETATM   10  C   UNL     1       3.492  31.540  56.202  1.00  0.00     0.018 A 
HETATM   11  C   UNL     1       4.526  32.322  56.729  1.00  0.00     0.034 A 
HETATM   12  C   UNL     1       5.738  31.700  57.095  1.00  0.00     0.048 A 
ENDROOT
BRANCH   1  13
HETATM   13  C   UNL     1       8.347  30.383  57.566  1.00  0.00     0.237 C 
BRANCH  13  14
HETATM   14  C   UNL     1       8.518  31.315  58.771  1.00  0.00     0.240 C 
HETATM   15  N   UNL     1       7.635  31.081  59.802  1.00  0.00    -0.325 N 
HETATM   16  H   UNL     1       7.215  30.154  59.770  1.00  0.00     0.169 HD
HETATM   17  O   UNL     1       9.493  32.061  58.806  1.00  0.00    -0.271 OA
BRANCH  15  18
HETATM   18  C   UNL     1       7.538  31.740  61.050  1.00  0.00     0.040 A 
HETATM   19  C   UNL     1       8.270  31.453  62.217  1.00  0.00    -0.035 A 
HETATM   20  C   UNL     1       9.372  30.436  62.325  1.00  0.00     0.050 C 
HETATM   21  C   UNL     1       7.980  32.178  63.395  1.00  0.00     0.009 A 
HETATM   22  C   UNL     1       7.042  33.207  63.407  1.00  0.00     0.001 A 
HETATM   23  C   UNL     1       6.372  33.536  62.238  1.00  0.00     0.002 A 
HETATM   24  C   UNL     1       6.621  32.809  61.074  1.00  0.00     0.030 A 
ENDBRANCH  15  18
ENDBRANCH  13  14
ENDBRANCH   1  13
BRANCH   4  25
HETATM   25  C   UNL     1       6.210  26.074  57.055  1.00  0.00     0.175 C 
BRANCH  25  26
HETATM   26  C   UNL     1       6.762  25.362  55.836  1.00  0.00    -0.037 A 
HETATM   27  C   UNL     1       6.898  23.963  55.809  1.00  0.00     0.048 A 
HETATM   28  C   UNL     1       7.363  23.382  54.647  1.00  0.00     0.105 A 
HETATM   29  C   UNL     1       7.711  24.129  53.545  1.00  0.00     0.105 A 
HETATM   30  O   UNL     1       7.526  22.046  54.435  1.00  0.00    -0.323 OA
HETATM   31  O   UNL     1       8.134  23.362  52.505  1.00  0.00    -0.323 OA
HETATM   32  C   UNL     1       7.619  25.502  53.542  1.00  0.00     0.040 A 
HETATM   33  C   UNL     1       7.985  22.042  53.065  1.00  0.00     0.352 A 
HETATM   34  C   UNL     1       7.140  26.120  54.700  1.00  0.00     0.012 A 
ENDBRANCH  25  26
ENDBRANCH   4  25
BRANCH  11  35
HETATM   35  C   UNL     1       4.408  33.798  56.948  1.00  0.00     0.252 C 
HETATM   36  N   UNL     1       3.289  34.261  57.615  1.00  0.00    -0.352 N 
HETATM   37  H   UNL     1       2.651  33.608  58.041  1.00  0.00     0.163 HD
HETATM   38  O   UNL     1       5.310  34.534  56.563  1.00  0.00    -0.268 OA
BRANCH  36  39
HETATM   39  C   UNL     1       3.161  35.661  58.020  1.00  0.00     0.084 C 
HETATM   40  C   UNL     1       1.693  36.020  58.282  1.00  0.00     0.025 C 
HETATM   41  C   UNL     1       1.147  35.409  59.571  1.00  0.00     0.002 C 
HETATM   42  C   UNL     1       2.030  35.739  60.770  1.00  0.00     0.000 C 
HETATM   43  C   UNL     1       3.481  35.329  60.531  1.00  0.00     0.002 C 
HETATM   44  C   UNL     1       4.038  35.947  59.248  1.00  0.00     0.025 C 
ENDBRANCH  36  39
ENDBRANCH  11  35
TORSDOF 7
ENDMDL
MODEL 7
REMARK VINA RESULT:     -10.6      1.693      2.326
REMARK  7 active torsions:
REMARK  status: ('A' for Active; 'I' for Inactive)
REMARK    1  A    between atoms: C_3  and  N_4 
REMARK       I    between atoms: N_4  and  C_5 
REMARK    2  A    between atoms: C_5  and  C_6 
REMARK    3  A    between atoms: C_6  and  N_7 
REMARK    4  A    between atoms: N_10  and  C_11 
REMARK    5  A    between atoms: C_11  and  C_12 
REMARK    6  A    between atoms: C_27  and  C_28 
REMARK       I    between atoms: C_28  and  N_29 
REMARK    7  A    between atoms: N_29  and  C_30 
ROOT
HETATM    1  N   UNL     1       6.395  27.064  53.503  1.00  0.00    -0.290 N 
HETATM    2  C   UNL     1       6.598  27.190  54.869  1.00  0.00     0.332 C 
HETATM    3  O   UNL     1       7.710  26.936  55.338  1.00  0.00    -0.246 OA
HETATM    4  N   UNL     1       5.528  27.641  55.623  1.00  0.00    -0.261 N 
HETATM    5  C   UNL     1       4.443  28.313  55.074  1.00  0.00     0.264 C 
HETATM    6  O   UNL     1       3.564  28.861  55.735  1.00  0.00    -0.267 OA
HETATM    7  C   UNL     1       4.391  28.411  53.602  1.00  0.00     0.059 A 
HETATM    8  C   UNL     1       5.369  27.779  52.840  1.00  0.00     0.056 A 
HETATM    9  C   UNL     1       3.360  29.137  52.989  1.00  0.00     0.020 A 
HETATM   10  C   UNL     1       3.326  29.275  51.600  1.00  0.00     0.018 A 
HETATM   11  C   UNL     1       4.332  28.698  50.818  1.00  0.00     0.034 A 
HETATM   12  C   UNL     1       5.333  27.929  51.446  1.00  0.00     0.048 A 
ENDROOT
BRANCH   1  13
HETATM   13  C   UNL     1       7.227  26.090  52.788  1.00  0.00     0.237 C 
BRANCH  13  14
HETATM   14  C   UNL     1       7.053  24.600  53.101  1.00  0.00     0.240 C 
HETATM   15  N   UNL     1       8.118  24.029  53.764  1.00  0.00    -0.325 N 
HETATM   16  H   UNL     1       8.715  24.711  54.228  1.00  0.00     0.169 HD
HETATM   17  O   UNL     1       5.960  24.078  52.900  1.00  0.00    -0.271 OA
BRANCH  15  18
HETATM   18  C   UNL     1       8.268  22.696  54.214  1.00  0.00     0.040 A 
HETATM   19  C   UNL     1       8.381  22.261  55.548  1.00  0.00    -0.035 A 
HETATM   20  C   UNL     1       8.271  23.141  56.762  1.00  0.00     0.050 C 
HETATM   21  C   UNL     1       8.598  20.887  55.797  1.00  0.00     0.009 A 
HETATM   22  C   UNL     1       8.634  19.954  54.764  1.00  0.00     0.001 A 
HETATM   23  C   UNL     1       8.450  20.375  53.455  1.00  0.00     0.002 A 
HETATM   24  C   UNL     1       8.268  21.732  53.187  1.00  0.00     0.030 A 
ENDBRANCH  15  18
ENDBRANCH  13  14
ENDBRANCH   1  13
BRANCH   4  25
HETATM   25  C   UNL     1       5.673  27.698  57.078  1.00  0.00     0.175 C 
BRANCH  25  26
HETATM   26  C   UNL     1       6.381  28.930  57.608  1.00  0.00    -0.037 A 
HETATM   27  C   UNL     1       7.725  28.878  58.016  1.00  0.00     0.048 A 
HETATM   28  C   UNL     1       8.316  30.050  58.442  1.00  0.00     0.105 A 
HETATM   29  C   UNL     1       7.624  31.239  58.496  1.00  0.00     0.105 A 
HETATM   30  O   UNL     1       9.610  30.189  58.842  1.00  0.00    -0.323 OA
HETATM   31  O   UNL     1       8.394  32.272  58.932  1.00  0.00    -0.323 OA
HETATM   32  C   UNL     1       6.301  31.324  58.130  1.00  0.00     0.040 A 
HETATM   33  C   UNL     1       9.658  31.606  59.120  1.00  0.00     0.352 A 
HETATM   34  C   UNL     1       5.676  30.157  57.684  1.00  0.00     0.012 A 
ENDBRANCH  25  26
ENDBRANCH   4  25
BRANCH  11  35
HETATM   35  C   UNL     1       4.418  28.872  49.334  1.00  0.00     0.252 C 
HETATM   36  N   UNL     1       4.173  30.131  48.819  1.00  0.00    -0.352 N 
HETATM   37  H   UNL     1       4.067  30.917  49.441  1.00  0.00     0.163 HD
HETATM   38  O   UNL     1       4.730  27.914  48.636  1.00  0.00    -0.268 OA
BRANCH  36  39
HETATM   39  C   UNL     1       4.391  30.440  47.406  1.00  0.00     0.084 C 
HETATM   40  C   UNL     1       3.109  30.218  46.595  1.00  0.00     0.025 C 
HETATM   41  C   UNL     1       2.046  31.285  46.850  1.00  0.00     0.002 C 
HETATM   42  C   UNL     1       2.600  32.691  46.652  1.00  0.00     0.000 C 
HETATM   43  C   UNL     1       3.844  32.931  47.503  1.00  0.00     0.002 C 
HETATM   44  C   UNL     1       4.918  31.874  47.245  1.00  0.00     0.025 C 
ENDBRANCH  36  39
ENDBRANCH  11  35
TORSDOF 7
ENDMDL
MODEL 8
REMARK VINA RESULT:     -10.5      1.570      2.077
REMARK  7 active torsions:
REMARK  status: ('A' for Active; 'I' for Inactive)
REMARK    1  A    between atoms: C_3  and  N_4 
REMARK       I    between atoms: N_4  and  C_5 
REMARK    2  A    between atoms: C_5  and  C_6 
REMARK    3  A    between atoms: C_6  and  N_7 
REMARK    4  A    between atoms: N_10  and  C_11 
REMARK    5  A    between atoms: C_11  and  C_12 
REMARK    6  A    between atoms: C_27  and  C_28 
REMARK       I    between atoms: C_28  and  N_29 
REMARK    7  A    between atoms: N_29  and  C_30 
ROOT
HETATM    1  N   UNL     1       4.662  28.305  54.210  1.00  0.00    -0.290 N 
HETATM    2  C   UNL     1       4.882  28.426  55.574  1.00  0.00     0.332 C 
HETATM    3  O   UNL     1       5.516  27.546  56.161  1.00  0.00    -0.246 OA
HETATM    4  N   UNL     1       4.399  29.568  56.189  1.00  0.00    -0.261 N 
HETATM    5  C   UNL     1       4.070  30.723  55.491  1.00  0.00     0.264 C 
HETATM    6  O   UNL     1       3.796  31.797  56.022  1.00  0.00    -0.267 OA
HETATM    7  C   UNL     1       4.114  30.652  54.017  1.00  0.00     0.059 A 
HETATM    8  C   UNL     1       4.406  29.438  53.401  1.00  0.00     0.056 A 
HETATM    9  C   UNL     1       3.863  31.802  53.256  1.00  0.00     0.020 A 
HETATM   10  C   UNL     1       3.946  31.756  51.863  1.00  0.00     0.018 A 
HETATM   11  C   UNL     1       4.296  30.561  51.225  1.00  0.00     0.034 A 
HETATM   12  C   UNL     1       4.496  29.401  52.002  1.00  0.00     0.048 A 
ENDROOT
BRANCH   1  13
HETATM   13  C   UNL     1       4.612  26.948  53.656  1.00  0.00     0.237 C 
BRANCH  13  14
HETATM   14  C   UNL     1       5.919  26.161  53.510  1.00  0.00     0.240 C 
HETATM   15  N   UNL     1       5.961  24.987  54.231  1.00  0.00    -0.325 N 
HETATM   16  H   UNL     1       5.039  24.646  54.498  1.00  0.00     0.169 HD
HETATM   17  O   UNL     1       6.737  26.525  52.669  1.00  0.00    -0.271 OA
BRANCH  15  18
HETATM   18  C   UNL     1       6.998  24.028  54.299  1.00  0.00     0.040 A 
HETATM   19  C   UNL     1       7.901  23.832  55.361  1.00  0.00    -0.035 A 
HETATM   20  C   UNL     1       7.868  24.560  56.676  1.00  0.00     0.050 C 
HETATM   21  C   UNL     1       8.921  22.866  55.214  1.00  0.00     0.009 A 
HETATM   22  C   UNL     1       9.010  22.063  54.080  1.00  0.00     0.001 A 
HETATM   23  C   UNL     1       8.076  22.208  53.065  1.00  0.00     0.002 A 
HETATM   24  C   UNL     1       7.081  23.180  53.177  1.00  0.00     0.030 A 
ENDBRANCH  15  18
ENDBRANCH  13  14
ENDBRANCH   1  13
BRANCH   4  25
HETATM   25  C   UNL     1       4.529  29.689  57.641  1.00  0.00     0.175 C 
BRANCH  25  26
HETATM   26  C   UNL     1       5.771  30.416  58.120  1.00  0.00    -0.037 A 
HETATM   27  C   UNL     1       7.057  29.972  57.765  1.00  0.00     0.048 A 
HETATM   28  C   UNL     1       8.138  30.712  58.199  1.00  0.00     0.105 A 
HETATM   29  C   UNL     1       7.987  31.840  58.973  1.00  0.00     0.105 A 
HETATM   30  O   UNL     1       9.445  30.447  57.925  1.00  0.00    -0.323 OA
HETATM   31  O   UNL     1       9.175  32.425  59.281  1.00  0.00    -0.323 OA
HETATM   32  C   UNL     1       6.747  32.291  59.363  1.00  0.00     0.040 A 
HETATM   33  C   UNL     1      10.092  31.555  58.588  1.00  0.00     0.352 A 
HETATM   34  C   UNL     1       5.632  31.569  58.931  1.00  0.00     0.012 A 
ENDBRANCH  25  26
ENDBRANCH   4  25
BRANCH  11  35
HETATM   35  C   UNL     1       4.492  30.449  49.746  1.00  0.00     0.252 C 
HETATM   36  N   UNL     1       4.501  29.182  49.193  1.00  0.00    -0.352 N 
HETATM   37  H   UNL     1       4.256  28.385  49.758  1.00  0.00     0.163 HD
HETATM   38  O   UNL     1       4.605  31.471  49.077  1.00  0.00    -0.268 OA
BRANCH  36  39
HETATM   39  C   UNL     1       4.522  28.975  47.745  1.00  0.00     0.084 C 
HETATM   40  C   UNL     1       5.274  27.687  47.389  1.00  0.00     0.025 C 
HETATM   41  C   UNL     1       4.494  26.421  47.740  1.00  0.00     0.002 C 
HETATM   42  C   UNL     1       3.092  26.439  47.141  1.00  0.00     0.000 C 
HETATM   43  C   UNL     1       2.324  27.695  47.542  1.00  0.00     0.002 C 
HETATM   44  C   UNL     1       3.093  28.966  47.183  1.00  0.00     0.025 C 
ENDBRANCH  36  39
ENDBRANCH  11  35
TORSDOF 7
ENDMDL
MODEL 9
REMARK VINA RESULT:     -10.4      3.578      8.157
REMARK  7 active torsions:
REMARK  status: ('A' for Active; 'I' for Inactive)
REMARK    1  A    between atoms: C_3  and  N_4 
REMARK       I    between atoms: N_4  and  C_5 
REMARK    2  A    between atoms: C_5  and  C_6 
REMARK    3  A    between atoms: C_6  and  N_7 
REMARK    4  A    between atoms: N_10  and  C_11 
REMARK    5  A    between atoms: C_11  and  C_12 
REMARK    6  A    between atoms: C_27  and  C_28 
REMARK       I    between atoms: C_28  and  N_29 
REMARK    7  A    between atoms: N_29  and  C_30 
ROOT
HETATM    1  N   UNL     1       7.721  28.237  56.537  1.00  0.00    -0.290 N 
HETATM    2  C   UNL     1       7.881  26.931  56.974  1.00  0.00     0.332 C 
HETATM    3  O   UNL     1       8.781  26.671  57.777  1.00  0.00    -0.246 OA
HETATM    4  N   UNL     1       6.977  25.996  56.502  1.00  0.00    -0.261 N 
HETATM    5  C   UNL     1       5.747  26.340  55.955  1.00  0.00     0.264 C 
HETATM    6  O   UNL     1       4.864  25.531  55.678  1.00  0.00    -0.267 OA
HETATM    7  C   UNL     1       5.481  27.777  55.753  1.00  0.00     0.059 A 
HETATM    8  C   UNL     1       6.479  28.703  56.045  1.00  0.00     0.056 A 
HETATM    9  C   UNL     1       4.233  28.194  55.272  1.00  0.00     0.020 A 
HETATM   10  C   UNL     1       3.955  29.554  55.120  1.00  0.00     0.018 A 
HETATM   11  C   UNL     1       4.921  30.504  55.463  1.00  0.00     0.034 A 
HETATM   12  C   UNL     1       6.190  30.068  55.898  1.00  0.00     0.048 A 
ENDROOT
BRANCH   1  13
HETATM   13  C   UNL     1       8.915  29.089  56.517  1.00  0.00     0.237 C 
BRANCH  13  14
HETATM   14  C   UNL     1       9.090  30.141  57.618  1.00  0.00     0.240 C 
HETATM   15  N   UNL     1       8.261  29.971  58.706  1.00  0.00    -0.325 N 
HETATM   16  H   UNL     1       7.884  29.028  58.781  1.00  0.00     0.169 HD
HETATM   17  O   UNL     1      10.030  30.929  57.538  1.00  0.00    -0.271 OA
BRANCH  15  18
HETATM   18  C   UNL     1       8.183  30.744  59.888  1.00  0.00     0.040 A 
HETATM   19  C   UNL     1       7.238  31.744  60.185  1.00  0.00    -0.035 A 
HETATM   20  C   UNL     1       6.064  32.114  59.322  1.00  0.00     0.050 C 
HETATM   21  C   UNL     1       7.367  32.462  61.395  1.00  0.00     0.009 A 
HETATM   22  C   UNL     1       8.361  32.158  62.322  1.00  0.00     0.001 A 
HETATM   23  C   UNL     1       9.248  31.125  62.059  1.00  0.00     0.002 A 
HETATM   24  C   UNL     1       9.157  30.427  60.855  1.00  0.00     0.030 A 
ENDBRANCH  15  18
ENDBRANCH  13  14
ENDBRANCH   1  13
BRANCH   4  25
HETATM   25  C   UNL     1       7.169  24.592  56.866  1.00  0.00     0.175 C 
BRANCH  25  26
HETATM   26  C   UNL     1       7.584  23.680  55.728  1.00  0.00    -0.037 A 
HETATM   27  C   UNL     1       7.908  22.331  55.956  1.00  0.00     0.048 A 
HETATM   28  C   UNL     1       8.230  21.551  54.865  1.00  0.00     0.105 A 
HETATM   29  C   UNL     1       8.262  22.060  53.587  1.00  0.00     0.105 A 
HETATM   30  O   UNL     1       8.538  20.225  54.898  1.00  0.00    -0.323 OA
HETATM   31  O   UNL     1       8.591  21.123  52.659  1.00  0.00    -0.323 OA
HETATM   32  C   UNL     1       7.978  23.381  53.326  1.00  0.00     0.040 A 
HETATM   33  C   UNL     1       8.734  19.956  53.493  1.00  0.00     0.352 A 
HETATM   34  C   UNL     1       7.637  24.195  54.409  1.00  0.00     0.012 A 
ENDBRANCH  25  26
ENDBRANCH   4  25
BRANCH  11  35
HETATM   35  C   UNL     1       4.674  31.980  55.414  1.00  0.00     0.252 C 
HETATM   36  N   UNL     1       4.973  32.643  54.239  1.00  0.00    -0.352 N 
HETATM   37  H   UNL     1       5.228  32.119  53.417  1.00  0.00     0.163 HD
HETATM   38  O   UNL     1       4.190  32.539  56.392  1.00  0.00    -0.268 OA
BRANCH  36  39
HETATM   39  C   UNL     1       4.617  34.048  54.036  1.00  0.00     0.084 C 
HETATM   40  C   UNL     1       5.857  34.880  53.688  1.00  0.00     0.025 C 
HETATM   41  C   UNL     1       6.376  34.621  52.276  1.00  0.00     0.002 C 
HETATM   42  C   UNL     1       5.277  34.785  51.232  1.00  0.00     0.000 C 
HETATM   43  C   UNL     1       4.065  33.912  51.548  1.00  0.00     0.002 C 
HETATM   44  C   UNL     1       3.532  34.175  52.957  1.00  0.00     0.025 C 
ENDBRANCH  36  39
ENDBRANCH  11  35
TORSDOF 7
ENDMDL
MODEL 10
REMARK VINA RESULT:     -10.4      3.373      7.134
REMARK  7 active torsions:
REMARK  status: ('A' for Active; 'I' for Inactive)
REMARK    1  A    between atoms: C_3  and  N_4 
REMARK       I    between atoms: N_4  and  C_5 
REMARK    2  A    between atoms: C_5  and  C_6 
REMARK    3  A    between atoms: C_6  and  N_7 
REMARK    4  A    between atoms: N_10  and  C_11 
REMARK    5  A    between atoms: C_11  and  C_12 
REMARK    6  A    between atoms: C_27  and  C_28 
REMARK       I    between atoms: C_28  and  N_29 
REMARK    7  A    between atoms: N_29  and  C_30 
ROOT
HETATM    1  N   UNL     1       4.492  30.460  57.481  1.00  0.00    -0.290 N 
HETATM    2  C   UNL     1       4.349  31.603  58.251  1.00  0.00     0.332 C 
HETATM    3  O   UNL     1       3.217  31.980  58.565  1.00  0.00    -0.246 OA
HETATM    4  N   UNL     1       5.511  32.235  58.659  1.00  0.00    -0.261 N 
HETATM    5  C   UNL     1       6.750  31.607  58.672  1.00  0.00     0.264 C 
HETATM    6  O   UNL     1       7.763  32.087  59.177  1.00  0.00    -0.267 OA
HETATM    7  C   UNL     1       6.822  30.253  58.089  1.00  0.00     0.059 A 
HETATM    8  C   UNL     1       5.688  29.704  57.497  1.00  0.00     0.056 A 
HETATM    9  C   UNL     1       8.027  29.538  58.136  1.00  0.00     0.020 A 
HETATM   10  C   UNL     1       8.094  28.239  57.627  1.00  0.00     0.018 A 
HETATM   11  C   UNL     1       6.952  27.645  57.082  1.00  0.00     0.034 A 
HETATM   12  C   UNL     1       5.761  28.396  56.996  1.00  0.00     0.048 A 
ENDROOT
BRANCH   1  13
HETATM   13  C   UNL     1       3.388  30.117  56.578  1.00  0.00     0.237 C 
BRANCH  13  14
HETATM   14  C   UNL     1       3.575  30.323  55.071  1.00  0.00     0.240 C 
HETATM   15  N   UNL     1       3.828  29.166  54.364  1.00  0.00    -0.325 N 
HETATM   16  H   UNL     1       3.549  28.322  54.861  1.00  0.00     0.169 HD
HETATM   17  O   UNL     1       3.331  31.427  54.590  1.00  0.00    -0.271 OA
BRANCH  15  18
HETATM   18  C   UNL     1       4.025  29.005  52.973  1.00  0.00     0.040 A 
HETATM   19  C   UNL     1       5.248  28.786  52.312  1.00  0.00    -0.035 A 
HETATM   20  C   UNL     1       6.577  28.590  52.985  1.00  0.00     0.050 C 
HETATM   21  C   UNL     1       5.254  28.722  50.900  1.00  0.00     0.009 A 
HETATM   22  C   UNL     1       4.077  28.803  50.160  1.00  0.00     0.001 A 
HETATM   23  C   UNL     1       2.864  28.947  50.818  1.00  0.00     0.002 A 
HETATM   24  C   UNL     1       2.842  29.045  52.209  1.00  0.00     0.030 A 
ENDBRANCH  15  18
ENDBRANCH  13  14
ENDBRANCH   1  13
BRANCH   4  25
HETATM   25  C   UNL     1       5.401  33.495  59.394  1.00  0.00     0.175 C 
BRANCH  25  26
HETATM   26  C   UNL     1       5.230  33.354  60.894  1.00  0.00    -0.037 A 
HETATM   27  C   UNL     1       4.839  34.446  61.688  1.00  0.00     0.048 A 
HETATM   28  C   UNL     1       4.658  34.230  63.039  1.00  0.00     0.105 A 
HETATM   29  C   UNL     1       4.869  32.999  63.616  1.00  0.00     0.105 A 
HETATM   30  O   UNL     1       4.252  35.161  63.946  1.00  0.00    -0.323 OA
HETATM   31  O   UNL     1       4.624  33.000  64.954  1.00  0.00    -0.323 OA
HETATM   32  C   UNL     1       5.279  31.913  62.878  1.00  0.00     0.040 A 
HETATM   33  C   UNL     1       4.204  34.365  65.150  1.00  0.00     0.352 A 
HETATM   34  C   UNL     1       5.461  32.096  61.505  1.00  0.00     0.012 A 
ENDBRANCH  25  26
ENDBRANCH   4  25
BRANCH  11  35
HETATM   35  C   UNL     1       6.916  26.229  56.596  1.00  0.00     0.252 C 
HETATM   36  N   UNL     1       6.448  26.000  55.316  1.00  0.00    -0.352 N 
HETATM   37  H   UNL     1       6.261  26.777  54.702  1.00  0.00     0.163 HD
HETATM   38  O   UNL     1       7.328  25.335  57.327  1.00  0.00    -0.268 OA
BRANCH  36  39
HETATM   39  C   UNL     1       6.526  24.678  54.693  1.00  0.00     0.084 C 
HETATM   40  C   UNL     1       5.373  24.472  53.704  1.00  0.00     0.025 C 
HETATM   41  C   UNL     1       5.531  25.285  52.421  1.00  0.00     0.002 C 
HETATM   42  C   UNL     1       6.885  25.044  51.764  1.00  0.00     0.000 C 
HETATM   43  C   UNL     1       8.035  25.305  52.732  1.00  0.00     0.002 C 
HETATM   44  C   UNL     1       7.890  24.485  54.015  1.00  0.00     0.025 C 
ENDBRANCH  36  39
ENDBRANCH  11  35
TORSDOF 7
ENDMDL
