MODEL 1
REMARK VINA RESULT:     -10.2      0.000      0.000
REMARK  4 active torsions:
REMARK  status: ('A' for Active; 'I' for Inactive)
REMARK    1  A    between atoms: C_4  and  C_5 
REMARK    2  A    between atoms: C_6  and  N_7 
REMARK    3  A    between atoms: C_9  and  C_10 
REMARK       I    between atoms: C_10  and  N_11 
REMARK    4  A    between atoms: N_11  and  C_12 
ROOT
HETATM    1  C   UNL     1       7.155  24.466  54.979  1.00  0.00     0.019 A 
HETATM    2  C   UNL     1       7.134  25.328  56.030  1.00  0.00     0.111 A 
HETATM    3  C   UNL     1       7.769  24.899  57.350  1.00  0.00     0.273 A 
HETATM    4  O   UNL     1       7.791  25.627  58.342  1.00  0.00    -0.266 OA
HETATM    5  N   UNL     1       8.325  23.656  57.417  1.00  0.00    -0.321 N 
HETATM    6  C   UNL     1       8.353  22.759  56.354  1.00  0.00     0.046 A 
HETATM    7  C   UNL     1       7.793  23.129  55.127  1.00  0.00     0.006 A 
HETATM    8  C   UNL     1       8.944  21.507  56.539  1.00  0.00     0.032 A 
HETATM    9  C   UNL     1       8.983  20.600  55.482  1.00  0.00     0.026 A 
HETATM   10  C   UNL     1       8.437  20.955  54.251  1.00  0.00     0.035 A 
HETATM   11 CL   UNL     1       8.489  19.837  52.944  1.00  0.00    -0.084 Cl
HETATM   12  C   UNL     1       7.849  22.208  54.069  1.00  0.00     0.038 A 
HETATM   13  H   UNL     1       8.724  23.409  58.312  1.00  0.00     0.169 HD
ENDROOT
BRANCH   2  14
HETATM   14  N   UNL     1       6.507  26.602  55.996  1.00  0.00    -0.375 N 
HETATM   15  C   UNL     1       7.352  27.811  55.954  1.00  0.00     0.137 C 
HETATM   16  C   UNL     1       6.574  29.032  55.449  1.00  0.00     0.096 C 
HETATM   17  C   UNL     1       5.323  29.235  56.324  1.00  0.00     0.017 C 
HETATM   18  C   UNL     1       4.489  27.957  56.415  1.00  0.00     0.021 C 
HETATM   19  C   UNL     1       5.332  26.774  56.878  1.00  0.00     0.123 C 
BRANCH  16  20
HETATM   20  C   UNL     1       6.218  29.016  53.950  1.00  0.00     0.229 C 
HETATM   21  N   UNL     1       5.007  29.618  53.656  1.00  0.00    -0.311 N 
HETATM   22  H   UNL     1       4.521  30.109  54.387  1.00  0.00     0.170 HD
HETATM   23  O   UNL     1       6.924  28.409  53.148  1.00  0.00    -0.273 OA
BRANCH  21  24
HETATM   24  C   UNL     1       4.402  29.648  52.389  1.00  0.00     0.129 A 
HETATM   25  N   UNL     1       4.965  30.313  51.366  1.00  0.00    -0.243 NA
HETATM   26  C   UNL     1       4.340  30.298  50.171  1.00  0.00     0.119 A 
HETATM   27  C   UNL     1       3.146  29.643  49.939  1.00  0.00     0.019 A 
HETATM   28  C   UNL     1       2.566  28.959  50.999  1.00  0.00     0.005 A 
HETATM   29  C   UNL     1       3.203  28.956  52.239  1.00  0.00     0.050 A 
ENDBRANCH  21  24
ENDBRANCH  16  20
ENDBRANCH   2  14
BRANCH   1  30
HETATM   30  C   UNL     1       6.523  24.917  53.712  1.00  0.00    -0.023 A 
HETATM   31  C   UNL     1       7.310  25.185  52.585  1.00  0.00     0.012 A 
HETATM   32  C   UNL     1       6.715  25.610  51.398  1.00  0.00     0.001 A 
HETATM   33  C   UNL     1       5.331  25.757  51.324  1.00  0.00     0.000 A 
HETATM   34  C   UNL     1       4.538  25.479  52.436  1.00  0.00     0.001 A 
HETATM   35  C   UNL     1       5.132  25.061  53.629  1.00  0.00     0.012 A 
ENDBRANCH   1  30
TORSDOF 4
ENDMDL
MODEL 2
REMARK VINA RESULT:      -9.7      2.403      7.272
REMARK  4 active torsions:
REMARK  status: ('A' for Active; 'I' for Inactive)
REMARK    1  A    between atoms: C_4  and  C_5 
REMARK    2  A    between atoms: C_6  and  N_7 
REMARK    3  A    between atoms: C_9  and  C_10 
REMARK       I    between atoms: C_10  and  N_11 
REMARK    4  A    between atoms: N_11  and  C_12 
ROOT
HETATM    1  C   UNL     1       5.171  27.831  53.200  1.00  0.00     0.019 A 
HETATM    2  C   UNL     1       5.276  28.386  54.436  1.00  0.00     0.111 A 
HETATM    3  C   UNL     1       4.537  29.689  54.727  1.00  0.00     0.273 A 
HETATM    4  O   UNL     1       4.583  30.248  55.822  1.00  0.00    -0.266 OA
HETATM    5  N   UNL     1       3.805  30.246  53.720  1.00  0.00    -0.321 N 
HETATM    6  C   UNL     1       3.688  29.695  52.448  1.00  0.00     0.046 A 
HETATM    7  C   UNL     1       4.341  28.493  52.157  1.00  0.00     0.006 A 
HETATM    8  C   UNL     1       2.916  30.357  51.491  1.00  0.00     0.032 A 
HETATM    9  C   UNL     1       2.785  29.815  50.214  1.00  0.00     0.026 A 
HETATM   10  C   UNL     1       3.423  28.615  49.909  1.00  0.00     0.035 A 
HETATM   11 CL   UNL     1       3.259  27.942  48.333  1.00  0.00    -0.084 Cl
HETATM   12  C   UNL     1       4.192  27.954  50.868  1.00  0.00     0.038 A 
HETATM   13  H   UNL     1       3.342  31.114  53.952  1.00  0.00     0.169 HD
ENDROOT
BRANCH   2  14
HETATM   14  N   UNL     1       6.082  27.852  55.477  1.00  0.00    -0.375 N 
HETATM   15  C   UNL     1       5.427  27.366  56.707  1.00  0.00     0.137 C 
HETATM   16  C   UNL     1       6.334  26.414  57.496  1.00  0.00     0.096 C 
HETATM   17  C   UNL     1       7.670  27.118  57.797  1.00  0.00     0.017 C 
HETATM   18  C   UNL     1       8.308  27.677  56.525  1.00  0.00     0.021 C 
HETATM   19  C   UNL     1       7.340  28.575  55.765  1.00  0.00     0.123 C 
BRANCH  16  20
HETATM   20  C   UNL     1       6.556  25.030  56.859  1.00  0.00     0.229 C 
HETATM   21  N   UNL     1       7.751  24.433  57.219  1.00  0.00    -0.311 N 
HETATM   22  H   UNL     1       8.311  24.865  57.933  1.00  0.00     0.170 HD
HETATM   23  O   UNL     1       5.767  24.594  56.023  1.00  0.00    -0.273 OA
BRANCH  21  24
HETATM   24  C   UNL     1       8.242  23.223  56.702  1.00  0.00     0.129 A 
HETATM   25  N   UNL     1       8.112  22.073  57.382  1.00  0.00    -0.243 NA
HETATM   26  C   UNL     1       8.597  20.942  56.829  1.00  0.00     0.119 A 
HETATM   27  C   UNL     1       9.230  20.900  55.602  1.00  0.00     0.019 A 
HETATM   28  C   UNL     1       9.364  22.092  54.901  1.00  0.00     0.005 A 
HETATM   29  C   UNL     1       8.860  23.268  55.455  1.00  0.00     0.050 A 
ENDBRANCH  21  24
ENDBRANCH  16  20
ENDBRANCH   2  14
BRANCH   1  30
HETATM   30  C   UNL     1       5.909  26.565  52.954  1.00  0.00    -0.023 A 
HETATM   31  C   UNL     1       5.228  25.341  52.939  1.00  0.00     0.012 A 
HETATM   32  C   UNL     1       5.923  24.154  52.710  1.00  0.00     0.001 A 
HETATM   33  C   UNL     1       7.298  24.182  52.480  1.00  0.00     0.000 A 
HETATM   34  C   UNL     1       7.981  25.397  52.478  1.00  0.00     0.001 A 
HETATM   35  C   UNL     1       7.289  26.586  52.716  1.00  0.00     0.012 A 
ENDBRANCH   1  30
TORSDOF 4
ENDMDL
MODEL 3
REMARK VINA RESULT:      -9.0      3.050      7.805
REMARK  4 active torsions:
REMARK  status: ('A' for Active; 'I' for Inactive)
REMARK    1  A    between atoms: C_4  and  C_5 
REMARK    2  A    between atoms: C_6  and  N_7 
REMARK    3  A    between atoms: C_9  and  C_10 
REMARK       I    between atoms: C_10  and  N_11 
REMARK    4  A    between atoms: N_11  and  C_12 
ROOT
HETATM    1  C   UNL     1       5.799  28.635  55.527  1.00  0.00     0.019 A 
HETATM    2  C   UNL     1       5.369  28.469  54.249  1.00  0.00     0.111 A 
HETATM    3  C   UNL     1       4.754  29.658  53.516  1.00  0.00     0.273 A 
HETATM    4  O   UNL     1       4.345  29.584  52.358  1.00  0.00    -0.266 OA
HETATM    5  N   UNL     1       4.656  30.841  54.188  1.00  0.00    -0.321 N 
HETATM    6  C   UNL     1       5.087  31.029  55.496  1.00  0.00     0.046 A 
HETATM    7  C   UNL     1       5.669  29.962  56.189  1.00  0.00     0.006 A 
HETATM    8  C   UNL     1       4.930  32.284  56.088  1.00  0.00     0.032 A 
HETATM    9  C   UNL     1       5.362  32.489  57.397  1.00  0.00     0.026 A 
HETATM   10  C   UNL     1       5.950  31.440  58.098  1.00  0.00     0.035 A 
HETATM   11 CL   UNL     1       6.488  31.693  59.714  1.00  0.00    -0.084 Cl
HETATM   12  C   UNL     1       6.109  30.186  57.504  1.00  0.00     0.038 A 
HETATM   13  H   UNL     1       4.232  31.598  53.669  1.00  0.00     0.169 HD
ENDROOT
BRANCH   2  14
HETATM   14  N   UNL     1       5.408  27.230  53.555  1.00  0.00    -0.375 N 
HETATM   15  C   UNL     1       6.349  27.074  52.429  1.00  0.00     0.137 C 
HETATM   16  C   UNL     1       6.614  25.597  52.111  1.00  0.00     0.096 C 
HETATM   17  C   UNL     1       5.274  24.887  51.843  1.00  0.00     0.017 C 
HETATM   18  C   UNL     1       4.283  25.111  52.985  1.00  0.00     0.021 C 
HETATM   19  C   UNL     1       4.101  26.594  53.280  1.00  0.00     0.123 C 
BRANCH  16  20
HETATM   20  C   UNL     1       7.458  24.837  53.150  1.00  0.00     0.229 C 
HETATM   21  N   UNL     1       7.326  23.461  53.081  1.00  0.00    -0.311 N 
HETATM   22  H   UNL     1       6.809  23.063  52.316  1.00  0.00     0.170 HD
HETATM   23  O   UNL     1       8.084  25.448  54.014  1.00  0.00    -0.273 OA
BRANCH  21  24
HETATM   24  C   UNL     1       7.903  22.544  53.974  1.00  0.00     0.129 A 
HETATM   25  N   UNL     1       8.180  22.889  55.242  1.00  0.00    -0.243 NA
HETATM   26  C   UNL     1       8.726  21.961  56.055  1.00  0.00     0.119 A 
HETATM   27  C   UNL     1       9.025  20.673  55.654  1.00  0.00     0.019 A 
HETATM   28  C   UNL     1       8.739  20.319  54.342  1.00  0.00     0.005 A 
HETATM   29  C   UNL     1       8.166  21.264  53.491  1.00  0.00     0.050 A 
ENDBRANCH  21  24
ENDBRANCH  16  20
ENDBRANCH   2  14
BRANCH   1  30
HETATM   30  C   UNL     1       6.388  27.453  56.209  1.00  0.00    -0.023 A 
HETATM   31  C   UNL     1       7.740  27.448  56.574  1.00  0.00     0.012 A 
HETATM   32  C   UNL     1       8.291  26.337  57.212  1.00  0.00     0.001 A 
HETATM   33  C   UNL     1       7.493  25.231  57.502  1.00  0.00     0.000 A 
HETATM   34  C   UNL     1       6.143  25.234  57.156  1.00  0.00     0.001 A 
HETATM   35  C   UNL     1       5.591  26.341  56.510  1.00  0.00     0.012 A 
ENDBRANCH   1  30
TORSDOF 4
ENDMDL
MODEL 4
REMARK VINA RESULT:      -8.9      3.282      6.853
REMARK  4 active torsions:
REMARK  status: ('A' for Active; 'I' for Inactive)
REMARK    1  A    between atoms: C_4  and  C_5 
REMARK    2  A    between atoms: C_6  and  N_7 
REMARK    3  A    between atoms: C_9  and  C_10 
REMARK       I    between atoms: C_10  and  N_11 
REMARK    4  A    between atoms: N_11  and  C_12 
ROOT
HETATM    1  C   UNL     1       5.356  27.044  52.620  1.00  0.00     0.019 A 
HETATM    2  C   UNL     1       5.268  27.821  53.732  1.00  0.00     0.111 A 
HETATM    3  C   UNL     1       4.405  29.079  53.686  1.00  0.00     0.273 A 
HETATM    4  O   UNL     1       4.275  29.830  54.653  1.00  0.00    -0.266 OA
HETATM    5  N   UNL     1       3.763  29.372  52.519  1.00  0.00    -0.321 N 
HETATM    6  C   UNL     1       3.844  28.590  51.371  1.00  0.00     0.046 A 
HETATM    7  C   UNL     1       4.615  27.423  51.387  1.00  0.00     0.006 A 
HETATM    8  C   UNL     1       3.149  28.991  50.228  1.00  0.00     0.032 A 
HETATM    9  C   UNL     1       3.217  28.215  49.072  1.00  0.00     0.026 A 
HETATM   10  C   UNL     1       3.974  27.046  49.072  1.00  0.00     0.035 A 
HETATM   11 CL   UNL     1       4.055  26.086  47.647  1.00  0.00    -0.084 Cl
HETATM   12  C   UNL     1       4.666  26.647  50.217  1.00  0.00     0.038 A 
HETATM   13  H   UNL     1       3.212  30.219  52.529  1.00  0.00     0.169 HD
ENDROOT
BRANCH   2  14
HETATM   14  N   UNL     1       5.976  27.565  54.936  1.00  0.00    -0.375 N 
HETATM   15  C   UNL     1       7.451  27.575  54.910  1.00  0.00     0.137 C 
HETATM   16  C   UNL     1       8.044  27.760  56.313  1.00  0.00     0.096 C 
HETATM   17  C   UNL     1       7.493  26.666  57.245  1.00  0.00     0.017 C 
HETATM   18  C   UNL     1       5.965  26.619  57.214  1.00  0.00     0.021 C 
HETATM   19  C   UNL     1       5.442  26.481  55.789  1.00  0.00     0.123 C 
BRANCH  16  20
HETATM   20  C   UNL     1       7.870  29.163  56.924  1.00  0.00     0.229 C 
HETATM   21  N   UNL     1       8.387  29.284  58.202  1.00  0.00    -0.311 N 
HETATM   22  H   UNL     1       8.923  28.522  58.581  1.00  0.00     0.170 HD
HETATM   23  O   UNL     1       7.223  30.025  56.334  1.00  0.00    -0.273 OA
BRANCH  21  24
HETATM   24  C   UNL     1       8.271  30.419  59.021  1.00  0.00     0.129 A 
HETATM   25  N   UNL     1       7.078  30.992  59.249  1.00  0.00    -0.243 NA
HETATM   26  C   UNL     1       7.030  32.076  60.051  1.00  0.00     0.119 A 
HETATM   27  C   UNL     1       8.143  32.637  60.648  1.00  0.00     0.019 A 
HETATM   28  C   UNL     1       9.375  32.043  60.409  1.00  0.00     0.005 A 
HETATM   29  C   UNL     1       9.441  30.917  59.589  1.00  0.00     0.050 A 
ENDBRANCH  21  24
ENDBRANCH  16  20
ENDBRANCH   2  14
BRANCH   1  30
HETATM   30  C   UNL     1       6.210  25.830  52.702  1.00  0.00    -0.023 A 
HETATM   31  C   UNL     1       5.712  24.652  53.273  1.00  0.00     0.012 A 
HETATM   32  C   UNL     1       6.516  23.515  53.351  1.00  0.00     0.001 A 
HETATM   33  C   UNL     1       7.815  23.543  52.846  1.00  0.00     0.000 A 
HETATM   34  C   UNL     1       8.314  24.706  52.263  1.00  0.00     0.001 A 
HETATM   35  C   UNL     1       7.515  25.848  52.192  1.00  0.00     0.012 A 
ENDBRANCH   1  30
TORSDOF 4
ENDMDL
MODEL 5
REMARK VINA RESULT:      -8.6      3.311      7.271
REMARK  4 active torsions:
REMARK  status: ('A' for Active; 'I' for Inactive)
REMARK    1  A    between atoms: C_4  and  C_5 
REMARK    2  A    between atoms: C_6  and  N_7 
REMARK    3  A    between atoms: C_9  and  C_10 
REMARK       I    between atoms: C_10  and  N_11 
REMARK    4  A    between atoms: N_11  and  C_12 
ROOT
HETATM    1  C   UNL     1       5.537  28.060  53.308  1.00  0.00     0.019 A 
HETATM    2  C   UNL     1       6.096  26.822  53.377  1.00  0.00     0.111 A 
HETATM    3  C   UNL     1       6.377  26.066  52.081  1.00  0.00     0.273 A 
HETATM    4  O   UNL     1       6.883  24.944  52.065  1.00  0.00    -0.266 OA
HETATM    5  N   UNL     1       6.044  26.669  50.904  1.00  0.00    -0.321 N 
HETATM    6  C   UNL     1       5.470  27.932  50.814  1.00  0.00     0.046 A 
HETATM    7  C   UNL     1       5.214  28.656  51.983  1.00  0.00     0.006 A 
HETATM    8  C   UNL     1       5.164  28.449  49.553  1.00  0.00     0.032 A 
HETATM    9  C   UNL     1       4.592  29.715  49.447  1.00  0.00     0.026 A 
HETATM   10  C   UNL     1       4.338  30.453  50.600  1.00  0.00     0.035 A 
HETATM   11 CL   UNL     1       3.635  32.019  50.469  1.00  0.00    -0.084 Cl
HETATM   12  C   UNL     1       4.647  29.935  51.859  1.00  0.00     0.038 A 
HETATM   13  H   UNL     1       6.238  26.128  50.072  1.00  0.00     0.169 HD
ENDROOT
BRANCH   2  14
HETATM   14  N   UNL     1       6.393  26.155  54.594  1.00  0.00    -0.375 N 
HETATM   15  C   UNL     1       7.774  25.696  54.837  1.00  0.00     0.137 C 
HETATM   16  C   UNL     1       8.037  25.444  56.327  1.00  0.00     0.096 C 
HETATM   17  C   UNL     1       6.997  24.444  56.864  1.00  0.00     0.017 C 
HETATM   18  C   UNL     1       5.571  24.895  56.549  1.00  0.00     0.021 C 
HETATM   19  C   UNL     1       5.390  25.173  55.062  1.00  0.00     0.123 C 
BRANCH  16  20
HETATM   20  C   UNL     1       8.115  26.706  57.207  1.00  0.00     0.229 C 
HETATM   21  N   UNL     1       8.928  27.700  56.689  1.00  0.00    -0.311 N 
HETATM   22  H   UNL     1       9.298  27.587  55.761  1.00  0.00     0.170 HD
HETATM   23  O   UNL     1       7.580  26.730  58.313  1.00  0.00    -0.273 OA
BRANCH  21  24
HETATM   24  C   UNL     1       9.253  28.902  57.337  1.00  0.00     0.129 A 
HETATM   25  N   UNL     1       8.532  29.346  58.380  1.00  0.00    -0.243 NA
HETATM   26  C   UNL     1       8.898  30.505  58.966  1.00  0.00     0.119 A 
HETATM   27  C   UNL     1       9.972  31.268  58.549  1.00  0.00     0.019 A 
HETATM   28  C   UNL     1      10.714  30.807  57.470  1.00  0.00     0.005 A 
HETATM   29  C   UNL     1      10.355  29.606  56.859  1.00  0.00     0.050 A 
ENDBRANCH  21  24
ENDBRANCH  16  20
ENDBRANCH   2  14
BRANCH   1  30
HETATM   30  C   UNL     1       5.274  28.763  54.590  1.00  0.00    -0.023 A 
HETATM   31  C   UNL     1       6.273  29.541  55.188  1.00  0.00     0.012 A 
HETATM   32  C   UNL     1       6.024  30.198  56.393  1.00  0.00     0.001 A 
HETATM   33  C   UNL     1       4.773  30.095  56.999  1.00  0.00     0.000 A 
HETATM   34  C   UNL     1       3.768  29.334  56.403  1.00  0.00     0.001 A 
HETATM   35  C   UNL     1       4.017  28.669  55.202  1.00  0.00     0.012 A 
ENDBRANCH   1  30
TORSDOF 4
ENDMDL
MODEL 6
REMARK VINA RESULT:      -8.4     10.156     13.568
REMARK  4 active torsions:
REMARK  status: ('A' for Active; 'I' for Inactive)
REMARK    1  A    between atoms: C_4  and  C_5 
REMARK    2  A    between atoms: C_6  and  N_7 
REMARK    3  A    between atoms: C_9  and  C_10 
REMARK       I    between atoms: C_10  and  N_11 
REMARK    4  A    between atoms: N_11  and  C_12 
ROOT
HETATM    1  C   UNL     1       5.571  33.332  61.231  1.00  0.00     0.019 A 
HETATM    2  C   UNL     1       6.145  33.527  62.449  1.00  0.00     0.111 A 
HETATM    3  C   UNL     1       7.443  32.796  62.779  1.00  0.00     0.273 A 
HETATM    4  O   UNL     1       8.021  32.925  63.858  1.00  0.00    -0.266 OA
HETATM    5  N   UNL     1       7.968  31.968  61.832  1.00  0.00    -0.321 N 
HETATM    6  C   UNL     1       7.395  31.753  60.583  1.00  0.00     0.046 A 
HETATM    7  C   UNL     1       6.213  32.420  60.245  1.00  0.00     0.006 A 
HETATM    8  C   UNL     1       8.018  30.875  59.693  1.00  0.00     0.032 A 
HETATM    9  C   UNL     1       7.458  30.654  58.436  1.00  0.00     0.026 A 
HETATM   10  C   UNL     1       6.285  31.316  58.081  1.00  0.00     0.035 A 
HETATM   11 CL   UNL     1       5.595  31.046  56.528  1.00  0.00    -0.084 Cl
HETATM   12  C   UNL     1       5.666  32.195  58.972  1.00  0.00     0.038 A 
HETATM   13  H   UNL     1       8.822  31.496  62.097  1.00  0.00     0.169 HD
ENDROOT
BRANCH   2  14
HETATM   14  N   UNL     1       5.580  34.338  63.468  1.00  0.00    -0.375 N 
HETATM   15  C   UNL     1       4.427  33.823  64.232  1.00  0.00     0.137 C 
HETATM   16  C   UNL     1       4.247  34.567  65.561  1.00  0.00     0.096 C 
HETATM   17  C   UNL     1       4.125  36.077  65.285  1.00  0.00     0.017 C 
HETATM   18  C   UNL     1       5.290  36.588  64.437  1.00  0.00     0.021 C 
HETATM   19  C   UNL     1       5.443  35.778  63.155  1.00  0.00     0.123 C 
BRANCH  16  20
HETATM   20  C   UNL     1       5.312  34.273  66.633  1.00  0.00     0.229 C 
HETATM   21  N   UNL     1       4.947  34.670  67.908  1.00  0.00    -0.311 N 
HETATM   22  H   UNL     1       4.009  34.996  68.063  1.00  0.00     0.170 HD
HETATM   23  O   UNL     1       6.414  33.831  66.315  1.00  0.00    -0.273 OA
BRANCH  21  24
HETATM   24  C   UNL     1       5.771  34.612  69.044  1.00  0.00     0.129 A 
HETATM   25  N   UNL     1       5.522  33.745  70.039  1.00  0.00    -0.243 NA
HETATM   26  C   UNL     1       6.355  33.731  71.100  1.00  0.00     0.119 A 
HETATM   27  C   UNL     1       7.449  34.565  71.226  1.00  0.00     0.019 A 
HETATM   28  C   UNL     1       7.703  35.461  70.196  1.00  0.00     0.005 A 
HETATM   29  C   UNL     1       6.857  35.482  69.088  1.00  0.00     0.050 A 
ENDBRANCH  21  24
ENDBRANCH  16  20
ENDBRANCH   2  14
BRANCH   1  30
HETATM   30  C   UNL     1       4.305  34.056  60.948  1.00  0.00    -0.023 A 
HETATM   31  C   UNL     1       4.330  35.293  60.293  1.00  0.00     0.012 A 
HETATM   32  C   UNL     1       3.141  35.973  60.030  1.00  0.00     0.001 A 
HETATM   33  C   UNL     1       1.920  35.415  60.407  1.00  0.00     0.000 A 
HETATM   34  C   UNL     1       1.885  34.177  61.047  1.00  0.00     0.001 A 
HETATM   35  C   UNL     1       3.074  33.499  61.319  1.00  0.00     0.012 A 
ENDBRANCH   1  30
TORSDOF 4
ENDMDL
MODEL 7
REMARK VINA RESULT:      -8.4      2.811      7.491
REMARK  4 active torsions:
REMARK  status: ('A' for Active; 'I' for Inactive)
REMARK    1  A    between atoms: C_4  and  C_5 
REMARK    2  A    between atoms: C_6  and  N_7 
REMARK    3  A    between atoms: C_9  and  C_10 
REMARK       I    between atoms: C_10  and  N_11 
REMARK    4  A    between atoms: N_11  and  C_12 
ROOT
HETATM    1  C   UNL     1       5.205  28.171  53.509  1.00  0.00     0.019 A 
HETATM    2  C   UNL     1       6.153  27.219  53.717  1.00  0.00     0.111 A 
HETATM    3  C   UNL     1       6.580  26.334  52.550  1.00  0.00     0.273 A 
HETATM    4  O   UNL     1       7.433  25.454  52.662  1.00  0.00    -0.266 OA
HETATM    5  N   UNL     1       5.978  26.535  51.342  1.00  0.00    -0.321 N 
HETATM    6  C   UNL     1       5.005  27.501  51.111  1.00  0.00     0.046 A 
HETATM    7  C   UNL     1       4.604  28.338  52.157  1.00  0.00     0.006 A 
HETATM    8  C   UNL     1       4.452  27.614  49.833  1.00  0.00     0.032 A 
HETATM    9  C   UNL     1       3.479  28.580  49.585  1.00  0.00     0.026 A 
HETATM   10  C   UNL     1       3.074  29.427  50.614  1.00  0.00     0.035 A 
HETATM   11 CL   UNL     1       1.876  30.623  50.307  1.00  0.00    -0.084 Cl
HETATM   12  C   UNL     1       3.630  29.314  51.889  1.00  0.00     0.038 A 
HETATM   13  H   UNL     1       6.283  25.920  50.601  1.00  0.00     0.169 HD
ENDROOT
BRANCH   2  14
HETATM   14  N   UNL     1       6.745  26.955  54.981  1.00  0.00    -0.375 N 
HETATM   15  C   UNL     1       5.964  26.221  55.994  1.00  0.00     0.137 C 
HETATM   16  C   UNL     1       6.864  25.612  57.076  1.00  0.00     0.096 C 
HETATM   17  C   UNL     1       7.723  26.723  57.707  1.00  0.00     0.017 C 
HETATM   18  C   UNL     1       8.478  27.521  56.643  1.00  0.00     0.021 C 
HETATM   19  C   UNL     1       7.532  28.058  55.576  1.00  0.00     0.123 C 
BRANCH  16  20
HETATM   20  C   UNL     1       7.727  24.419  56.623  1.00  0.00     0.229 C 
HETATM   21  N   UNL     1       7.112  23.607  55.686  1.00  0.00    -0.311 N 
HETATM   22  H   UNL     1       6.236  23.903  55.291  1.00  0.00     0.170 HD
HETATM   23  O   UNL     1       8.807  24.190  57.163  1.00  0.00    -0.273 OA
BRANCH  21  24
HETATM   24  C   UNL     1       7.634  22.404  55.187  1.00  0.00     0.129 A 
HETATM   25  N   UNL     1       7.940  21.385  56.007  1.00  0.00    -0.243 NA
HETATM   26  C   UNL     1       8.431  20.251  55.466  1.00  0.00     0.119 A 
HETATM   27  C   UNL     1       8.646  20.079  54.113  1.00  0.00     0.019 A 
HETATM   28  C   UNL     1       8.330  21.134  53.267  1.00  0.00     0.005 A 
HETATM   29  C   UNL     1       7.813  22.310  53.809  1.00  0.00     0.050 A 
ENDBRANCH  21  24
ENDBRANCH  16  20
ENDBRANCH   2  14
BRANCH   1  30
HETATM   30  C   UNL     1       4.812  29.010  54.671  1.00  0.00    -0.023 A 
HETATM   31  C   UNL     1       5.381  30.276  54.854  1.00  0.00     0.012 A 
HETATM   32  C   UNL     1       5.013  31.061  55.946  1.00  0.00     0.001 A 
HETATM   33  C   UNL     1       4.064  30.593  56.853  1.00  0.00     0.000 A 
HETATM   34  C   UNL     1       3.481  29.340  56.671  1.00  0.00     0.001 A 
HETATM   35  C   UNL     1       3.854  28.549  55.584  1.00  0.00     0.012 A 
ENDBRANCH   1  30
TORSDOF 4
ENDMDL
MODEL 8
REMARK VINA RESULT:      -8.0      9.129     11.654
REMARK  4 active torsions:
REMARK  status: ('A' for Active; 'I' for Inactive)
REMARK    1  A    between atoms: C_4  and  C_5 
REMARK    2  A    between atoms: C_6  and  N_7 
REMARK    3  A    between atoms: C_9  and  C_10 
REMARK       I    between atoms: C_10  and  N_11 
REMARK    4  A    between atoms: N_11  and  C_12 
ROOT
HETATM    1  C   UNL     1       6.041  33.061  61.431  1.00  0.00     0.019 A 
HETATM    2  C   UNL     1       6.308  33.481  62.697  1.00  0.00     0.111 A 
HETATM    3  C   UNL     1       7.545  32.943  63.408  1.00  0.00     0.273 A 
HETATM    4  O   UNL     1       7.852  33.279  64.552  1.00  0.00    -0.266 OA
HETATM    5  N   UNL     1       8.329  32.050  62.739  1.00  0.00    -0.321 N 
HETATM    6  C   UNL     1       8.071  31.606  61.446  1.00  0.00     0.046 A 
HETATM    7  C   UNL     1       6.953  32.094  60.762  1.00  0.00     0.006 A 
HETATM    8  C   UNL     1       8.940  30.683  60.860  1.00  0.00     0.032 A 
HETATM    9  C   UNL     1       8.697  30.233  59.564  1.00  0.00     0.026 A 
HETATM   10  C   UNL     1       7.592  30.714  58.866  1.00  0.00     0.035 A 
HETATM   11 CL   UNL     1       7.293  30.162  57.263  1.00  0.00    -0.084 Cl
HETATM   12  C   UNL     1       6.726  31.638  59.453  1.00  0.00     0.038 A 
HETATM   13  H   UNL     1       9.132  31.711  63.251  1.00  0.00     0.169 HD
ENDROOT
BRANCH   2  14
HETATM   14  N   UNL     1       5.470  34.363  63.430  1.00  0.00    -0.375 N 
HETATM   15  C   UNL     1       5.966  35.716  63.749  1.00  0.00     0.137 C 
HETATM   16  C   UNL     1       4.821  36.674  64.099  1.00  0.00     0.096 C 
HETATM   17  C   UNL     1       3.996  36.078  65.254  1.00  0.00     0.017 C 
HETATM   18  C   UNL     1       3.543  34.651  64.942  1.00  0.00     0.021 C 
HETATM   19  C   UNL     1       4.721  33.765  64.557  1.00  0.00     0.123 C 
BRANCH  16  20
HETATM   20  C   UNL     1       3.923  37.091  62.919  1.00  0.00     0.229 C 
HETATM   21  N   UNL     1       4.343  38.242  62.276  1.00  0.00    -0.311 N 
HETATM   22  H   UNL     1       5.230  38.642  62.531  1.00  0.00     0.170 HD
HETATM   23  O   UNL     1       2.878  36.487  62.687  1.00  0.00    -0.273 OA
BRANCH  21  24
HETATM   24  C   UNL     1       3.651  38.892  61.241  1.00  0.00     0.129 A 
HETATM   25  N   UNL     1       2.595  39.681  61.499  1.00  0.00    -0.243 NA
HETATM   26  C   UNL     1       1.977  40.284  60.463  1.00  0.00     0.119 A 
HETATM   27  C   UNL     1       2.365  40.131  59.145  1.00  0.00     0.019 A 
HETATM   28  C   UNL     1       3.456  39.314  58.882  1.00  0.00     0.005 A 
HETATM   29  C   UNL     1       4.112  38.690  59.942  1.00  0.00     0.050 A 
ENDBRANCH  21  24
ENDBRANCH  16  20
ENDBRANCH   2  14
BRANCH   1  30
HETATM   30  C   UNL     1       4.825  33.604  60.773  1.00  0.00    -0.023 A 
HETATM   31  C   UNL     1       3.581  32.990  60.968  1.00  0.00     0.012 A 
HETATM   32  C   UNL     1       2.441  33.500  60.348  1.00  0.00     0.001 A 
HETATM   33  C   UNL     1       2.533  34.633  59.541  1.00  0.00     0.000 A 
HETATM   34  C   UNL     1       3.764  35.259  59.352  1.00  0.00     0.001 A 
HETATM   35  C   UNL     1       4.908  34.746  59.965  1.00  0.00     0.012 A 
ENDBRANCH   1  30
TORSDOF 4
ENDMDL
MODEL 9
REMARK VINA RESULT:      -7.9      8.024     11.664
REMARK  4 active torsions:
REMARK  status: ('A' for Active; 'I' for Inactive)
REMARK    1  A    between atoms: C_4  and  C_5 
REMARK    2  A    between atoms: C_6  and  N_7 
REMARK    3  A    between atoms: C_9  and  C_10 
REMARK       I    between atoms: C_10  and  N_11 
REMARK    4  A    between atoms: N_11  and  C_12 
ROOT
HETATM    1  C   UNL     1       5.387  32.398  59.414  1.00  0.00     0.019 A 
HETATM    2  C   UNL     1       4.366  33.281  59.244  1.00  0.00     0.111 A 
HETATM    3  C   UNL     1       3.601  33.280  57.924  1.00  0.00     0.273 A 
HETATM    4  O   UNL     1       2.666  34.047  57.699  1.00  0.00    -0.266 OA
HETATM    5  N   UNL     1       3.986  32.391  56.963  1.00  0.00    -0.321 N 
HETATM    6  C   UNL     1       5.029  31.484  57.117  1.00  0.00     0.046 A 
HETATM    7  C   UNL     1       5.738  31.450  58.322  1.00  0.00     0.006 A 
HETATM    8  C   UNL     1       5.340  30.624  56.062  1.00  0.00     0.032 A 
HETATM    9  C   UNL     1       6.379  29.706  56.203  1.00  0.00     0.026 A 
HETATM   10  C   UNL     1       7.091  29.654  57.399  1.00  0.00     0.035 A 
HETATM   11 CL   UNL     1       8.372  28.518  57.576  1.00  0.00    -0.084 Cl
HETATM   12  C   UNL     1       6.776  30.513  58.453  1.00  0.00     0.038 A 
HETATM   13  H   UNL     1       3.460  32.433  56.101  1.00  0.00     0.169 HD
ENDROOT
BRANCH   2  14
HETATM   14  N   UNL     1       3.992  34.253  60.210  1.00  0.00    -0.375 N 
HETATM   15  C   UNL     1       2.599  34.274  60.695  1.00  0.00     0.137 C 
HETATM   16  C   UNL     1       2.473  35.021  62.029  1.00  0.00     0.096 C 
HETATM   17  C   UNL     1       3.048  36.440  61.872  1.00  0.00     0.017 C 
HETATM   18  C   UNL     1       4.468  36.410  61.306  1.00  0.00     0.021 C 
HETATM   19  C   UNL     1       4.532  35.615  60.007  1.00  0.00     0.123 C 
BRANCH  16  20
HETATM   20  C   UNL     1       3.073  34.299  63.250  1.00  0.00     0.229 C 
HETATM   21  N   UNL     1       3.616  35.154  64.194  1.00  0.00    -0.311 N 
HETATM   22  H   UNL     1       3.481  36.144  64.084  1.00  0.00     0.170 HD
HETATM   23  O   UNL     1       3.140  33.072  63.280  1.00  0.00    -0.273 OA
BRANCH  21  24
HETATM   24  C   UNL     1       4.313  34.754  65.345  1.00  0.00     0.129 A 
HETATM   25  N   UNL     1       3.675  34.551  66.509  1.00  0.00    -0.243 NA
HETATM   26  C   UNL     1       4.399  34.160  67.579  1.00  0.00     0.119 A 
HETATM   27  C   UNL     1       5.765  33.962  67.547  1.00  0.00     0.019 A 
HETATM   28  C   UNL     1       6.423  34.173  66.342  1.00  0.00     0.005 A 
HETATM   29  C   UNL     1       5.688  34.569  65.225  1.00  0.00     0.050 A 
ENDBRANCH  21  24
ENDBRANCH  16  20
ENDBRANCH   2  14
BRANCH   1  30
HETATM   30  C   UNL     1       6.111  32.432  60.711  1.00  0.00    -0.023 A 
HETATM   31  C   UNL     1       5.555  31.833  61.848  1.00  0.00     0.012 A 
HETATM   32  C   UNL     1       6.235  31.868  63.064  1.00  0.00     0.001 A 
HETATM   33  C   UNL     1       7.481  32.489  63.150  1.00  0.00     0.000 A 
HETATM   34  C   UNL     1       8.048  33.075  62.021  1.00  0.00     0.001 A 
HETATM   35  C   UNL     1       7.366  33.049  60.804  1.00  0.00     0.012 A 
ENDBRANCH   1  30
TORSDOF 4
ENDMDL
MODEL 10
REMARK VINA RESULT:      -7.9      6.495      9.507
REMARK  4 active torsions:
REMARK  status: ('A' for Active; 'I' for Inactive)
REMARK    1  A    between atoms: C_4  and  C_5 
REMARK    2  A    between atoms: C_6  and  N_7 
REMARK    3  A    between atoms: C_9  and  C_10 
REMARK       I    between atoms: C_10  and  N_11 
REMARK    4  A    between atoms: N_11  and  C_12 
ROOT
HETATM    1  C   UNL     1       5.696  31.352  57.510  1.00  0.00     0.019 A 
HETATM    2  C   UNL     1       5.761  32.050  58.675  1.00  0.00     0.111 A 
HETATM    3  C   UNL     1       6.865  31.716  59.675  1.00  0.00     0.273 A 
HETATM    4  O   UNL     1       6.988  32.306  60.748  1.00  0.00    -0.266 OA
HETATM    5  N   UNL     1       7.736  30.717  59.354  1.00  0.00    -0.321 N 
HETATM    6  C   UNL     1       7.683  29.990  58.170  1.00  0.00     0.046 A 
HETATM    7  C   UNL     1       6.693  30.284  57.227  1.00  0.00     0.006 A 
HETATM    8  C   UNL     1       8.625  28.983  57.950  1.00  0.00     0.032 A 
HETATM    9  C   UNL     1       8.587  28.249  56.766  1.00  0.00     0.026 A 
HETATM   10  C   UNL     1       7.612  28.533  55.813  1.00  0.00     0.035 A 
HETATM   11 CL   UNL     1       7.567  27.630  54.348  1.00  0.00    -0.084 Cl
HETATM   12  C   UNL     1       6.673  29.542  56.034  1.00  0.00     0.038 A 
HETATM   13  H   UNL     1       8.443  30.521  60.050  1.00  0.00     0.169 HD
ENDROOT
BRANCH   2  14
HETATM   14  N   UNL     1       4.827  33.051  59.052  1.00  0.00    -0.375 N 
HETATM   15  C   UNL     1       3.603  32.648  59.770  1.00  0.00     0.137 C 
HETATM   16  C   UNL     1       2.960  33.830  60.506  1.00  0.00     0.096 C 
HETATM   17  C   UNL     1       2.690  34.967  59.504  1.00  0.00     0.017 C 
HETATM   18  C   UNL     1       3.949  35.332  58.718  1.00  0.00     0.021 C 
HETATM   19  C   UNL     1       4.562  34.107  58.050  1.00  0.00     0.123 C 
BRANCH  16  20
HETATM   20  C   UNL     1       3.728  34.336  61.742  1.00  0.00     0.229 C 
HETATM   21  N   UNL     1       4.403  33.340  62.428  1.00  0.00    -0.311 N 
HETATM   22  H   UNL     1       4.445  32.420  62.026  1.00  0.00     0.170 HD
HETATM   23  O   UNL     1       3.624  35.505  62.106  1.00  0.00    -0.273 OA
BRANCH  21  24
HETATM   24  C   UNL     1       5.091  33.513  63.639  1.00  0.00     0.129 A 
HETATM   25  N   UNL     1       4.433  33.599  64.807  1.00  0.00    -0.243 NA
HETATM   26  C   UNL     1       5.152  33.756  65.938  1.00  0.00     0.119 A 
HETATM   27  C   UNL     1       6.531  33.842  65.964  1.00  0.00     0.019 A 
HETATM   28  C   UNL     1       7.208  33.755  64.755  1.00  0.00     0.005 A 
HETATM   29  C   UNL     1       6.481  33.583  63.577  1.00  0.00     0.050 A 
ENDBRANCH  21  24
ENDBRANCH  16  20
ENDBRANCH   2  14
BRANCH   1  30
HETATM   30  C   UNL     1       4.605  31.702  56.564  1.00  0.00    -0.023 A 
HETATM   31  C   UNL     1       4.836  32.609  55.522  1.00  0.00     0.012 A 
HETATM   32  C   UNL     1       3.811  32.939  54.637  1.00  0.00     0.001 A 
HETATM   33  C   UNL     1       2.553  32.354  54.777  1.00  0.00     0.000 A 
HETATM   34  C   UNL     1       2.317  31.440  55.802  1.00  0.00     0.001 A 
HETATM   35  C   UNL     1       3.340  31.115  56.695  1.00  0.00     0.012 A 
ENDBRANCH   1  30
TORSDOF 4
ENDMDL
