MODEL 1
REMARK VINA RESULT:      -8.4      0.000      0.000
REMARK  7 active torsions:
REMARK  status: ('A' for Active; 'I' for Inactive)
REMARK    1  A    between atoms: S_2  and  C_3 
REMARK    2  A    between atoms: C_3  and  C_4 
REMARK    3  A    between atoms: C_4  and  C_5 
REMARK    4  A    between atoms: C_5  and  N_6 
REMARK    5  A    between atoms: C_5  and  C_10 
REMARK       I    between atoms: N_6  and  C_7 
REMARK       I    between atoms: C_7  and  N_8 
REMARK       I    between atoms: C_10  and  N_11 
REMARK    6  A    between atoms: N_11  and  N_12 
REMARK       I    between atoms: N_12  and  C_13 
REMARK    7  A    between atoms: C_13  and  C_14 
ROOT
HETATM    1  C   UNL     1       7.567  28.991  57.559  1.00  0.00     0.259 C 
HETATM    2  N   UNL     1       7.548  28.581  56.243  1.00  0.00    -0.265 N 
HETATM    3  O   UNL     1       7.953  28.240  58.460  1.00  0.00    -0.269 OA
HETATM    4  H   UNL     1       7.260  29.158  55.453  1.00  0.00     0.190 HD
ENDROOT
BRANCH   2   5
HETATM    5  N   UNL     1       7.841  27.247  55.947  1.00  0.00    -0.263 N 
HETATM    6  C   UNL     1       7.067  26.586  55.007  1.00  0.00     0.278 C 
HETATM    7  O   UNL     1       6.203  27.211  54.388  1.00  0.00    -0.265 OA
HETATM    8  H   UNL     1       8.549  26.784  56.516  1.00  0.00     0.190 HD
BRANCH   6   9
HETATM    9  C   UNL     1       7.341  25.167  54.827  1.00  0.00     0.097 A 
HETATM   10  S   UNL     1       7.310  24.090  56.158  1.00  0.00    -0.082 SA
HETATM   11  C   UNL     1       7.641  22.717  55.183  1.00  0.00     0.017 A 
HETATM   12  C   UNL     1       7.799  23.070  53.841  1.00  0.00     0.004 A 
HETATM   13  C   UNL     1       7.752  21.382  55.618  1.00  0.00     0.020 A 
HETATM   14  C   UNL     1       7.626  24.490  53.655  1.00  0.00     0.068 A 
HETATM   15  C   UNL     1       8.086  22.030  52.917  1.00  0.00     0.014 A 
HETATM   16 CL   UNL     1       7.775  25.207  52.097  1.00  0.00    -0.082 Cl
HETATM   17  C   UNL     1       8.197  20.703  53.344  1.00  0.00     0.001 A 
HETATM   18  C   UNL     1       8.029  20.384  54.682  1.00  0.00     0.001 A 
ENDBRANCH   6   9
ENDBRANCH   2   5
BRANCH   1  19
HETATM   19  C   UNL     1       7.212  30.480  57.800  1.00  0.00     0.180 C 
BRANCH  19  20
HETATM   20  C   UNL     1       5.895  30.916  57.134  1.00  0.00     0.045 C 
BRANCH  20  21
HETATM   21  C   UNL     1       4.689  30.101  57.599  1.00  0.00     0.076 C 
BRANCH  21  22
HETATM   22  S   UNL     1       3.867  29.355  56.151  1.00  0.00    -0.173 SA
HETATM   23  C   UNL     1       4.597  30.389  54.860  1.00  0.00     0.089 C 
ENDBRANCH  21  22
ENDBRANCH  20  21
ENDBRANCH  19  20
BRANCH  19  24
HETATM   24  N   UNL     1       7.315  30.755  59.237  1.00  0.00    -0.330 N 
HETATM   25  C   UNL     1       8.115  31.743  59.732  1.00  0.00     0.314 C 
HETATM   26  N   UNL     1       7.943  31.937  61.063  1.00  0.00    -0.352 N 
HETATM   27  O   UNL     1       8.959  32.363  59.105  1.00  0.00    -0.248 OA
HETATM   28  H   UNL     1       7.020  31.833  61.455  1.00  0.00     0.160 HD
HETATM   29  H   UNL     1       8.475  32.719  61.425  1.00  0.00     0.160 HD
HETATM   30  H   UNL     1       6.452  30.642  59.748  1.00  0.00     0.165 HD
ENDBRANCH  19  24
ENDBRANCH   1  19
TORSDOF 7
ENDMDL
MODEL 2
REMARK VINA RESULT:      -8.2      1.434      1.764
REMARK  7 active torsions:
REMARK  status: ('A' for Active; 'I' for Inactive)
REMARK    1  A    between atoms: S_2  and  C_3 
REMARK    2  A    between atoms: C_3  and  C_4 
REMARK    3  A    between atoms: C_4  and  C_5 
REMARK    4  A    between atoms: C_5  and  N_6 
REMARK    5  A    between atoms: C_5  and  C_10 
REMARK       I    between atoms: N_6  and  C_7 
REMARK       I    between atoms: C_7  and  N_8 
REMARK       I    between atoms: C_10  and  N_11 
REMARK    6  A    between atoms: N_11  and  N_12 
REMARK       I    between atoms: N_12  and  C_13 
REMARK    7  A    between atoms: C_13  and  C_14 
ROOT
HETATM    1  C   UNL     1       8.302  29.009  57.612  1.00  0.00     0.259 C 
HETATM    2  N   UNL     1       7.280  28.102  57.426  1.00  0.00    -0.265 N 
HETATM    3  O   UNL     1       9.460  28.750  57.268  1.00  0.00    -0.269 OA
HETATM    4  H   UNL     1       6.303  28.262  57.670  1.00  0.00     0.190 HD
ENDROOT
BRANCH   2   5
HETATM    5  N   UNL     1       7.591  26.818  56.969  1.00  0.00    -0.263 N 
HETATM    6  C   UNL     1       7.259  26.474  55.668  1.00  0.00     0.278 C 
HETATM    7  O   UNL     1       6.785  27.331  54.919  1.00  0.00    -0.265 OA
HETATM    8  H   UNL     1       7.955  26.152  57.649  1.00  0.00     0.190 HD
BRANCH   6   9
HETATM    9  C   UNL     1       7.497  25.089  55.285  1.00  0.00     0.097 A 
HETATM   10  S   UNL     1       7.509  23.843  56.459  1.00  0.00    -0.082 SA
HETATM   11  C   UNL     1       7.767  22.611  55.293  1.00  0.00     0.017 A 
HETATM   12  C   UNL     1       7.868  23.140  54.004  1.00  0.00     0.004 A 
HETATM   13  C   UNL     1       7.873  21.228  55.538  1.00  0.00     0.020 A 
HETATM   14  C   UNL     1       7.713  24.574  54.021  1.00  0.00     0.068 A 
HETATM   15  C   UNL     1       8.090  22.232  52.936  1.00  0.00     0.014 A 
HETATM   16 CL   UNL     1       7.801  25.494  52.568  1.00  0.00    -0.082 Cl
HETATM   17  C   UNL     1       8.196  20.858  53.173  1.00  0.00     0.001 A 
HETATM   18  C   UNL     1       8.086  20.362  54.463  1.00  0.00     0.001 A 
ENDBRANCH   6   9
ENDBRANCH   2   5
BRANCH   1  19
HETATM   19  C   UNL     1       7.872  30.401  58.138  1.00  0.00     0.180 C 
BRANCH  19  20
HETATM   20  C   UNL     1       6.360  30.662  58.030  1.00  0.00     0.045 C 
BRANCH  20  21
HETATM   21  C   UNL     1       5.948  32.039  58.547  1.00  0.00     0.076 C 
BRANCH  21  22
HETATM   22  S   UNL     1       4.172  32.026  58.959  1.00  0.00    -0.173 SA
HETATM   23  C   UNL     1       4.291  32.509  60.697  1.00  0.00     0.089 C 
ENDBRANCH  21  22
ENDBRANCH  20  21
ENDBRANCH  19  20
BRANCH  19  24
HETATM   24  N   UNL     1       8.452  30.592  59.472  1.00  0.00    -0.330 N 
HETATM   25  C   UNL     1       9.304  31.619  59.754  1.00  0.00     0.314 C 
HETATM   26  N   UNL     1       9.595  31.710  61.074  1.00  0.00    -0.352 N 
HETATM   27  O   UNL     1       9.831  32.357  58.936  1.00  0.00    -0.248 OA
HETATM   28  H   UNL     1       8.877  31.492  61.748  1.00  0.00     0.160 HD
HETATM   29  H   UNL     1      10.165  32.515  61.304  1.00  0.00     0.160 HD
HETATM   30  H   UNL     1       7.832  30.363  60.235  1.00  0.00     0.165 HD
ENDBRANCH  19  24
ENDBRANCH   1  19
TORSDOF 7
ENDMDL
MODEL 3
REMARK VINA RESULT:      -8.0      2.129      3.043
REMARK  7 active torsions:
REMARK  status: ('A' for Active; 'I' for Inactive)
REMARK    1  A    between atoms: S_2  and  C_3 
REMARK    2  A    between atoms: C_3  and  C_4 
REMARK    3  A    between atoms: C_4  and  C_5 
REMARK    4  A    between atoms: C_5  and  N_6 
REMARK    5  A    between atoms: C_5  and  C_10 
REMARK       I    between atoms: N_6  and  C_7 
REMARK       I    between atoms: C_7  and  N_8 
REMARK       I    between atoms: C_10  and  N_11 
REMARK    6  A    between atoms: N_11  and  N_12 
REMARK       I    between atoms: N_12  and  C_13 
REMARK    7  A    between atoms: C_13  and  C_14 
ROOT
HETATM    1  C   UNL     1       7.171  28.749  57.373  1.00  0.00     0.259 C 
HETATM    2  N   UNL     1       7.011  28.233  56.104  1.00  0.00    -0.265 N 
HETATM    3  O   UNL     1       7.788  28.129  58.245  1.00  0.00    -0.269 OA
HETATM    4  H   UNL     1       6.531  28.702  55.337  1.00  0.00     0.190 HD
ENDROOT
BRANCH   2   5
HETATM    5  N   UNL     1       7.438  26.927  55.848  1.00  0.00    -0.263 N 
HETATM    6  C   UNL     1       6.827  26.213  54.829  1.00  0.00     0.278 C 
HETATM    7  O   UNL     1       5.991  26.773  54.116  1.00  0.00    -0.265 OA
HETATM    8  H   UNL     1       8.111  26.517  56.494  1.00  0.00     0.190 HD
BRANCH   6   9
HETATM    9  C   UNL     1       7.228  24.820  54.687  1.00  0.00     0.097 A 
HETATM   10  S   UNL     1       7.267  23.773  56.041  1.00  0.00    -0.082 SA
HETATM   11  C   UNL     1       7.735  22.415  55.104  1.00  0.00     0.017 A 
HETATM   12  C   UNL     1       7.887  22.751  53.756  1.00  0.00     0.004 A 
HETATM   13  C   UNL     1       7.955  21.104  55.571  1.00  0.00     0.020 A 
HETATM   14  C   UNL     1       7.593  24.146  53.536  1.00  0.00     0.068 A 
HETATM   15  C   UNL     1       8.281  21.722  52.862  1.00  0.00     0.014 A 
HETATM   16 CL   UNL     1       7.707  24.840  51.964  1.00  0.00    -0.082 Cl
HETATM   17  C   UNL     1       8.500  20.419  53.320  1.00  0.00     0.001 A 
HETATM   18  C   UNL     1       8.336  20.115  54.663  1.00  0.00     0.001 A 
ENDBRANCH   6   9
ENDBRANCH   2   5
BRANCH   1  19
HETATM   19  C   UNL     1       6.654  30.196  57.575  1.00  0.00     0.180 C 
BRANCH  19  20
HETATM   20  C   UNL     1       7.624  31.092  58.365  1.00  0.00     0.045 C 
BRANCH  20  21
HETATM   21  C   UNL     1       6.942  31.873  59.487  1.00  0.00     0.076 C 
BRANCH  21  22
HETATM   22  S   UNL     1       8.173  32.303  60.763  1.00  0.00    -0.173 SA
HETATM   23  C   UNL     1       8.962  30.686  60.935  1.00  0.00     0.089 C 
ENDBRANCH  21  22
ENDBRANCH  20  21
ENDBRANCH  19  20
BRANCH  19  24
HETATM   24  N   UNL     1       6.225  30.722  56.275  1.00  0.00    -0.330 N 
HETATM   25  C   UNL     1       5.078  31.446  56.126  1.00  0.00     0.314 C 
HETATM   26  N   UNL     1       4.950  31.972  54.884  1.00  0.00    -0.352 N 
HETATM   27  O   UNL     1       4.200  31.575  56.964  1.00  0.00    -0.248 OA
HETATM   28  H   UNL     1       5.776  32.289  54.401  1.00  0.00     0.160 HD
HETATM   29  H   UNL     1       4.141  32.575  54.786  1.00  0.00     0.160 HD
HETATM   30  H   UNL     1       6.978  31.035  55.681  1.00  0.00     0.165 HD
ENDBRANCH  19  24
ENDBRANCH   1  19
TORSDOF 7
ENDMDL
MODEL 4
REMARK VINA RESULT:      -7.8      3.616      9.488
REMARK  7 active torsions:
REMARK  status: ('A' for Active; 'I' for Inactive)
REMARK    1  A    between atoms: S_2  and  C_3 
REMARK    2  A    between atoms: C_3  and  C_4 
REMARK    3  A    between atoms: C_4  and  C_5 
REMARK    4  A    between atoms: C_5  and  N_6 
REMARK    5  A    between atoms: C_5  and  C_10 
REMARK       I    between atoms: N_6  and  C_7 
REMARK       I    between atoms: C_7  and  N_8 
REMARK       I    between atoms: C_10  and  N_11 
REMARK    6  A    between atoms: N_11  and  N_12 
REMARK       I    between atoms: N_12  and  C_13 
REMARK    7  A    between atoms: C_13  and  C_14 
ROOT
HETATM    1  C   UNL     1       6.232  28.066  56.936  1.00  0.00     0.259 C 
HETATM    2  N   UNL     1       7.277  28.839  57.395  1.00  0.00    -0.265 N 
HETATM    3  O   UNL     1       5.071  28.268  57.309  1.00  0.00    -0.269 OA
HETATM    4  H   UNL     1       8.251  28.736  57.112  1.00  0.00     0.190 HD
ENDROOT
BRANCH   2   5
HETATM    5  N   UNL     1       7.032  29.776  58.403  1.00  0.00    -0.263 N 
HETATM    6  C   UNL     1       8.110  30.338  59.069  1.00  0.00     0.278 C 
HETATM    7  O   UNL     1       9.255  30.071  58.698  1.00  0.00    -0.265 OA
HETATM    8  H   UNL     1       6.063  29.928  58.678  1.00  0.00     0.190 HD
BRANCH   6   9
HETATM    9  C   UNL     1       7.792  31.215  60.187  1.00  0.00     0.097 A 
HETATM   10  S   UNL     1       6.573  32.409  60.049  1.00  0.00    -0.082 SA
HETATM   11  C   UNL     1       6.753  32.924  61.676  1.00  0.00     0.017 A 
HETATM   12  C   UNL     1       7.757  32.206  62.331  1.00  0.00     0.004 A 
HETATM   13  C   UNL     1       6.017  33.933  62.327  1.00  0.00     0.020 A 
HETATM   14  C   UNL     1       8.348  31.226  61.453  1.00  0.00     0.068 A 
HETATM   15  C   UNL     1       8.022  32.534  63.687  1.00  0.00     0.014 A 
HETATM   16 CL   UNL     1       9.622  30.202  61.996  1.00  0.00    -0.082 Cl
HETATM   17  C   UNL     1       7.294  33.534  64.338  1.00  0.00     0.001 A 
HETATM   18  C   UNL     1       6.299  34.225  63.662  1.00  0.00     0.001 A 
ENDBRANCH   6   9
ENDBRANCH   2   5
BRANCH   1  19
HETATM   19  C   UNL     1       6.594  27.040  55.832  1.00  0.00     0.180 C 
BRANCH  19  20
HETATM   20  C   UNL     1       7.481  25.886  56.330  1.00  0.00     0.045 C 
BRANCH  20  21
HETATM   21  C   UNL     1       6.703  24.594  56.577  1.00  0.00     0.076 C 
BRANCH  21  22
HETATM   22  S   UNL     1       7.579  23.199  55.793  1.00  0.00    -0.173 SA
HETATM   23  C   UNL     1       8.105  24.026  54.274  1.00  0.00     0.089 C 
ENDBRANCH  21  22
ENDBRANCH  20  21
ENDBRANCH  19  20
BRANCH  19  24
HETATM   24  N   UNL     1       5.360  26.640  55.148  1.00  0.00    -0.330 N 
HETATM   25  C   UNL     1       5.278  26.553  53.790  1.00  0.00     0.314 C 
HETATM   26  N   UNL     1       4.107  26.013  53.370  1.00  0.00    -0.352 N 
HETATM   27  O   UNL     1       6.106  26.967  52.994  1.00  0.00    -0.248 OA
HETATM   28  H   UNL     1       3.685  25.279  53.918  1.00  0.00     0.160 HD
HETATM   29  H   UNL     1       4.068  25.873  52.368  1.00  0.00     0.160 HD
HETATM   30  H   UNL     1       4.825  25.933  55.630  1.00  0.00     0.165 HD
ENDBRANCH  19  24
ENDBRANCH   1  19
TORSDOF 7
ENDMDL
MODEL 5
REMARK VINA RESULT:      -7.6      2.308      2.611
REMARK  7 active torsions:
REMARK  status: ('A' for Active; 'I' for Inactive)
REMARK    1  A    between atoms: S_2  and  C_3 
REMARK    2  A    between atoms: C_3  and  C_4 
REMARK    3  A    between atoms: C_4  and  C_5 
REMARK    4  A    between atoms: C_5  and  N_6 
REMARK    5  A    between atoms: C_5  and  C_10 
REMARK       I    between atoms: N_6  and  C_7 
REMARK       I    between atoms: C_7  and  N_8 
REMARK       I    between atoms: C_10  and  N_11 
REMARK    6  A    between atoms: N_11  and  N_12 
REMARK       I    between atoms: N_12  and  C_13 
REMARK    7  A    between atoms: C_13  and  C_14 
ROOT
HETATM    1  C   UNL     1       5.252  29.068  57.099  1.00  0.00     0.259 C 
HETATM    2  N   UNL     1       4.605  27.926  56.678  1.00  0.00    -0.265 N 
HETATM    3  O   UNL     1       6.485  29.127  57.150  1.00  0.00    -0.269 OA
HETATM    4  H   UNL     1       3.595  27.821  56.595  1.00  0.00     0.190 HD
ENDROOT
BRANCH   2   5
HETATM    5  N   UNL     1       5.359  26.773  56.439  1.00  0.00    -0.263 N 
HETATM    6  C   UNL     1       5.576  26.377  55.129  1.00  0.00     0.278 C 
HETATM    7  O   UNL     1       5.182  27.095  54.207  1.00  0.00    -0.265 OA
HETATM    8  H   UNL     1       5.628  26.211  57.246  1.00  0.00     0.190 HD
BRANCH   6   9
HETATM    9  C   UNL     1       6.263  25.106  54.943  1.00  0.00     0.097 A 
HETATM   10  S   UNL     1       6.774  24.179  56.289  1.00  0.00    -0.082 SA
HETATM   11  C   UNL     1       7.384  22.909  55.309  1.00  0.00     0.017 A 
HETATM   12  C   UNL     1       7.224  23.190  53.950  1.00  0.00     0.004 A 
HETATM   13  C   UNL     1       7.981  21.714  55.754  1.00  0.00     0.020 A 
HETATM   14  C   UNL     1       6.577  24.466  53.759  1.00  0.00     0.068 A 
HETATM   15  C   UNL     1       7.693  22.226  53.019  1.00  0.00     0.014 A 
HETATM   16 CL   UNL     1       6.260  25.073  52.179  1.00  0.00    -0.082 Cl
HETATM   17  C   UNL     1       8.286  21.038  53.456  1.00  0.00     0.001 A 
HETATM   18  C   UNL     1       8.426  20.785  54.812  1.00  0.00     0.001 A 
ENDBRANCH   6   9
ENDBRANCH   2   5
BRANCH   1  19
HETATM   19  C   UNL     1       4.340  30.294  57.359  1.00  0.00     0.180 C 
BRANCH  19  20
HETATM   20  C   UNL     1       3.262  30.500  56.281  1.00  0.00     0.045 C 
BRANCH  20  21
HETATM   21  C   UNL     1       3.756  31.310  55.084  1.00  0.00     0.076 C 
BRANCH  21  22
HETATM   22  S   UNL     1       3.644  30.292  53.575  1.00  0.00    -0.173 SA
HETATM   23  C   UNL     1       4.096  31.553  52.361  1.00  0.00     0.089 C 
ENDBRANCH  21  22
ENDBRANCH  20  21
ENDBRANCH  19  20
BRANCH  19  24
HETATM   24  N   UNL     1       3.848  30.223  58.739  1.00  0.00    -0.330 N 
HETATM   25  C   UNL     1       3.336  31.309  59.385  1.00  0.00     0.314 C 
HETATM   26  N   UNL     1       2.793  30.995  60.586  1.00  0.00    -0.352 N 
HETATM   27  O   UNL     1       3.400  32.466  59.001  1.00  0.00    -0.248 OA
HETATM   28  H   UNL     1       2.314  30.114  60.689  1.00  0.00     0.160 HD
HETATM   29  H   UNL     1       2.341  31.781  61.039  1.00  0.00     0.160 HD
HETATM   30  H   UNL     1       3.383  29.359  58.973  1.00  0.00     0.165 HD
ENDBRANCH  19  24
ENDBRANCH   1  19
TORSDOF 7
ENDMDL
MODEL 6
REMARK VINA RESULT:      -7.6      1.928      2.279
REMARK  7 active torsions:
REMARK  status: ('A' for Active; 'I' for Inactive)
REMARK    1  A    between atoms: S_2  and  C_3 
REMARK    2  A    between atoms: C_3  and  C_4 
REMARK    3  A    between atoms: C_4  and  C_5 
REMARK    4  A    between atoms: C_5  and  N_6 
REMARK    5  A    between atoms: C_5  and  C_10 
REMARK       I    between atoms: N_6  and  C_7 
REMARK       I    between atoms: C_7  and  N_8 
REMARK       I    between atoms: C_10  and  N_11 
REMARK    6  A    between atoms: N_11  and  N_12 
REMARK       I    between atoms: N_12  and  C_13 
REMARK    7  A    between atoms: C_13  and  C_14 
ROOT
HETATM    1  C   UNL     1       7.601  28.999  57.799  1.00  0.00     0.259 C 
HETATM    2  N   UNL     1       6.678  28.239  57.113  1.00  0.00    -0.265 N 
HETATM    3  O   UNL     1       8.743  28.581  58.016  1.00  0.00    -0.269 OA
HETATM    4  H   UNL     1       5.728  28.533  56.886  1.00  0.00     0.190 HD
ENDROOT
BRANCH   2   5
HETATM    5  N   UNL     1       7.001  26.920  56.781  1.00  0.00    -0.263 N 
HETATM    6  C   UNL     1       7.388  26.633  55.482  1.00  0.00     0.278 C 
HETATM    7  O   UNL     1       7.527  27.557  54.676  1.00  0.00    -0.265 OA
HETATM    8  H   UNL     1       6.836  26.203  57.488  1.00  0.00     0.190 HD
BRANCH   6   9
HETATM    9  C   UNL     1       7.596  25.228  55.165  1.00  0.00     0.097 A 
HETATM   10  S   UNL     1       7.098  24.583  53.658  1.00  0.00    -0.082 SA
HETATM   11  C   UNL     1       7.709  23.019  54.013  1.00  0.00     0.017 A 
HETATM   12  C   UNL     1       8.278  22.969  55.288  1.00  0.00     0.004 A 
HETATM   13  C   UNL     1       7.674  21.890  53.171  1.00  0.00     0.020 A 
HETATM   14  C   UNL     1       8.200  24.254  55.939  1.00  0.00     0.068 A 
HETATM   15  C   UNL     1       8.819  21.729  55.718  1.00  0.00     0.014 A 
HETATM   16 CL   UNL     1       8.818  24.482  57.530  1.00  0.00    -0.082 Cl
HETATM   17  C   UNL     1       8.786  20.606  54.887  1.00  0.00     0.001 A 
HETATM   18  C   UNL     1       8.220  20.688  53.624  1.00  0.00     0.001 A 
ENDBRANCH   6   9
ENDBRANCH   2   5
BRANCH   1  19
HETATM   19  C   UNL     1       7.154  30.442  58.143  1.00  0.00     0.180 C 
BRANCH  19  20
HETATM   20  C   UNL     1       5.684  30.732  57.797  1.00  0.00     0.045 C 
BRANCH  20  21
HETATM   21  C   UNL     1       5.050  31.789  58.700  1.00  0.00     0.076 C 
BRANCH  21  22
HETATM   22  S   UNL     1       4.773  33.317  57.744  1.00  0.00    -0.173 SA
HETATM   23  C   UNL     1       3.922  34.282  59.014  1.00  0.00     0.089 C 
ENDBRANCH  21  22
ENDBRANCH  20  21
ENDBRANCH  19  20
BRANCH  19  24
HETATM   24  N   UNL     1       7.547  30.732  59.526  1.00  0.00    -0.330 N 
HETATM   25  C   UNL     1       8.439  31.716  59.837  1.00  0.00     0.314 C 
HETATM   26  N   UNL     1       8.540  31.927  61.172  1.00  0.00    -0.352 N 
HETATM   27  O   UNL     1       9.145  32.318  59.045  1.00  0.00    -0.248 OA
HETATM   28  H   UNL     1       7.714  31.839  61.744  1.00  0.00     0.160 HD
HETATM   29  H   UNL     1       9.141  32.707  61.410  1.00  0.00     0.160 HD
HETATM   30  H   UNL     1       6.803  30.635  60.201  1.00  0.00     0.165 HD
ENDBRANCH  19  24
ENDBRANCH   1  19
TORSDOF 7
ENDMDL
MODEL 7
REMARK VINA RESULT:      -7.6      2.586      3.312
REMARK  7 active torsions:
REMARK  status: ('A' for Active; 'I' for Inactive)
REMARK    1  A    between atoms: S_2  and  C_3 
REMARK    2  A    between atoms: C_3  and  C_4 
REMARK    3  A    between atoms: C_4  and  C_5 
REMARK    4  A    between atoms: C_5  and  N_6 
REMARK    5  A    between atoms: C_5  and  C_10 
REMARK       I    between atoms: N_6  and  C_7 
REMARK       I    between atoms: C_7  and  N_8 
REMARK       I    between atoms: C_10  and  N_11 
REMARK    6  A    between atoms: N_11  and  N_12 
REMARK       I    between atoms: N_12  and  C_13 
REMARK    7  A    between atoms: C_13  and  C_14 
ROOT
HETATM    1  C   UNL     1       6.206  28.595  56.612  1.00  0.00     0.259 C 
HETATM    2  N   UNL     1       5.922  27.417  57.270  1.00  0.00    -0.265 N 
HETATM    3  O   UNL     1       6.593  28.598  55.439  1.00  0.00    -0.269 OA
HETATM    4  H   UNL     1       5.581  27.349  58.228  1.00  0.00     0.190 HD
ENDROOT
BRANCH   2   5
HETATM    5  N   UNL     1       6.210  26.204  56.638  1.00  0.00    -0.263 N 
HETATM    6  C   UNL     1       7.403  25.564  56.934  1.00  0.00     0.278 C 
HETATM    7  O   UNL     1       8.135  26.027  57.811  1.00  0.00    -0.265 OA
HETATM    8  H   UNL     1       5.575  25.894  55.903  1.00  0.00     0.190 HD
BRANCH   6   9
HETATM    9  C   UNL     1       7.703  24.368  56.159  1.00  0.00     0.097 A 
HETATM   10  S   UNL     1       8.261  22.942  56.924  1.00  0.00    -0.082 SA
HETATM   11  C   UNL     1       8.312  22.055  55.456  1.00  0.00     0.017 A 
HETATM   12  C   UNL     1       7.926  22.843  54.369  1.00  0.00     0.004 A 
HETATM   13  C   UNL     1       8.686  20.706  55.300  1.00  0.00     0.020 A 
HETATM   14  C   UNL     1       7.581  24.177  54.795  1.00  0.00     0.068 A 
HETATM   15  C   UNL     1       7.929  22.238  53.085  1.00  0.00     0.014 A 
HETATM   16 CL   UNL     1       7.076  25.369  53.659  1.00  0.00    -0.082 Cl
HETATM   17  C   UNL     1       8.299  20.899  52.924  1.00  0.00     0.001 A 
HETATM   18  C   UNL     1       8.672  20.141  54.023  1.00  0.00     0.001 A 
ENDBRANCH   6   9
ENDBRANCH   2   5
BRANCH   1  19
HETATM   19  C   UNL     1       5.873  29.893  57.391  1.00  0.00     0.180 C 
BRANCH  19  20
HETATM   20  C   UNL     1       7.115  30.639  57.906  1.00  0.00     0.045 C 
BRANCH  20  21
HETATM   21  C   UNL     1       8.245  29.703  58.332  1.00  0.00     0.076 C 
BRANCH  21  22
HETATM   22  S   UNL     1       9.850  30.521  58.048  1.00  0.00    -0.173 SA
HETATM   23  C   UNL     1      10.253  29.783  56.447  1.00  0.00     0.089 C 
ENDBRANCH  21  22
ENDBRANCH  20  21
ENDBRANCH  19  20
BRANCH  19  24
HETATM   24  N   UNL     1       4.944  30.692  56.585  1.00  0.00    -0.330 N 
HETATM   25  C   UNL     1       3.751  31.134  57.075  1.00  0.00     0.314 C 
HETATM   26  N   UNL     1       3.121  31.986  56.230  1.00  0.00    -0.352 N 
HETATM   27  O   UNL     1       3.230  30.777  58.120  1.00  0.00    -0.248 OA
HETATM   28  H   UNL     1       3.674  32.626  55.682  1.00  0.00     0.160 HD
HETATM   29  H   UNL     1       2.272  32.380  56.617  1.00  0.00     0.160 HD
HETATM   30  H   UNL     1       5.390  31.347  55.960  1.00  0.00     0.165 HD
ENDBRANCH  19  24
ENDBRANCH   1  19
TORSDOF 7
ENDMDL
MODEL 8
REMARK VINA RESULT:      -7.5      3.697      9.297
REMARK  7 active torsions:
REMARK  status: ('A' for Active; 'I' for Inactive)
REMARK    1  A    between atoms: S_2  and  C_3 
REMARK    2  A    between atoms: C_3  and  C_4 
REMARK    3  A    between atoms: C_4  and  C_5 
REMARK    4  A    between atoms: C_5  and  N_6 
REMARK    5  A    between atoms: C_5  and  C_10 
REMARK       I    between atoms: N_6  and  C_7 
REMARK       I    between atoms: C_7  and  N_8 
REMARK       I    between atoms: C_10  and  N_11 
REMARK    6  A    between atoms: N_11  and  N_12 
REMARK       I    between atoms: N_12  and  C_13 
REMARK    7  A    between atoms: C_13  and  C_14 
ROOT
HETATM    1  C   UNL     1       6.545  28.049  56.986  1.00  0.00     0.259 C 
HETATM    2  N   UNL     1       7.548  28.864  57.467  1.00  0.00    -0.265 N 
HETATM    3  O   UNL     1       5.369  28.204  57.334  1.00  0.00    -0.269 OA
HETATM    4  H   UNL     1       8.531  28.801  57.205  1.00  0.00     0.190 HD
ENDROOT
BRANCH   2   5
HETATM    5  N   UNL     1       7.244  29.789  58.470  1.00  0.00    -0.263 N 
HETATM    6  C   UNL     1       8.283  30.440  59.116  1.00  0.00     0.278 C 
HETATM    7  O   UNL     1       9.440  30.259  58.732  1.00  0.00    -0.265 OA
HETATM    8  H   UNL     1       6.269  29.868  58.757  1.00  0.00     0.190 HD
BRANCH   6   9
HETATM    9  C   UNL     1       7.912  31.300  60.231  1.00  0.00     0.097 A 
HETATM   10  S   UNL     1       6.698  32.495  60.053  1.00  0.00    -0.082 SA
HETATM   11  C   UNL     1       6.802  32.987  61.694  1.00  0.00     0.017 A 
HETATM   12  C   UNL     1       7.776  32.262  62.384  1.00  0.00     0.004 A 
HETATM   13  C   UNL     1       6.035  33.986  62.323  1.00  0.00     0.020 A 
HETATM   14  C   UNL     1       8.408  31.294  61.521  1.00  0.00     0.068 A 
HETATM   15  C   UNL     1       7.976  32.570  63.756  1.00  0.00     0.014 A 
HETATM   16 CL   UNL     1       9.657  30.264  62.108  1.00  0.00    -0.082 Cl
HETATM   17  C   UNL     1       7.217  33.561  64.386  1.00  0.00     0.001 A 
HETATM   18  C   UNL     1       6.254  34.260  63.675  1.00  0.00     0.001 A 
ENDBRANCH   6   9
ENDBRANCH   2   5
BRANCH   1  19
HETATM   19  C   UNL     1       6.972  27.041  55.890  1.00  0.00     0.180 C 
BRANCH  19  20
HETATM   20  C   UNL     1       7.521  27.709  54.617  1.00  0.00     0.045 C 
BRANCH  20  21
HETATM   21  C   UNL     1       6.822  27.238  53.342  1.00  0.00     0.076 C 
BRANCH  21  22
HETATM   22  S   UNL     1       5.122  26.711  53.741  1.00  0.00    -0.173 SA
HETATM   23  C   UNL     1       5.140  25.096  52.930  1.00  0.00     0.089 C 
ENDBRANCH  21  22
ENDBRANCH  20  21
ENDBRANCH  19  20
BRANCH  19  24
HETATM   24  N   UNL     1       7.845  26.033  56.501  1.00  0.00    -0.330 N 
HETATM   25  C   UNL     1       7.567  24.699  56.442  1.00  0.00     0.314 C 
HETATM   26  N   UNL     1       8.576  23.933  56.924  1.00  0.00    -0.352 N 
HETATM   27  O   UNL     1       6.515  24.203  56.073  1.00  0.00    -0.248 OA
HETATM   28  H   UNL     1       9.528  24.225  56.768  1.00  0.00     0.160 HD
HETATM   29  H   UNL     1       8.412  22.939  56.814  1.00  0.00     0.160 HD
HETATM   30  H   UNL     1       8.830  26.242  56.442  1.00  0.00     0.165 HD
ENDBRANCH  19  24
ENDBRANCH   1  19
TORSDOF 7
ENDMDL
MODEL 9
REMARK VINA RESULT:      -7.5      2.652      4.019
REMARK  7 active torsions:
REMARK  status: ('A' for Active; 'I' for Inactive)
REMARK    1  A    between atoms: S_2  and  C_3 
REMARK    2  A    between atoms: C_3  and  C_4 
REMARK    3  A    between atoms: C_4  and  C_5 
REMARK    4  A    between atoms: C_5  and  N_6 
REMARK    5  A    between atoms: C_5  and  C_10 
REMARK       I    between atoms: N_6  and  C_7 
REMARK       I    between atoms: C_7  and  N_8 
REMARK       I    between atoms: C_10  and  N_11 
REMARK    6  A    between atoms: N_11  and  N_12 
REMARK       I    between atoms: N_12  and  C_13 
REMARK    7  A    between atoms: C_13  and  C_14 
ROOT
HETATM    1  C   UNL     1       4.319  28.595  54.583  1.00  0.00     0.259 C 
HETATM    2  N   UNL     1       5.113  28.057  55.573  1.00  0.00    -0.265 N 
HETATM    3  O   UNL     1       3.871  27.895  53.668  1.00  0.00    -0.269 OA
HETATM    4  H   UNL     1       5.496  28.575  56.364  1.00  0.00     0.190 HD
ENDROOT
BRANCH   2   5
HETATM    5  N   UNL     1       5.529  26.728  55.459  1.00  0.00    -0.263 N 
HETATM    6  C   UNL     1       6.843  26.467  55.107  1.00  0.00     0.278 C 
HETATM    7  O   UNL     1       7.636  27.405  54.995  1.00  0.00    -0.265 OA
HETATM    8  H   UNL     1       4.815  26.004  55.536  1.00  0.00     0.190 HD
BRANCH   6   9
HETATM    9  C   UNL     1       7.188  25.069  54.886  1.00  0.00     0.097 A 
HETATM   10  S   UNL     1       7.265  23.966  56.193  1.00  0.00    -0.082 SA
HETATM   11  C   UNL     1       7.634  22.633  55.176  1.00  0.00     0.017 A 
HETATM   12  C   UNL     1       7.722  23.021  53.837  1.00  0.00     0.004 A 
HETATM   13  C   UNL     1       7.833  21.298  55.576  1.00  0.00     0.020 A 
HETATM   14  C   UNL     1       7.465  24.433  53.690  1.00  0.00     0.068 A 
HETATM   15  C   UNL     1       8.031  22.018  52.880  1.00  0.00     0.014 A 
HETATM   16 CL   UNL     1       7.517  25.189  52.143  1.00  0.00    -0.082 Cl
HETATM   17  C   UNL     1       8.230  20.691  53.273  1.00  0.00     0.001 A 
HETATM   18  C   UNL     1       8.130  20.336  54.609  1.00  0.00     0.001 A 
ENDBRANCH   6   9
ENDBRANCH   2   5
BRANCH   1  19
HETATM   19  C   UNL     1       3.919  30.079  54.779  1.00  0.00     0.180 C 
BRANCH  19  20
HETATM   20  C   UNL     1       4.009  30.554  56.240  1.00  0.00     0.045 C 
BRANCH  20  21
HETATM   21  C   UNL     1       5.085  31.616  56.460  1.00  0.00     0.076 C 
BRANCH  21  22
HETATM   22  S   UNL     1       5.792  31.425  58.131  1.00  0.00    -0.173 SA
HETATM   23  C   UNL     1       7.061  30.196  57.752  1.00  0.00     0.089 C 
ENDBRANCH  21  22
ENDBRANCH  20  21
ENDBRANCH  19  20
BRANCH  19  24
HETATM   24  N   UNL     1       4.654  30.890  53.804  1.00  0.00    -0.330 N 
HETATM   25  C   UNL     1       4.030  31.534  52.775  1.00  0.00     0.314 C 
HETATM   26  N   UNL     1       4.862  32.354  52.090  1.00  0.00    -0.352 N 
HETATM   27  O   UNL     1       2.872  31.368  52.426  1.00  0.00    -0.248 OA
HETATM   28  H   UNL     1       5.580  32.852  52.594  1.00  0.00     0.160 HD
HETATM   29  H   UNL     1       4.392  32.895  51.374  1.00  0.00     0.160 HD
HETATM   30  H   UNL     1       5.430  31.407  54.189  1.00  0.00     0.165 HD
ENDBRANCH  19  24
ENDBRANCH   1  19
TORSDOF 7
ENDMDL
MODEL 10
REMARK VINA RESULT:      -7.3      2.514      3.182
REMARK  7 active torsions:
REMARK  status: ('A' for Active; 'I' for Inactive)
REMARK    1  A    between atoms: S_2  and  C_3 
REMARK    2  A    between atoms: C_3  and  C_4 
REMARK    3  A    between atoms: C_4  and  C_5 
REMARK    4  A    between atoms: C_5  and  N_6 
REMARK    5  A    between atoms: C_5  and  C_10 
REMARK       I    between atoms: N_6  and  C_7 
REMARK       I    between atoms: C_7  and  N_8 
REMARK       I    between atoms: C_10  and  N_11 
REMARK    6  A    between atoms: N_11  and  N_12 
REMARK       I    between atoms: N_12  and  C_13 
REMARK    7  A    between atoms: C_13  and  C_14 
ROOT
HETATM    1  C   UNL     1       4.442  28.593  54.870  1.00  0.00     0.259 C 
HETATM    2  N   UNL     1       5.352  27.973  55.699  1.00  0.00    -0.265 N 
HETATM    3  O   UNL     1       3.845  27.967  53.987  1.00  0.00    -0.269 OA
HETATM    4  H   UNL     1       5.861  28.428  56.456  1.00  0.00     0.190 HD
ENDROOT
BRANCH   2   5
HETATM    5  N   UNL     1       5.704  26.645  55.441  1.00  0.00    -0.263 N 
HETATM    6  C   UNL     1       7.023  26.258  55.613  1.00  0.00     0.278 C 
HETATM    7  O   UNL     1       7.833  27.064  56.077  1.00  0.00    -0.265 OA
HETATM    8  H   UNL     1       4.991  26.040  55.033  1.00  0.00     0.190 HD
BRANCH   6   9
HETATM    9  C   UNL     1       7.354  24.896  55.216  1.00  0.00     0.097 A 
HETATM   10  S   UNL     1       7.591  23.671  56.389  1.00  0.00    -0.082 SA
HETATM   11  C   UNL     1       7.855  22.454  55.208  1.00  0.00     0.017 A 
HETATM   12  C   UNL     1       7.787  22.974  53.914  1.00  0.00     0.004 A 
HETATM   13  C   UNL     1       8.113  21.090  55.448  1.00  0.00     0.020 A 
HETATM   14  C   UNL     1       7.500  24.387  53.939  1.00  0.00     0.068 A 
HETATM   15  C   UNL     1       7.994  22.076  52.833  1.00  0.00     0.014 A 
HETATM   16 CL   UNL     1       7.367  25.292  52.480  1.00  0.00    -0.082 Cl
HETATM   17  C   UNL     1       8.250  20.722  53.065  1.00  0.00     0.001 A 
HETATM   18  C   UNL     1       8.306  20.234  54.362  1.00  0.00     0.001 A 
ENDBRANCH   6   9
ENDBRANCH   2   5
BRANCH   1  19
HETATM   19  C   UNL     1       4.122  30.070  55.216  1.00  0.00     0.180 C 
BRANCH  19  20
HETATM   20  C   UNL     1       3.375  30.817  54.097  1.00  0.00     0.045 C 
BRANCH  20  21
HETATM   21  C   UNL     1       3.971  32.190  53.790  1.00  0.00     0.076 C 
BRANCH  21  22
HETATM   22  S   UNL     1       2.629  33.419  53.661  1.00  0.00    -0.173 SA
HETATM   23  C   UNL     1       1.548  32.779  54.961  1.00  0.00     0.089 C 
ENDBRANCH  21  22
ENDBRANCH  20  21
ENDBRANCH  19  20
BRANCH  19  24
HETATM   24  N   UNL     1       3.486  30.110  56.537  1.00  0.00    -0.330 N 
HETATM   25  C   UNL     1       4.191  30.370  57.675  1.00  0.00     0.314 C 
HETATM   26  N   UNL     1       3.394  30.521  58.761  1.00  0.00    -0.352 N 
HETATM   27  O   UNL     1       5.408  30.401  57.772  1.00  0.00    -0.248 OA
HETATM   28  H   UNL     1       2.496  30.965  58.648  1.00  0.00     0.160 HD
HETATM   29  H   UNL     1       3.901  30.790  59.595  1.00  0.00     0.160 HD
HETATM   30  H   UNL     1       2.556  30.501  56.542  1.00  0.00     0.165 HD
ENDBRANCH  19  24
ENDBRANCH   1  19
TORSDOF 7
ENDMDL
