MODEL 1
REMARK VINA RESULT:      -7.8      0.000      0.000
REMARK  10 active torsions:
REMARK  status: ('A' for Active; 'I' for Inactive)
REMARK    1  A    between atoms: C_2  and  C_3 
REMARK    2  A    between atoms: C_3  and  C_4 
REMARK       I    between atoms: C_4  and  N_5 
REMARK    3  A    between atoms: N_5  and  C_6 
REMARK    4  A    between atoms: C_6  and  N_7 
REMARK    5  A    between atoms: C_6  and  C_21 
REMARK    6  A    between atoms: N_7  and  C_8 
REMARK    7  A    between atoms: C_8  and  N_9 
REMARK    8  A    between atoms: N_9  and  N_10 
REMARK       I    between atoms: N_10  and  C_11 
REMARK    9  A    between atoms: C_11  and  C_12 
REMARK   10  A    between atoms: C_13  and  O_14 
ROOT
HETATM    1  C   UNL     1       7.727  28.719  57.628  1.00  0.00     0.188 C 
HETATM    2  S   UNL     1       9.059  29.455  56.929  1.00  0.00    -0.039 SA
ENDROOT
BRANCH   1   3
HETATM    3  N   UNL     1       6.756  29.518  58.133  1.00  0.00    -0.341 N 
HETATM    4  H   UNL     1       5.812  29.168  57.984  1.00  0.00     0.164 HD
BRANCH   3   5
HETATM    5  C   UNL     1       6.800  30.902  58.593  1.00  0.00     0.241 C 
BRANCH   5   6
HETATM    6  N   UNL     1       7.555  30.925  59.843  1.00  0.00    -0.336 N 
HETATM    7  C   UNL     1       8.623  31.749  60.073  1.00  0.00     0.219 C 
HETATM    8  O   UNL     1       9.030  32.550  59.241  1.00  0.00    -0.274 OA
HETATM    9  H   UNL     1       7.190  30.385  60.617  1.00  0.00     0.164 HD
BRANCH   7  10
HETATM   10  C   UNL     1       9.247  31.618  61.447  1.00  0.00     0.102 C 
BRANCH  10  11
HETATM   11  C   UNL     1       8.220  31.362  62.547  1.00  0.00     0.005 C 
HETATM   12  C   UNL     1       7.972  32.570  63.439  1.00  0.00     0.005 C 
ENDBRANCH  10  11
ENDBRANCH   7  10
ENDBRANCH   5   6
BRANCH   5  13
HETATM   13  C   UNL     1       5.403  31.670  58.560  1.00  0.00     0.226 C 
HETATM   14 CL   UNL     1       5.396  32.948  57.288  1.00  0.00    -0.080 Cl
HETATM   15 CL   UNL     1       4.090  30.499  58.114  1.00  0.00    -0.080 Cl
HETATM   16 CL   UNL     1       4.925  32.399  60.125  1.00  0.00    -0.080 Cl
ENDBRANCH   5  13
ENDBRANCH   3   5
ENDBRANCH   1   3
BRANCH   1  17
HETATM   17  N   UNL     1       7.560  27.365  57.734  1.00  0.00    -0.274 N 
HETATM   18  H   UNL     1       6.919  26.937  58.397  1.00  0.00     0.189 HD
BRANCH  17  19
HETATM   19  N   UNL     1       7.871  26.526  56.654  1.00  0.00    -0.264 N 
HETATM   20  C   UNL     1       6.971  25.535  56.320  1.00  0.00     0.272 C 
HETATM   21  O   UNL     1       5.950  25.320  56.974  1.00  0.00    -0.266 OA
HETATM   22  H   UNL     1       8.774  26.667  56.208  1.00  0.00     0.190 HD
BRANCH  20  23
HETATM   23  C   UNL     1       7.291  24.693  55.138  1.00  0.00     0.066 A 
HETATM   24  C   UNL     1       7.572  25.308  53.908  1.00  0.00     0.081 A 
HETATM   25  C   UNL     1       7.866  24.541  52.782  1.00  0.00     0.037 A 
HETATM   26  C   UNL     1       7.905  23.150  52.878  1.00  0.00     0.003 A 
HETATM   27  C   UNL     1       7.656  22.528  54.100  1.00  0.00     0.001 A 
HETATM   28  C   UNL     1       7.352  23.294  55.230  1.00  0.00     0.020 A 
BRANCH  24  29
HETATM   29  O   UNL     1       7.578  26.666  53.731  1.00  0.00    -0.360 OA
HETATM   30  H   UNL     1       6.675  27.002  53.923  1.00  0.00     0.217 HD
ENDBRANCH  24  29
ENDBRANCH  20  23
ENDBRANCH  17  19
ENDBRANCH   1  17
TORSDOF 10
ENDMDL
MODEL 2
REMARK VINA RESULT:      -7.8      5.916      8.764
REMARK  10 active torsions:
REMARK  status: ('A' for Active; 'I' for Inactive)
REMARK    1  A    between atoms: C_2  and  C_3 
REMARK    2  A    between atoms: C_3  and  C_4 
REMARK       I    between atoms: C_4  and  N_5 
REMARK    3  A    between atoms: N_5  and  C_6 
REMARK    4  A    between atoms: C_6  and  N_7 
REMARK    5  A    between atoms: C_6  and  C_21 
REMARK    6  A    between atoms: N_7  and  C_8 
REMARK    7  A    between atoms: C_8  and  N_9 
REMARK    8  A    between atoms: N_9  and  N_10 
REMARK       I    between atoms: N_10  and  C_11 
REMARK    9  A    between atoms: C_11  and  C_12 
REMARK   10  A    between atoms: C_13  and  O_14 
ROOT
HETATM    1  C   UNL     1       5.422  25.930  53.135  1.00  0.00     0.188 C 
HETATM    2  S   UNL     1       4.734  27.370  53.644  1.00  0.00    -0.039 SA
ENDROOT
BRANCH   1   3
HETATM    3  N   UNL     1       5.733  25.010  54.080  1.00  0.00    -0.341 N 
HETATM    4  H   UNL     1       4.923  24.571  54.514  1.00  0.00     0.164 HD
BRANCH   3   5
HETATM    5  C   UNL     1       6.986  24.743  54.779  1.00  0.00     0.241 C 
BRANCH   5   6
HETATM    6  N   UNL     1       7.288  23.324  54.610  1.00  0.00    -0.336 N 
HETATM    7  C   UNL     1       7.696  22.768  53.428  1.00  0.00     0.219 C 
HETATM    8  O   UNL     1       7.851  23.426  52.407  1.00  0.00    -0.274 OA
HETATM    9  H   UNL     1       7.309  22.751  55.443  1.00  0.00     0.164 HD
BRANCH   7  10
HETATM   10  C   UNL     1       7.972  21.280  53.484  1.00  0.00     0.102 C 
BRANCH  10  11
HETATM   11  C   UNL     1       7.755  20.684  54.873  1.00  0.00     0.005 C 
HETATM   12  C   UNL     1       9.049  20.303  55.578  1.00  0.00     0.005 C 
ENDBRANCH  10  11
ENDBRANCH   7  10
ENDBRANCH   5   6
BRANCH   5  13
HETATM   13  C   UNL     1       7.081  25.348  56.252  1.00  0.00     0.226 C 
HETATM   14 CL   UNL     1       7.504  27.100  56.207  1.00  0.00    -0.080 Cl
HETATM   15 CL   UNL     1       5.454  25.235  57.048  1.00  0.00    -0.080 Cl
HETATM   16 CL   UNL     1       8.233  24.494  57.326  1.00  0.00    -0.080 Cl
ENDBRANCH   5  13
ENDBRANCH   3   5
ENDBRANCH   1   3
BRANCH   1  17
HETATM   17  N   UNL     1       5.702  25.626  51.831  1.00  0.00    -0.274 N 
HETATM   18  H   UNL     1       6.491  25.046  51.555  1.00  0.00     0.189 HD
BRANCH  17  19
HETATM   19  N   UNL     1       4.692  25.674  50.859  1.00  0.00    -0.264 N 
HETATM   20  C   UNL     1       4.704  26.719  49.960  1.00  0.00     0.272 C 
HETATM   21  O   UNL     1       5.520  27.639  50.024  1.00  0.00    -0.266 OA
HETATM   22  H   UNL     1       3.974  24.955  50.907  1.00  0.00     0.190 HD
BRANCH  20  23
HETATM   23  C   UNL     1       3.659  26.722  48.903  1.00  0.00     0.066 A 
HETATM   24  C   UNL     1       2.709  27.756  48.874  1.00  0.00     0.081 A 
HETATM   25  C   UNL     1       1.714  27.777  47.899  1.00  0.00     0.037 A 
HETATM   26  C   UNL     1       1.670  26.777  46.927  1.00  0.00     0.003 A 
HETATM   27  C   UNL     1       2.624  25.761  46.927  1.00  0.00     0.001 A 
HETATM   28  C   UNL     1       3.619  25.732  47.910  1.00  0.00     0.020 A 
BRANCH  24  29
HETATM   29  O   UNL     1       2.694  28.786  49.775  1.00  0.00    -0.360 OA
HETATM   30  H   UNL     1       3.304  28.559  50.510  1.00  0.00     0.217 HD
ENDBRANCH  24  29
ENDBRANCH  20  23
ENDBRANCH  17  19
ENDBRANCH   1  17
TORSDOF 10
ENDMDL
MODEL 3
REMARK VINA RESULT:      -7.7      1.005      1.513
REMARK  10 active torsions:
REMARK  status: ('A' for Active; 'I' for Inactive)
REMARK    1  A    between atoms: C_2  and  C_3 
REMARK    2  A    between atoms: C_3  and  C_4 
REMARK       I    between atoms: C_4  and  N_5 
REMARK    3  A    between atoms: N_5  and  C_6 
REMARK    4  A    between atoms: C_6  and  N_7 
REMARK    5  A    between atoms: C_6  and  C_21 
REMARK    6  A    between atoms: N_7  and  C_8 
REMARK    7  A    between atoms: C_8  and  N_9 
REMARK    8  A    between atoms: N_9  and  N_10 
REMARK       I    between atoms: N_10  and  C_11 
REMARK    9  A    between atoms: C_11  and  C_12 
REMARK   10  A    between atoms: C_13  and  O_14 
ROOT
HETATM    1  C   UNL     1       7.465  28.764  57.148  1.00  0.00     0.188 C 
HETATM    2  S   UNL     1       9.116  28.999  56.993  1.00  0.00    -0.039 SA
ENDROOT
BRANCH   1   3
HETATM    3  N   UNL     1       6.824  29.423  58.143  1.00  0.00    -0.341 N 
HETATM    4  H   UNL     1       6.067  28.894  58.571  1.00  0.00     0.164 HD
BRANCH   3   5
HETATM    5  C   UNL     1       6.832  30.834  58.515  1.00  0.00     0.241 C 
BRANCH   5   6
HETATM    6  N   UNL     1       7.577  30.953  59.766  1.00  0.00    -0.336 N 
HETATM    7  C   UNL     1       8.722  31.691  59.904  1.00  0.00     0.219 C 
HETATM    8  O   UNL     1       9.213  32.327  58.979  1.00  0.00    -0.274 OA
HETATM    9  H   UNL     1       7.155  30.563  60.598  1.00  0.00     0.164 HD
BRANCH   7  10
HETATM   10  C   UNL     1       9.320  31.688  61.295  1.00  0.00     0.102 C 
BRANCH  10  11
HETATM   11  C   UNL     1       8.298  31.372  62.384  1.00  0.00     0.005 C 
HETATM   12  C   UNL     1       7.987  32.557  63.287  1.00  0.00     0.005 C 
ENDBRANCH  10  11
ENDBRANCH   7  10
ENDBRANCH   5   6
BRANCH   5  13
HETATM   13  C   UNL     1       5.418  31.566  58.427  1.00  0.00     0.226 C 
HETATM   14 CL   UNL     1       5.361  32.698  57.025  1.00  0.00    -0.080 Cl
HETATM   15 CL   UNL     1       4.124  30.327  58.135  1.00  0.00    -0.080 Cl
HETATM   16 CL   UNL     1       4.950  32.450  59.913  1.00  0.00    -0.080 Cl
ENDBRANCH   5  13
ENDBRANCH   3   5
ENDBRANCH   1   3
BRANCH   1  17
HETATM   17  N   UNL     1       6.723  27.942  56.345  1.00  0.00    -0.274 N 
HETATM   18  H   UNL     1       5.860  28.239  55.895  1.00  0.00     0.189 HD
BRANCH  17  19
HETATM   19  N   UNL     1       7.319  26.843  55.711  1.00  0.00    -0.264 N 
HETATM   20  C   UNL     1       6.891  25.579  56.060  1.00  0.00     0.272 C 
HETATM   21  O   UNL     1       6.063  25.383  56.950  1.00  0.00    -0.266 OA
HETATM   22  H   UNL     1       8.076  27.042  55.061  1.00  0.00     0.190 HD
BRANCH  20  23
HETATM   23  C   UNL     1       7.495  24.429  55.337  1.00  0.00     0.066 A 
HETATM   24  C   UNL     1       8.193  23.449  56.059  1.00  0.00     0.081 A 
HETATM   25  C   UNL     1       8.777  22.366  55.404  1.00  0.00     0.037 A 
HETATM   26  C   UNL     1       8.649  22.238  54.021  1.00  0.00     0.003 A 
HETATM   27  C   UNL     1       7.934  23.189  53.295  1.00  0.00     0.001 A 
HETATM   28  C   UNL     1       7.355  24.282  53.949  1.00  0.00     0.020 A 
BRANCH  24  29
HETATM   29  O   UNL     1       8.347  23.486  57.419  1.00  0.00    -0.360 OA
HETATM   30  H   UNL     1       7.917  22.688  57.797  1.00  0.00     0.217 HD
ENDBRANCH  24  29
ENDBRANCH  20  23
ENDBRANCH  17  19
ENDBRANCH   1  17
TORSDOF 10
ENDMDL
MODEL 4
REMARK VINA RESULT:      -7.6      5.741      8.372
REMARK  10 active torsions:
REMARK  status: ('A' for Active; 'I' for Inactive)
REMARK    1  A    between atoms: C_2  and  C_3 
REMARK    2  A    between atoms: C_3  and  C_4 
REMARK       I    between atoms: C_4  and  N_5 
REMARK    3  A    between atoms: N_5  and  C_6 
REMARK    4  A    between atoms: C_6  and  N_7 
REMARK    5  A    between atoms: C_6  and  C_21 
REMARK    6  A    between atoms: N_7  and  C_8 
REMARK    7  A    between atoms: C_8  and  N_9 
REMARK    8  A    between atoms: N_9  and  N_10 
REMARK       I    between atoms: N_10  and  C_11 
REMARK    9  A    between atoms: C_11  and  C_12 
REMARK   10  A    between atoms: C_13  and  O_14 
ROOT
HETATM    1  C   UNL     1       4.578  29.009  51.950  1.00  0.00     0.188 C 
HETATM    2  S   UNL     1       2.921  29.070  52.180  1.00  0.00    -0.039 SA
ENDROOT
BRANCH   1   3
HETATM    3  N   UNL     1       5.039  28.393  50.834  1.00  0.00    -0.341 N 
HETATM    4  H   UNL     1       5.491  29.020  50.171  1.00  0.00     0.164 HD
BRANCH   3   5
HETATM    5  C   UNL     1       4.759  27.070  50.288  1.00  0.00     0.241 C 
BRANCH   5   6
HETATM    6  N   UNL     1       5.926  26.232  50.548  1.00  0.00    -0.336 N 
HETATM    7  C   UNL     1       6.190  25.645  51.756  1.00  0.00     0.219 C 
HETATM    8  O   UNL     1       5.451  25.770  52.726  1.00  0.00    -0.274 OA
HETATM    9  H   UNL     1       6.504  25.980  49.757  1.00  0.00     0.164 HD
BRANCH   7  10
HETATM   10  C   UNL     1       7.448  24.803  51.798  1.00  0.00     0.102 C 
BRANCH  10  11
HETATM   11  C   UNL     1       7.952  24.553  53.216  1.00  0.00     0.005 C 
HETATM   12  C   UNL     1       7.638  23.157  53.735  1.00  0.00     0.005 C 
ENDBRANCH  10  11
ENDBRANCH   7  10
ENDBRANCH   5   6
BRANCH   5  13
HETATM   13  C   UNL     1       4.158  27.060  48.810  1.00  0.00     0.226 C 
HETATM   14 CL   UNL     1       5.457  27.298  47.582  1.00  0.00    -0.080 Cl
HETATM   15 CL   UNL     1       3.430  25.433  48.474  1.00  0.00    -0.080 Cl
HETATM   16 CL   UNL     1       2.862  28.265  48.534  1.00  0.00    -0.080 Cl
ENDBRANCH   5  13
ENDBRANCH   3   5
ENDBRANCH   1   3
BRANCH   1  17
HETATM   17  N   UNL     1       5.499  29.529  52.819  1.00  0.00    -0.274 N 
HETATM   18  H   UNL     1       5.465  30.489  53.151  1.00  0.00     0.189 HD
BRANCH  17  19
HETATM   19  N   UNL     1       6.234  28.683  53.662  1.00  0.00    -0.264 N 
HETATM   20  C   UNL     1       5.719  28.400  54.909  1.00  0.00     0.272 C 
HETATM   21  O   UNL     1       4.682  28.915  55.329  1.00  0.00    -0.266 OA
HETATM   22  H   UNL     1       7.137  28.366  53.319  1.00  0.00     0.190 HD
BRANCH  20  23
HETATM   23  C   UNL     1       6.484  27.457  55.766  1.00  0.00     0.066 A 
HETATM   24  C   UNL     1       5.975  26.170  56.002  1.00  0.00     0.081 A 
HETATM   25  C   UNL     1       6.668  25.270  56.809  1.00  0.00     0.037 A 
HETATM   26  C   UNL     1       7.890  25.638  57.372  1.00  0.00     0.003 A 
HETATM   27  C   UNL     1       8.421  26.903  57.123  1.00  0.00     0.001 A 
HETATM   28  C   UNL     1       7.723  27.812  56.321  1.00  0.00     0.020 A 
BRANCH  24  29
HETATM   29  O   UNL     1       4.796  25.720  55.471  1.00  0.00    -0.360 OA
HETATM   30  H   UNL     1       4.132  26.439  55.549  1.00  0.00     0.217 HD
ENDBRANCH  24  29
ENDBRANCH  20  23
ENDBRANCH  17  19
ENDBRANCH   1  17
TORSDOF 10
ENDMDL
MODEL 5
REMARK VINA RESULT:      -7.6      5.207      8.023
REMARK  10 active torsions:
REMARK  status: ('A' for Active; 'I' for Inactive)
REMARK    1  A    between atoms: C_2  and  C_3 
REMARK    2  A    between atoms: C_3  and  C_4 
REMARK       I    between atoms: C_4  and  N_5 
REMARK    3  A    between atoms: N_5  and  C_6 
REMARK    4  A    between atoms: C_6  and  N_7 
REMARK    5  A    between atoms: C_6  and  C_21 
REMARK    6  A    between atoms: N_7  and  C_8 
REMARK    7  A    between atoms: C_8  and  N_9 
REMARK    8  A    between atoms: N_9  and  N_10 
REMARK       I    between atoms: N_10  and  C_11 
REMARK    9  A    between atoms: C_11  and  C_12 
REMARK   10  A    between atoms: C_13  and  O_14 
ROOT
HETATM    1  C   UNL     1       5.009  27.149  54.457  1.00  0.00     0.188 C 
HETATM    2  S   UNL     1       5.276  28.654  55.141  1.00  0.00    -0.039 SA
ENDROOT
BRANCH   1   3
HETATM    3  N   UNL     1       5.840  26.138  54.812  1.00  0.00    -0.341 N 
HETATM    4  H   UNL     1       5.361  25.318  55.177  1.00  0.00     0.164 HD
BRANCH   3   5
HETATM    5  C   UNL     1       7.283  26.118  55.028  1.00  0.00     0.241 C 
BRANCH   5   6
HETATM    6  N   UNL     1       7.852  25.149  54.095  1.00  0.00    -0.336 N 
HETATM    7  C   UNL     1       7.471  23.836  54.032  1.00  0.00     0.219 C 
HETATM    8  O   UNL     1       6.603  23.365  54.758  1.00  0.00    -0.274 OA
HETATM    9  H   UNL     1       8.476  25.502  53.381  1.00  0.00     0.164 HD
BRANCH   7  10
HETATM   10  C   UNL     1       8.181  23.014  52.978  1.00  0.00     0.102 C 
BRANCH  10  11
HETATM   11  C   UNL     1       8.770  21.717  53.528  1.00  0.00     0.005 C 
HETATM   12  C   UNL     1       8.192  20.466  52.882  1.00  0.00     0.005 C 
ENDBRANCH  10  11
ENDBRANCH   7  10
ENDBRANCH   5   6
BRANCH   5  13
HETATM   13  C   UNL     1       7.737  26.028  56.554  1.00  0.00     0.226 C 
HETATM   14 CL   UNL     1       6.363  25.531  57.610  1.00  0.00    -0.080 Cl
HETATM   15 CL   UNL     1       9.003  24.739  56.723  1.00  0.00    -0.080 Cl
HETATM   16 CL   UNL     1       8.456  27.536  57.199  1.00  0.00    -0.080 Cl
ENDBRANCH   5  13
ENDBRANCH   3   5
ENDBRANCH   1   3
BRANCH   1  17
HETATM   17  N   UNL     1       4.018  26.875  53.555  1.00  0.00    -0.274 N 
HETATM   18  H   UNL     1       3.072  26.622  53.833  1.00  0.00     0.189 HD
BRANCH  17  19
HETATM   19  N   UNL     1       4.088  27.378  52.249  1.00  0.00    -0.264 N 
HETATM   20  C   UNL     1       4.992  26.805  51.379  1.00  0.00     0.272 C 
HETATM   21  O   UNL     1       5.779  25.925  51.727  1.00  0.00    -0.266 OA
HETATM   22  H   UNL     1       3.498  28.178  52.032  1.00  0.00     0.190 HD
BRANCH  20  23
HETATM   23  C   UNL     1       5.013  27.314  49.982  1.00  0.00     0.066 A 
HETATM   24  C   UNL     1       5.447  28.625  49.732  1.00  0.00     0.081 A 
HETATM   25  C   UNL     1       5.468  29.129  48.433  1.00  0.00     0.037 A 
HETATM   26  C   UNL     1       5.075  28.321  47.366  1.00  0.00     0.003 A 
HETATM   27  C   UNL     1       4.669  27.008  47.598  1.00  0.00     0.001 A 
HETATM   28  C   UNL     1       4.638  26.502  48.901  1.00  0.00     0.020 A 
BRANCH  24  29
HETATM   29  O   UNL     1       5.870  29.477  50.717  1.00  0.00    -0.360 OA
HETATM   30  H   UNL     1       6.365  28.951  51.383  1.00  0.00     0.217 HD
ENDBRANCH  24  29
ENDBRANCH  20  23
ENDBRANCH  17  19
ENDBRANCH   1  17
TORSDOF 10
ENDMDL
MODEL 6
REMARK VINA RESULT:      -7.5      2.807      3.336
REMARK  10 active torsions:
REMARK  status: ('A' for Active; 'I' for Inactive)
REMARK    1  A    between atoms: C_2  and  C_3 
REMARK    2  A    between atoms: C_3  and  C_4 
REMARK       I    between atoms: C_4  and  N_5 
REMARK    3  A    between atoms: N_5  and  C_6 
REMARK    4  A    between atoms: C_6  and  N_7 
REMARK    5  A    between atoms: C_6  and  C_21 
REMARK    6  A    between atoms: N_7  and  C_8 
REMARK    7  A    between atoms: C_8  and  N_9 
REMARK    8  A    between atoms: N_9  and  N_10 
REMARK       I    between atoms: N_10  and  C_11 
REMARK    9  A    between atoms: C_11  and  C_12 
REMARK   10  A    between atoms: C_13  and  O_14 
ROOT
HETATM    1  C   UNL     1       4.053  29.302  56.582  1.00  0.00     0.188 C 
HETATM    2  S   UNL     1       3.416  30.461  55.556  1.00  0.00    -0.039 SA
ENDROOT
BRANCH   1   3
HETATM    3  N   UNL     1       4.797  29.728  57.632  1.00  0.00    -0.341 N 
HETATM    4  H   UNL     1       4.466  29.397  58.536  1.00  0.00     0.164 HD
BRANCH   3   5
HETATM    5  C   UNL     1       5.798  30.786  57.727  1.00  0.00     0.241 C 
BRANCH   5   6
HETATM    6  N   UNL     1       7.096  30.145  57.920  1.00  0.00    -0.336 N 
HETATM    7  C   UNL     1       7.718  29.381  56.970  1.00  0.00     0.219 C 
HETATM    8  O   UNL     1       7.232  29.179  55.864  1.00  0.00    -0.274 OA
HETATM    9  H   UNL     1       7.611  30.379  58.759  1.00  0.00     0.164 HD
BRANCH   7  10
HETATM   10  C   UNL     1       9.067  28.827  57.377  1.00  0.00     0.102 C 
BRANCH  10  11
HETATM   11  C   UNL     1      10.236  29.613  56.790  1.00  0.00     0.005 C 
HETATM   12  C   UNL     1      10.642  30.815  57.630  1.00  0.00     0.005 C 
ENDBRANCH  10  11
ENDBRANCH   7  10
ENDBRANCH   5   6
BRANCH   5  13
HETATM   13  C   UNL     1       5.418  31.991  58.701  1.00  0.00     0.226 C 
HETATM   14 CL   UNL     1       5.164  33.516  57.775  1.00  0.00    -0.080 Cl
HETATM   15 CL   UNL     1       3.840  31.620  59.518  1.00  0.00    -0.080 Cl
HETATM   16 CL   UNL     1       6.608  32.288  60.006  1.00  0.00    -0.080 Cl
ENDBRANCH   5  13
ENDBRANCH   3   5
ENDBRANCH   1   3
BRANCH   1  17
HETATM   17  N   UNL     1       3.884  27.953  56.424  1.00  0.00    -0.274 N 
HETATM   18  H   UNL     1       3.022  27.472  56.668  1.00  0.00     0.189 HD
BRANCH  17  19
HETATM   19  N   UNL     1       4.665  27.244  55.500  1.00  0.00    -0.264 N 
HETATM   20  C   UNL     1       5.249  26.064  55.912  1.00  0.00     0.272 C 
HETATM   21  O   UNL     1       5.167  25.655  57.070  1.00  0.00    -0.266 OA
HETATM   22  H   UNL     1       4.796  27.671  54.587  1.00  0.00     0.190 HD
BRANCH  20  23
HETATM   23  C   UNL     1       6.025  25.298  54.903  1.00  0.00     0.066 A 
HETATM   24  C   UNL     1       5.450  25.026  53.651  1.00  0.00     0.081 A 
HETATM   25  C   UNL     1       6.154  24.301  52.691  1.00  0.00     0.037 A 
HETATM   26  C   UNL     1       7.449  23.860  52.961  1.00  0.00     0.003 A 
HETATM   27  C   UNL     1       8.042  24.148  54.189  1.00  0.00     0.001 A 
HETATM   28  C   UNL     1       7.335  24.867  55.159  1.00  0.00     0.020 A 
BRANCH  24  29
HETATM   29  O   UNL     1       4.195  25.441  53.295  1.00  0.00    -0.360 OA
HETATM   30  H   UNL     1       4.015  26.293  53.749  1.00  0.00     0.217 HD
ENDBRANCH  24  29
ENDBRANCH  20  23
ENDBRANCH  17  19
ENDBRANCH   1  17
TORSDOF 10
ENDMDL
MODEL 7
REMARK VINA RESULT:      -7.4      4.307      6.319
REMARK  10 active torsions:
REMARK  status: ('A' for Active; 'I' for Inactive)
REMARK    1  A    between atoms: C_2  and  C_3 
REMARK    2  A    between atoms: C_3  and  C_4 
REMARK       I    between atoms: C_4  and  N_5 
REMARK    3  A    between atoms: N_5  and  C_6 
REMARK    4  A    between atoms: C_6  and  N_7 
REMARK    5  A    between atoms: C_6  and  C_21 
REMARK    6  A    between atoms: N_7  and  C_8 
REMARK    7  A    between atoms: C_8  and  N_9 
REMARK    8  A    between atoms: N_9  and  N_10 
REMARK       I    between atoms: N_10  and  C_11 
REMARK    9  A    between atoms: C_11  and  C_12 
REMARK   10  A    between atoms: C_13  and  O_14 
ROOT
HETATM    1  C   UNL     1       7.529  27.182  56.356  1.00  0.00     0.188 C 
HETATM    2  S   UNL     1       8.619  28.201  57.117  1.00  0.00    -0.039 SA
ENDROOT
BRANCH   1   3
HETATM    3  N   UNL     1       6.970  27.608  55.197  1.00  0.00    -0.341 N 
HETATM    4  H   UNL     1       7.613  28.104  54.584  1.00  0.00     0.164 HD
BRANCH   3   5
HETATM    5  C   UNL     1       5.571  27.732  54.800  1.00  0.00     0.241 C 
BRANCH   5   6
HETATM    6  N   UNL     1       5.457  27.227  53.435  1.00  0.00    -0.336 N 
HETATM    7  C   UNL     1       5.311  25.903  53.121  1.00  0.00     0.219 C 
HETATM    8  O   UNL     1       5.255  25.025  53.974  1.00  0.00    -0.274 OA
HETATM    9  H   UNL     1       5.363  27.908  52.693  1.00  0.00     0.164 HD
BRANCH   7  10
HETATM   10  C   UNL     1       5.194  25.605  51.641  1.00  0.00     0.102 C 
BRANCH  10  11
HETATM   11  C   UNL     1       5.101  26.865  50.785  1.00  0.00     0.005 C 
HETATM   12  C   UNL     1       4.641  26.597  49.359  1.00  0.00     0.005 C 
ENDBRANCH  10  11
ENDBRANCH   7  10
ENDBRANCH   5   6
BRANCH   5  13
HETATM   13  C   UNL     1       4.899  29.142  55.125  1.00  0.00     0.226 C 
HETATM   14 CL   UNL     1       4.122  29.842  53.656  1.00  0.00    -0.080 Cl
HETATM   15 CL   UNL     1       3.572  28.902  56.339  1.00  0.00    -0.080 Cl
HETATM   16 CL   UNL     1       6.020  30.349  55.827  1.00  0.00    -0.080 Cl
ENDBRANCH   5  13
ENDBRANCH   3   5
ENDBRANCH   1   3
BRANCH   1  17
HETATM   17  N   UNL     1       7.156  25.955  56.833  1.00  0.00    -0.274 N 
HETATM   18  H   UNL     1       6.543  25.836  57.636  1.00  0.00     0.189 HD
BRANCH  17  19
HETATM   19  N   UNL     1       7.185  24.831  55.995  1.00  0.00    -0.264 N 
HETATM   20  C   UNL     1       8.186  23.902  56.188  1.00  0.00     0.272 C 
HETATM   21  O   UNL     1       9.086  24.060  57.014  1.00  0.00    -0.266 OA
HETATM   22  H   UNL     1       6.489  24.792  55.255  1.00  0.00     0.190 HD
BRANCH  20  23
HETATM   23  C   UNL     1       8.167  22.690  55.328  1.00  0.00     0.066 A 
HETATM   24  C   UNL     1       8.124  22.834  53.933  1.00  0.00     0.081 A 
HETATM   25  C   UNL     1       8.096  21.713  53.105  1.00  0.00     0.037 A 
HETATM   26  C   UNL     1       8.134  20.435  53.662  1.00  0.00     0.003 A 
HETATM   27  C   UNL     1       8.206  20.278  55.045  1.00  0.00     0.001 A 
HETATM   28  C   UNL     1       8.225  21.400  55.879  1.00  0.00     0.020 A 
BRANCH  24  29
HETATM   29  O   UNL     1       8.107  24.050  53.304  1.00  0.00    -0.360 OA
HETATM   30  H   UNL     1       7.345  24.563  53.651  1.00  0.00     0.217 HD
ENDBRANCH  24  29
ENDBRANCH  20  23
ENDBRANCH  17  19
ENDBRANCH   1  17
TORSDOF 10
ENDMDL
MODEL 8
REMARK VINA RESULT:      -7.3      5.530      8.757
REMARK  10 active torsions:
REMARK  status: ('A' for Active; 'I' for Inactive)
REMARK    1  A    between atoms: C_2  and  C_3 
REMARK    2  A    between atoms: C_3  and  C_4 
REMARK       I    between atoms: C_4  and  N_5 
REMARK    3  A    between atoms: N_5  and  C_6 
REMARK    4  A    between atoms: C_6  and  N_7 
REMARK    5  A    between atoms: C_6  and  C_21 
REMARK    6  A    between atoms: N_7  and  C_8 
REMARK    7  A    between atoms: C_8  and  N_9 
REMARK    8  A    between atoms: N_9  and  N_10 
REMARK       I    between atoms: N_10  and  C_11 
REMARK    9  A    between atoms: C_11  and  C_12 
REMARK   10  A    between atoms: C_13  and  O_14 
ROOT
HETATM    1  C   UNL     1       4.967  26.845  53.185  1.00  0.00     0.188 C 
HETATM    2  S   UNL     1       4.343  28.308  53.710  1.00  0.00    -0.039 SA
ENDROOT
BRANCH   1   3
HETATM    3  N   UNL     1       5.236  25.901  54.120  1.00  0.00    -0.341 N 
HETATM    4  H   UNL     1       4.407  25.489  54.544  1.00  0.00     0.164 HD
BRANCH   3   5
HETATM    5  C   UNL     1       6.473  25.575  54.821  1.00  0.00     0.241 C 
BRANCH   5   6
HETATM    6  N   UNL     1       6.914  24.266  54.348  1.00  0.00    -0.336 N 
HETATM    7  C   UNL     1       7.544  24.061  53.150  1.00  0.00     0.219 C 
HETATM    8  O   UNL     1       7.800  24.974  52.374  1.00  0.00    -0.274 OA
HETATM    9  H   UNL     1       6.853  23.492  54.996  1.00  0.00     0.164 HD
BRANCH   7  10
HETATM   10  C   UNL     1       7.930  22.624  52.868  1.00  0.00     0.102 C 
BRANCH  10  11
HETATM   11  C   UNL     1       8.482  21.903  54.095  1.00  0.00     0.005 C 
HETATM   12  C   UNL     1       8.182  20.411  54.107  1.00  0.00     0.005 C 
ENDBRANCH  10  11
ENDBRANCH   7  10
ENDBRANCH   5   6
BRANCH   5  13
HETATM   13  C   UNL     1       6.442  25.818  56.398  1.00  0.00     0.226 C 
HETATM   14 CL   UNL     1       4.894  25.233  57.112  1.00  0.00    -0.080 Cl
HETATM   15 CL   UNL     1       7.763  24.848  57.175  1.00  0.00    -0.080 Cl
HETATM   16 CL   UNL     1       6.706  27.521  56.886  1.00  0.00    -0.080 Cl
ENDBRANCH   5  13
ENDBRANCH   3   5
ENDBRANCH   1   3
BRANCH   1  17
HETATM   17  N   UNL     1       5.234  26.543  51.878  1.00  0.00    -0.274 N 
HETATM   18  H   UNL     1       5.960  25.888  51.598  1.00  0.00     0.189 HD
BRANCH  17  19
HETATM   19  N   UNL     1       4.251  26.723  50.894  1.00  0.00    -0.264 N 
HETATM   20  C   UNL     1       4.529  27.572  49.844  1.00  0.00     0.272 C 
HETATM   21  O   UNL     1       5.571  28.225  49.779  1.00  0.00    -0.266 OA
HETATM   22  H   UNL     1       3.362  26.250  51.041  1.00  0.00     0.190 HD
BRANCH  20  23
HETATM   23  C   UNL     1       3.498  27.706  48.782  1.00  0.00     0.066 A 
HETATM   24  C   UNL     1       2.852  26.558  48.298  1.00  0.00     0.081 A 
HETATM   25  C   UNL     1       1.888  26.655  47.297  1.00  0.00     0.037 A 
HETATM   26  C   UNL     1       1.542  27.904  46.783  1.00  0.00     0.003 A 
HETATM   27  C   UNL     1       2.155  29.056  47.274  1.00  0.00     0.001 A 
HETATM   28  C   UNL     1       3.129  28.961  48.273  1.00  0.00     0.020 A 
BRANCH  24  29
HETATM   29  O   UNL     1       3.115  25.297  48.763  1.00  0.00    -0.360 OA
HETATM   30  H   UNL     1       3.441  25.373  49.686  1.00  0.00     0.217 HD
ENDBRANCH  24  29
ENDBRANCH  20  23
ENDBRANCH  17  19
ENDBRANCH   1  17
TORSDOF 10
ENDMDL
MODEL 9
REMARK VINA RESULT:      -7.3      3.221      4.318
REMARK  10 active torsions:
REMARK  status: ('A' for Active; 'I' for Inactive)
REMARK    1  A    between atoms: C_2  and  C_3 
REMARK    2  A    between atoms: C_3  and  C_4 
REMARK       I    between atoms: C_4  and  N_5 
REMARK    3  A    between atoms: N_5  and  C_6 
REMARK    4  A    between atoms: C_6  and  N_7 
REMARK    5  A    between atoms: C_6  and  C_21 
REMARK    6  A    between atoms: N_7  and  C_8 
REMARK    7  A    between atoms: C_8  and  N_9 
REMARK    8  A    between atoms: N_9  and  N_10 
REMARK       I    between atoms: N_10  and  C_11 
REMARK    9  A    between atoms: C_11  and  C_12 
REMARK   10  A    between atoms: C_13  and  O_14 
ROOT
HETATM    1  C   UNL     1       6.688  26.762  53.739  1.00  0.00     0.188 C 
HETATM    2  S   UNL     1       5.183  27.027  53.053  1.00  0.00    -0.039 SA
ENDROOT
BRANCH   1   3
HETATM    3  N   UNL     1       6.996  27.444  54.869  1.00  0.00    -0.341 N 
HETATM    4  H   UNL     1       7.232  26.849  55.661  1.00  0.00     0.164 HD
BRANCH   3   5
HETATM    5  C   UNL     1       6.779  28.840  55.232  1.00  0.00     0.241 C 
BRANCH   5   6
HETATM    6  N   UNL     1       8.091  29.460  55.393  1.00  0.00    -0.336 N 
HETATM    7  C   UNL     1       9.056  28.993  56.244  1.00  0.00     0.219 C 
HETATM    8  O   UNL     1       8.896  27.999  56.941  1.00  0.00    -0.274 OA
HETATM    9  H   UNL     1       8.336  30.204  54.752  1.00  0.00     0.164 HD
BRANCH   7  10
HETATM   10  C   UNL     1      10.349  29.781  56.238  1.00  0.00     0.102 C 
BRANCH  10  11
HETATM   11  C   UNL     1      10.786  30.222  57.633  1.00  0.00     0.005 C 
HETATM   12  C   UNL     1       9.751  31.076  58.351  1.00  0.00     0.005 C 
ENDBRANCH  10  11
ENDBRANCH   7  10
ENDBRANCH   5   6
BRANCH   5  13
HETATM   13  C   UNL     1       5.703  29.080  56.385  1.00  0.00     0.226 C 
HETATM   14 CL   UNL     1       6.219  30.411  57.486  1.00  0.00    -0.080 Cl
HETATM   15 CL   UNL     1       4.138  29.614  55.637  1.00  0.00    -0.080 Cl
HETATM   16 CL   UNL     1       5.330  27.625  57.360  1.00  0.00    -0.080 Cl
ENDBRANCH   5  13
ENDBRANCH   3   5
ENDBRANCH   1   3
BRANCH   1  17
HETATM   17  N   UNL     1       7.631  25.913  53.228  1.00  0.00    -0.274 N 
HETATM   18  H   UNL     1       8.314  26.200  52.531  1.00  0.00     0.189 HD
BRANCH  17  19
HETATM   19  N   UNL     1       8.028  24.778  53.949  1.00  0.00    -0.264 N 
HETATM   20  C   UNL     1       7.385  23.585  53.690  1.00  0.00     0.272 C 
HETATM   21  O   UNL     1       6.439  23.500  52.907  1.00  0.00    -0.266 OA
HETATM   22  H   UNL     1       8.739  24.913  54.664  1.00  0.00     0.190 HD
BRANCH  20  23
HETATM   23  C   UNL     1       7.858  22.382  54.423  1.00  0.00     0.066 A 
HETATM   24  C   UNL     1       7.989  22.432  55.820  1.00  0.00     0.081 A 
HETATM   25  C   UNL     1       8.438  21.320  56.530  1.00  0.00     0.037 A 
HETATM   26  C   UNL     1       8.741  20.138  55.854  1.00  0.00     0.003 A 
HETATM   27  C   UNL     1       8.589  20.066  54.471  1.00  0.00     0.001 A 
HETATM   28  C   UNL     1       8.147  21.183  53.754  1.00  0.00     0.020 A 
BRANCH  24  29
HETATM   29  O   UNL     1       7.691  23.543  56.563  1.00  0.00    -0.360 OA
HETATM   30  H   UNL     1       7.068  24.098  56.045  1.00  0.00     0.217 HD
ENDBRANCH  24  29
ENDBRANCH  20  23
ENDBRANCH  17  19
ENDBRANCH   1  17
TORSDOF 10
ENDMDL
MODEL 10
REMARK VINA RESULT:      -7.3      4.845      7.768
REMARK  10 active torsions:
REMARK  status: ('A' for Active; 'I' for Inactive)
REMARK    1  A    between atoms: C_2  and  C_3 
REMARK    2  A    between atoms: C_3  and  C_4 
REMARK       I    between atoms: C_4  and  N_5 
REMARK    3  A    between atoms: N_5  and  C_6 
REMARK    4  A    between atoms: C_6  and  N_7 
REMARK    5  A    between atoms: C_6  and  C_21 
REMARK    6  A    between atoms: N_7  and  C_8 
REMARK    7  A    between atoms: C_8  and  N_9 
REMARK    8  A    between atoms: N_9  and  N_10 
REMARK       I    between atoms: N_10  and  C_11 
REMARK    9  A    between atoms: C_11  and  C_12 
REMARK   10  A    between atoms: C_13  and  O_14 
ROOT
HETATM    1  C   UNL     1       4.181  28.191  54.287  1.00  0.00     0.188 C 
HETATM    2  S   UNL     1       4.142  29.840  54.575  1.00  0.00    -0.039 SA
ENDROOT
BRANCH   1   3
HETATM    3  N   UNL     1       4.978  27.430  55.077  1.00  0.00    -0.341 N 
HETATM    4  H   UNL     1       4.543  27.142  55.950  1.00  0.00     0.164 HD
BRANCH   3   5
HETATM    5  C   UNL     1       6.417  27.191  55.034  1.00  0.00     0.241 C 
BRANCH   5   6
HETATM    6  N   UNL     1       6.618  25.784  54.702  1.00  0.00    -0.336 N 
HETATM    7  C   UNL     1       6.552  25.284  53.430  1.00  0.00     0.219 C 
HETATM    8  O   UNL     1       6.325  25.989  52.454  1.00  0.00    -0.274 OA
HETATM    9  H   UNL     1       6.939  25.172  55.441  1.00  0.00     0.164 HD
BRANCH   7  10
HETATM   10  C   UNL     1       6.810  23.796  53.313  1.00  0.00     0.102 C 
BRANCH  10  11
HETATM   11  C   UNL     1       8.049  23.344  54.081  1.00  0.00     0.005 C 
HETATM   12  C   UNL     1       8.677  22.073  53.525  1.00  0.00     0.005 C 
ENDBRANCH  10  11
ENDBRANCH   7  10
ENDBRANCH   5   6
BRANCH   5  13
HETATM   13  C   UNL     1       7.238  27.783  56.268  1.00  0.00     0.226 C 
HETATM   14 CL   UNL     1       8.283  29.157  55.751  1.00  0.00    -0.080 Cl
HETATM   15 CL   UNL     1       6.075  28.456  57.488  1.00  0.00    -0.080 Cl
HETATM   16 CL   UNL     1       8.240  26.576  57.133  1.00  0.00    -0.080 Cl
ENDBRANCH   5  13
ENDBRANCH   3   5
ENDBRANCH   1   3
BRANCH   1  17
HETATM   17  N   UNL     1       3.472  27.562  53.300  1.00  0.00    -0.274 N 
HETATM   18  H   UNL     1       2.462  27.446  53.333  1.00  0.00     0.189 HD
BRANCH  17  19
HETATM   19  N   UNL     1       3.992  27.472  52.001  1.00  0.00    -0.264 N 
HETATM   20  C   UNL     1       3.511  28.343  51.047  1.00  0.00     0.272 C 
HETATM   21  O   UNL     1       2.602  29.141  51.277  1.00  0.00    -0.266 OA
HETATM   22  H   UNL     1       4.663  26.728  51.825  1.00  0.00     0.190 HD
BRANCH  20  23
HETATM   23  C   UNL     1       4.114  28.271  49.690  1.00  0.00     0.066 A 
HETATM   24  C   UNL     1       4.348  27.017  49.105  1.00  0.00     0.081 A 
HETATM   25  C   UNL     1       4.921  26.921  47.838  1.00  0.00     0.037 A 
HETATM   26  C   UNL     1       5.246  28.079  47.132  1.00  0.00     0.003 A 
HETATM   27  C   UNL     1       4.993  29.331  47.690  1.00  0.00     0.001 A 
HETATM   28  C   UNL     1       4.427  29.430  48.965  1.00  0.00     0.020 A 
BRANCH  24  29
HETATM   29  O   UNL     1       4.038  25.833  49.718  1.00  0.00    -0.360 OA
HETATM   30  H   UNL     1       4.876  25.415  50.017  1.00  0.00     0.217 HD
ENDBRANCH  24  29
ENDBRANCH  20  23
ENDBRANCH  17  19
ENDBRANCH   1  17
TORSDOF 10
ENDMDL
