MODEL 1
REMARK VINA RESULT:      -9.3      0.000      0.000
REMARK  8 active torsions:
REMARK  status: ('A' for Active; 'I' for Inactive)
REMARK    1  A    between atoms: C_3  and  N_4 
REMARK       I    between atoms: N_4  and  C_5 
REMARK    2  A    between atoms: C_5  and  C_6 
REMARK    3  A    between atoms: C_7  and  C_8 
REMARK    4  A    between atoms: C_17  and  C_18 
REMARK    5  A    between atoms: C_20  and  O_21 
REMARK    6  A    between atoms: C_23  and  O_24 
REMARK    7  A    between atoms: O_24  and  C_25 
REMARK    8  A    between atoms: C_25  and  C_26 
REMARK       I    between atoms: C_26  and  N_27 
ROOT
HETATM    1  C   UNL     1       5.963  27.749  54.334  1.00  0.00     0.062 A 
HETATM    2  C   UNL     1       6.196  28.385  55.681  1.00  0.00     0.176 A 
HETATM    3  N   UNL     1       5.421  29.610  55.808  1.00  0.00    -0.277 N 
HETATM    4  C   UNL     1       4.693  30.089  54.766  1.00  0.00     0.177 A 
HETATM    5  S   UNL     1       3.920  31.593  55.170  1.00  0.00    -0.046 SA
HETATM    6  C   UNL     1       4.420  31.481  56.821  1.00  0.00     0.077 C 
HETATM    7  C   UNL     1       4.084  32.402  57.737  1.00  0.00     0.036 C 
HETATM    8  C   UNL     1       5.224  30.234  57.018  1.00  0.00     0.267 C 
HETATM    9  O   UNL     1       5.585  29.803  58.102  1.00  0.00    -0.266 OA
HETATM   10  N   UNL     1       4.539  29.527  53.620  1.00  0.00    -0.228 NA
HETATM   11  C   UNL     1       5.174  28.325  53.402  1.00  0.00     0.047 A 
HETATM   12  C   UNL     1       4.889  27.734  52.044  1.00  0.00     0.071 C 
ENDROOT
BRANCH   7  13
HETATM   13  C   UNL     1       4.430  32.342  59.157  1.00  0.00    -0.032 A 
HETATM   14  C   UNL     1       5.720  32.683  59.589  1.00  0.00     0.051 A 
HETATM   15  C   UNL     1       6.049  32.614  60.948  1.00  0.00     0.102 A 
HETATM   16  C   UNL     1       5.082  32.168  61.865  1.00  0.00     0.102 A 
HETATM   17  C   UNL     1       3.787  31.863  61.439  1.00  0.00     0.040 A 
HETATM   18  C   UNL     1       3.464  31.947  60.086  1.00  0.00     0.014 A 
BRANCH  15  19
HETATM   19  O   UNL     1       7.282  32.915  61.471  1.00  0.00    -0.353 OA
HETATM   20  C   UNL     1       8.410  32.342  60.822  1.00  0.00     0.210 C 
ENDBRANCH  15  19
BRANCH  16  21
HETATM   21  O   UNL     1       5.442  32.110  63.188  1.00  0.00    -0.339 OA
BRANCH  21  22
HETATM   22  C   UNL     1       5.042  33.256  63.943  1.00  0.00     0.278 C 
BRANCH  22  23
HETATM   23  C   UNL     1       6.142  33.625  64.931  1.00  0.00     0.239 C 
HETATM   24  N   UNL     1       7.413  33.329  64.528  1.00  0.00    -0.368 N 
HETATM   25  H   UNL     1       7.583  33.099  63.553  1.00  0.00     0.159 HD
HETATM   26  H   UNL     1       8.184  33.615  65.114  1.00  0.00     0.159 HD
HETATM   27  O   UNL     1       5.922  34.100  66.042  1.00  0.00    -0.271 OA
ENDBRANCH  22  23
ENDBRANCH  21  22
ENDBRANCH  16  21
ENDBRANCH   7  13
BRANCH   2  28
HETATM   28  C   UNL     1       7.654  28.701  55.960  1.00  0.00     0.011 A 
HETATM   29  S   UNL     1       8.381  28.161  57.421  1.00  0.00    -0.104 SA
HETATM   30  C   UNL     1       9.896  28.818  56.989  1.00  0.00     0.050 A 
HETATM   31  C   UNL     1       9.861  29.432  55.759  1.00  0.00     0.008 A 
HETATM   32  C   UNL     1       8.568  29.368  55.163  1.00  0.00     0.017 A 
ENDBRANCH   2  28
BRANCH   1  33
HETATM   33  C   UNL     1       6.791  26.559  53.974  1.00  0.00     0.256 C 
HETATM   34  N   UNL     1       6.350  25.373  54.525  1.00  0.00    -0.323 N 
HETATM   35  H   UNL     1       5.494  25.391  55.058  1.00  0.00     0.169 HD
HETATM   36  O   UNL     1       7.784  26.720  53.275  1.00  0.00    -0.267 OA
BRANCH  34  37
HETATM   37  C   UNL     1       6.993  24.109  54.464  1.00  0.00     0.041 A 
HETATM   38  C   UNL     1       7.587  23.589  55.637  1.00  0.00    -0.035 A 
HETATM   39  C   UNL     1       7.568  24.323  56.950  1.00  0.00     0.050 C 
HETATM   40  C   UNL     1       8.236  22.339  55.588  1.00  0.00     0.009 A 
HETATM   41  C   UNL     1       8.303  21.612  54.402  1.00  0.00     0.001 A 
HETATM   42  C   UNL     1       7.721  22.124  53.251  1.00  0.00     0.002 A 
HETATM   43  C   UNL     1       7.074  23.361  53.282  1.00  0.00     0.030 A 
ENDBRANCH  34  37
ENDBRANCH   1  33
TORSDOF 8
ENDMDL
MODEL 2
REMARK VINA RESULT:      -9.0      6.108     10.236
REMARK  8 active torsions:
REMARK  status: ('A' for Active; 'I' for Inactive)
REMARK    1  A    between atoms: C_3  and  N_4 
REMARK       I    between atoms: N_4  and  C_5 
REMARK    2  A    between atoms: C_5  and  C_6 
REMARK    3  A    between atoms: C_7  and  C_8 
REMARK    4  A    between atoms: C_17  and  C_18 
REMARK    5  A    between atoms: C_20  and  O_21 
REMARK    6  A    between atoms: C_23  and  O_24 
REMARK    7  A    between atoms: O_24  and  C_25 
REMARK    8  A    between atoms: C_25  and  C_26 
REMARK       I    between atoms: C_26  and  N_27 
ROOT
HETATM    1  C   UNL     1       5.001  28.372  52.946  1.00  0.00     0.062 A 
HETATM    2  C   UNL     1       5.337  28.953  51.597  1.00  0.00     0.176 A 
HETATM    3  N   UNL     1       4.952  30.354  51.534  1.00  0.00    -0.277 N 
HETATM    4  C   UNL     1       4.295  30.946  52.565  1.00  0.00     0.177 A 
HETATM    5  S   UNL     1       3.903  32.600  52.202  1.00  0.00    -0.046 SA
HETATM    6  C   UNL     1       4.802  32.558  50.726  1.00  0.00     0.077 C 
HETATM    7  C   UNL     1       4.924  33.629  49.928  1.00  0.00     0.036 C 
HETATM    8  C   UNL     1       5.393  31.196  50.539  1.00  0.00     0.267 C 
HETATM    9  O   UNL     1       6.202  30.901  49.672  1.00  0.00    -0.266 OA
HETATM   10  N   UNL     1       4.004  30.407  53.696  1.00  0.00    -0.228 NA
HETATM   11  C   UNL     1       4.377  29.097  53.898  1.00  0.00     0.047 A 
HETATM   12  C   UNL     1       4.027  28.580  55.272  1.00  0.00     0.071 C 
ENDROOT
BRANCH   7  13
HETATM   13  C   UNL     1       5.709  33.676  48.695  1.00  0.00    -0.032 A 
HETATM   14  C   UNL     1       6.996  34.232  48.694  1.00  0.00     0.051 A 
HETATM   15  C   UNL     1       7.739  34.285  47.509  1.00  0.00     0.102 A 
HETATM   16  C   UNL     1       7.168  33.803  46.319  1.00  0.00     0.102 A 
HETATM   17  C   UNL     1       5.899  33.217  46.328  1.00  0.00     0.040 A 
HETATM   18  C   UNL     1       5.171  33.157  47.514  1.00  0.00     0.014 A 
BRANCH  15  19
HETATM   19  O   UNL     1       9.001  34.816  47.398  1.00  0.00    -0.353 OA
HETATM   20  C   UNL     1       9.358  35.818  48.344  1.00  0.00     0.210 C 
ENDBRANCH  15  19
BRANCH  16  21
HETATM   21  O   UNL     1       7.925  33.874  45.177  1.00  0.00    -0.339 OA
BRANCH  21  22
HETATM   22  C   UNL     1       7.300  34.601  44.117  1.00  0.00     0.278 C 
BRANCH  22  23
HETATM   23  C   UNL     1       7.524  36.095  44.322  1.00  0.00     0.239 C 
HETATM   24  N   UNL     1       8.765  36.443  44.773  1.00  0.00    -0.368 N 
HETATM   25  H   UNL     1       9.515  35.758  44.739  1.00  0.00     0.159 HD
HETATM   26  H   UNL     1       8.990  37.424  44.860  1.00  0.00     0.159 HD
HETATM   27  O   UNL     1       6.648  36.939  44.157  1.00  0.00    -0.271 OA
ENDBRANCH  22  23
ENDBRANCH  21  22
ENDBRANCH  16  21
ENDBRANCH   7  13
BRANCH   2  28
HETATM   28  C   UNL     1       4.687  28.219  50.439  1.00  0.00     0.011 A 
HETATM   29  S   UNL     1       3.047  28.541  50.035  1.00  0.00    -0.104 SA
HETATM   30  C   UNL     1       3.086  27.453  48.721  1.00  0.00     0.050 A 
HETATM   31  C   UNL     1       4.318  26.858  48.578  1.00  0.00     0.008 A 
HETATM   32  C   UNL     1       5.244  27.296  49.570  1.00  0.00     0.017 A 
ENDBRANCH   2  28
BRANCH   1  33
HETATM   33  C   UNL     1       5.195  26.903  53.138  1.00  0.00     0.256 C 
HETATM   34  N   UNL     1       6.469  26.544  53.526  1.00  0.00    -0.323 N 
HETATM   35  H   UNL     1       7.133  27.283  53.706  1.00  0.00     0.169 HD
HETATM   36  O   UNL     1       4.257  26.148  52.910  1.00  0.00    -0.267 OA
BRANCH  34  37
HETATM   37  C   UNL     1       6.984  25.228  53.666  1.00  0.00     0.041 A 
HETATM   38  C   UNL     1       6.908  24.597  54.930  1.00  0.00    -0.035 A 
HETATM   39  C   UNL     1       6.307  25.266  56.136  1.00  0.00     0.050 C 
HETATM   40  C   UNL     1       7.423  23.295  55.084  1.00  0.00     0.009 A 
HETATM   41  C   UNL     1       8.005  22.622  54.013  1.00  0.00     0.001 A 
HETATM   42  C   UNL     1       8.080  23.242  52.773  1.00  0.00     0.002 A 
HETATM   43  C   UNL     1       7.574  24.533  52.603  1.00  0.00     0.030 A 
ENDBRANCH  34  37
ENDBRANCH   1  33
TORSDOF 8
ENDMDL
MODEL 3
REMARK VINA RESULT:      -8.9      6.063     10.598
REMARK  8 active torsions:
REMARK  status: ('A' for Active; 'I' for Inactive)
REMARK    1  A    between atoms: C_3  and  N_4 
REMARK       I    between atoms: N_4  and  C_5 
REMARK    2  A    between atoms: C_5  and  C_6 
REMARK    3  A    between atoms: C_7  and  C_8 
REMARK    4  A    between atoms: C_17  and  C_18 
REMARK    5  A    between atoms: C_20  and  O_21 
REMARK    6  A    between atoms: C_23  and  O_24 
REMARK    7  A    between atoms: O_24  and  C_25 
REMARK    8  A    between atoms: C_25  and  C_26 
REMARK       I    between atoms: C_26  and  N_27 
ROOT
HETATM    1  C   UNL     1       5.036  28.388  52.995  1.00  0.00     0.062 A 
HETATM    2  C   UNL     1       5.367  28.983  51.650  1.00  0.00     0.176 A 
HETATM    3  N   UNL     1       4.974  30.383  51.601  1.00  0.00    -0.277 N 
HETATM    4  C   UNL     1       4.316  30.962  52.638  1.00  0.00     0.177 A 
HETATM    5  S   UNL     1       3.914  32.617  52.291  1.00  0.00    -0.046 SA
HETATM    6  C   UNL     1       4.810  32.594  50.813  1.00  0.00     0.077 C 
HETATM    7  C   UNL     1       4.925  33.672  50.024  1.00  0.00     0.036 C 
HETATM    8  C   UNL     1       5.408  31.236  50.612  1.00  0.00     0.267 C 
HETATM    9  O   UNL     1       6.217  30.953  49.741  1.00  0.00    -0.266 OA
HETATM   10  N   UNL     1       4.031  30.411  53.764  1.00  0.00    -0.228 NA
HETATM   11  C   UNL     1       4.410  29.102  53.954  1.00  0.00     0.047 A 
HETATM   12  C   UNL     1       4.066  28.570  55.324  1.00  0.00     0.071 C 
ENDROOT
BRANCH   7  13
HETATM   13  C   UNL     1       5.707  33.734  48.790  1.00  0.00    -0.032 A 
HETATM   14  C   UNL     1       5.214  33.166  47.607  1.00  0.00     0.051 A 
HETATM   15  C   UNL     1       5.972  33.218  46.431  1.00  0.00     0.102 A 
HETATM   16  C   UNL     1       7.243  33.817  46.461  1.00  0.00     0.102 A 
HETATM   17  C   UNL     1       7.719  34.414  47.631  1.00  0.00     0.040 A 
HETATM   18  C   UNL     1       6.952  34.369  48.794  1.00  0.00     0.014 A 
BRANCH  15  19
HETATM   19  O   UNL     1       5.585  32.685  45.226  1.00  0.00    -0.353 OA
HETATM   20  C   UNL     1       4.690  31.580  45.273  1.00  0.00     0.210 C 
ENDBRANCH  15  19
BRANCH  16  21
HETATM   21  O   UNL     1       7.957  33.846  45.290  1.00  0.00    -0.339 OA
BRANCH  21  22
HETATM   22  C   UNL     1       7.909  35.107  44.619  1.00  0.00     0.278 C 
BRANCH  22  23
HETATM   23  C   UNL     1       7.291  34.926  43.238  1.00  0.00     0.239 C 
HETATM   24  N   UNL     1       7.291  33.647  42.760  1.00  0.00    -0.368 N 
HETATM   25  H   UNL     1       7.483  32.880  43.398  1.00  0.00     0.159 HD
HETATM   26  H   UNL     1       6.832  33.460  41.880  1.00  0.00     0.159 HD
HETATM   27  O   UNL     1       6.872  35.859  42.558  1.00  0.00    -0.271 OA
ENDBRANCH  22  23
ENDBRANCH  21  22
ENDBRANCH  16  21
ENDBRANCH   7  13
BRANCH   2  28
HETATM   28  C   UNL     1       4.717  28.256  50.486  1.00  0.00     0.011 A 
HETATM   29  S   UNL     1       3.075  28.572  50.090  1.00  0.00    -0.104 SA
HETATM   30  C   UNL     1       3.117  27.497  48.766  1.00  0.00     0.050 A 
HETATM   31  C   UNL     1       4.352  26.911  48.614  1.00  0.00     0.008 A 
HETATM   32  C   UNL     1       5.278  27.345  49.608  1.00  0.00     0.017 A 
ENDBRANCH   2  28
BRANCH   1  33
HETATM   33  C   UNL     1       5.238  26.919  53.173  1.00  0.00     0.256 C 
HETATM   34  N   UNL     1       6.519  26.562  53.543  1.00  0.00    -0.323 N 
HETATM   35  H   UNL     1       7.182  27.302  53.721  1.00  0.00     0.169 HD
HETATM   36  O   UNL     1       4.300  26.162  52.951  1.00  0.00    -0.267 OA
BRANCH  34  37
HETATM   37  C   UNL     1       7.040  25.247  53.667  1.00  0.00     0.041 A 
HETATM   38  C   UNL     1       6.998  24.613  54.930  1.00  0.00    -0.035 A 
HETATM   39  C   UNL     1       6.425  25.277  56.152  1.00  0.00     0.050 C 
HETATM   40  C   UNL     1       7.519  23.312  55.068  1.00  0.00     0.009 A 
HETATM   41  C   UNL     1       8.077  22.644  53.981  1.00  0.00     0.001 A 
HETATM   42  C   UNL     1       8.119  23.267  52.741  1.00  0.00     0.002 A 
HETATM   43  C   UNL     1       7.606  24.557  52.587  1.00  0.00     0.030 A 
ENDBRANCH  34  37
ENDBRANCH   1  33
TORSDOF 8
ENDMDL
MODEL 4
REMARK VINA RESULT:      -8.8      1.532      1.977
REMARK  8 active torsions:
REMARK  status: ('A' for Active; 'I' for Inactive)
REMARK    1  A    between atoms: C_3  and  N_4 
REMARK       I    between atoms: N_4  and  C_5 
REMARK    2  A    between atoms: C_5  and  C_6 
REMARK    3  A    between atoms: C_7  and  C_8 
REMARK    4  A    between atoms: C_17  and  C_18 
REMARK    5  A    between atoms: C_20  and  O_21 
REMARK    6  A    between atoms: C_23  and  O_24 
REMARK    7  A    between atoms: O_24  and  C_25 
REMARK    8  A    between atoms: C_25  and  C_26 
REMARK       I    between atoms: C_26  and  N_27 
ROOT
HETATM    1  C   UNL     1       4.927  27.424  54.247  1.00  0.00     0.062 A 
HETATM    2  C   UNL     1       5.128  28.072  55.593  1.00  0.00     0.176 A 
HETATM    3  N   UNL     1       4.949  29.513  55.498  1.00  0.00    -0.277 N 
HETATM    4  C   UNL     1       4.731  30.113  54.299  1.00  0.00     0.177 A 
HETATM    5  S   UNL     1       4.616  31.840  54.465  1.00  0.00    -0.046 SA
HETATM    6  C   UNL     1       4.667  31.743  56.191  1.00  0.00     0.077 C 
HETATM    7  C   UNL     1       4.580  32.828  56.974  1.00  0.00     0.036 C 
HETATM    8  C   UNL     1       4.795  30.311  56.608  1.00  0.00     0.267 C 
HETATM    9  O   UNL     1       4.703  29.911  57.758  1.00  0.00    -0.266 OA
HETATM   10  N   UNL     1       4.589  29.525  53.165  1.00  0.00    -0.228 NA
HETATM   11  C   UNL     1       4.674  28.151  53.138  1.00  0.00     0.047 A 
HETATM   12  C   UNL     1       4.449  27.563  51.767  1.00  0.00     0.071 C 
ENDROOT
BRANCH   7  13
HETATM   13  C   UNL     1       4.565  32.812  58.436  1.00  0.00    -0.032 A 
HETATM   14  C   UNL     1       5.745  32.576  59.156  1.00  0.00     0.051 A 
HETATM   15  C   UNL     1       5.724  32.551  60.555  1.00  0.00     0.102 A 
HETATM   16  C   UNL     1       4.502  32.732  61.225  1.00  0.00     0.102 A 
HETATM   17  C   UNL     1       3.334  33.002  60.509  1.00  0.00     0.040 A 
HETATM   18  C   UNL     1       3.366  33.039  59.117  1.00  0.00     0.014 A 
BRANCH  15  19
HETATM   19  O   UNL     1       6.819  32.319  61.351  1.00  0.00    -0.353 OA
HETATM   20  C   UNL     1       8.095  32.564  60.771  1.00  0.00     0.210 C 
ENDBRANCH  15  19
BRANCH  16  21
HETATM   21  O   UNL     1       4.520  32.697  62.597  1.00  0.00    -0.339 OA
BRANCH  21  22
HETATM   22  C   UNL     1       4.510  33.991  63.204  1.00  0.00     0.278 C 
BRANCH  22  23
HETATM   23  C   UNL     1       3.614  33.968  64.438  1.00  0.00     0.239 C 
HETATM   24  N   UNL     1       2.289  34.201  64.202  1.00  0.00    -0.368 N 
HETATM   25  H   UNL     1       1.940  34.157  63.249  1.00  0.00     0.159 HD
HETATM   26  H   UNL     1       1.642  34.129  64.974  1.00  0.00     0.159 HD
HETATM   27  O   UNL     1       4.039  33.812  65.579  1.00  0.00    -0.271 OA
ENDBRANCH  22  23
ENDBRANCH  21  22
ENDBRANCH  16  21
ENDBRANCH   7  13
BRANCH   2  28
HETATM   28  C   UNL     1       6.487  27.792  56.207  1.00  0.00     0.011 A 
HETATM   29  S   UNL     1       7.873  28.636  55.639  1.00  0.00    -0.104 SA
HETATM   30  C   UNL     1       8.892  27.859  56.766  1.00  0.00     0.050 A 
HETATM   31  C   UNL     1       8.202  26.980  57.567  1.00  0.00     0.008 A 
HETATM   32  C   UNL     1       6.814  26.937  57.245  1.00  0.00     0.017 A 
ENDBRANCH   2  28
BRANCH   1  33
HETATM   33  C   UNL     1       5.216  25.963  54.129  1.00  0.00     0.256 C 
HETATM   34  N   UNL     1       6.527  25.621  54.390  1.00  0.00    -0.323 N 
HETATM   35  H   UNL     1       7.154  26.351  54.693  1.00  0.00     0.169 HD
HETATM   36  O   UNL     1       4.314  25.208  53.787  1.00  0.00    -0.267 OA
BRANCH  34  37
HETATM   37  C   UNL     1       7.124  24.341  54.242  1.00  0.00     0.041 A 
HETATM   38  C   UNL     1       7.681  23.990  52.991  1.00  0.00    -0.035 A 
HETATM   39  C   UNL     1       7.665  24.918  51.806  1.00  0.00     0.050 C 
HETATM   40  C   UNL     1       8.269  22.720  52.827  1.00  0.00     0.009 A 
HETATM   41  C   UNL     1       8.306  21.807  53.878  1.00  0.00     0.001 A 
HETATM   42  C   UNL     1       7.758  22.151  55.105  1.00  0.00     0.002 A 
HETATM   43  C   UNL     1       7.171  23.407  55.284  1.00  0.00     0.030 A 
ENDBRANCH  34  37
ENDBRANCH   1  33
TORSDOF 8
ENDMDL
MODEL 5
REMARK VINA RESULT:      -8.8      3.066      4.420
REMARK  8 active torsions:
REMARK  status: ('A' for Active; 'I' for Inactive)
REMARK    1  A    between atoms: C_3  and  N_4 
REMARK       I    between atoms: N_4  and  C_5 
REMARK    2  A    between atoms: C_5  and  C_6 
REMARK    3  A    between atoms: C_7  and  C_8 
REMARK    4  A    between atoms: C_17  and  C_18 
REMARK    5  A    between atoms: C_20  and  O_21 
REMARK    6  A    between atoms: C_23  and  O_24 
REMARK    7  A    between atoms: O_24  and  C_25 
REMARK    8  A    between atoms: C_25  and  C_26 
REMARK       I    between atoms: C_26  and  N_27 
ROOT
HETATM    1  C   UNL     1       4.866  26.866  52.731  1.00  0.00     0.062 A 
HETATM    2  C   UNL     1       4.684  27.956  53.757  1.00  0.00     0.176 A 
HETATM    3  N   UNL     1       4.592  29.256  53.110  1.00  0.00    -0.277 N 
HETATM    4  C   UNL     1       4.759  29.383  51.768  1.00  0.00     0.177 A 
HETATM    5  S   UNL     1       4.661  31.046  51.271  1.00  0.00    -0.046 SA
HETATM    6  C   UNL     1       4.198  31.561  52.855  1.00  0.00     0.077 C 
HETATM    7  C   UNL     1       3.922  32.841  53.142  1.00  0.00     0.036 C 
HETATM    8  C   UNL     1       4.147  30.377  53.771  1.00  0.00     0.267 C 
HETATM    9  O   UNL     1       3.706  30.398  54.910  1.00  0.00    -0.266 OA
HETATM   10  N   UNL     1       4.937  28.427  50.927  1.00  0.00    -0.228 NA
HETATM   11  C   UNL     1       4.977  27.140  51.415  1.00  0.00     0.047 A 
HETATM   12  C   UNL     1       5.145  26.096  50.338  1.00  0.00     0.071 C 
ENDROOT
BRANCH   7  13
HETATM   13  C   UNL     1       3.477  33.335  54.445  1.00  0.00    -0.032 A 
HETATM   14  C   UNL     1       2.112  33.523  54.705  1.00  0.00     0.051 A 
HETATM   15  C   UNL     1       1.692  34.006  55.949  1.00  0.00     0.102 A 
HETATM   16  C   UNL     1       2.655  34.330  56.919  1.00  0.00     0.102 A 
HETATM   17  C   UNL     1       4.012  34.110  56.673  1.00  0.00     0.040 A 
HETATM   18  C   UNL     1       4.421  33.615  55.436  1.00  0.00     0.014 A 
BRANCH  15  19
HETATM   19  O   UNL     1       0.383  34.234  56.299  1.00  0.00    -0.353 OA
HETATM   20  C   UNL     1      -0.496  34.642  55.258  1.00  0.00     0.210 C 
ENDBRANCH  15  19
BRANCH  16  21
HETATM   21  O   UNL     1       2.205  34.804  58.126  1.00  0.00    -0.339 OA
BRANCH  21  22
HETATM   22  C   UNL     1       3.143  34.644  59.192  1.00  0.00     0.278 C 
BRANCH  22  23
HETATM   23  C   UNL     1       2.725  33.468  60.066  1.00  0.00     0.239 C 
HETATM   24  N   UNL     1       2.253  33.798  61.304  1.00  0.00    -0.368 N 
HETATM   25  H   UNL     1       2.000  34.764  61.497  1.00  0.00     0.159 HD
HETATM   26  H   UNL     1       1.897  33.062  61.898  1.00  0.00     0.159 HD
HETATM   27  O   UNL     1       2.851  32.294  59.726  1.00  0.00    -0.271 OA
ENDBRANCH  22  23
ENDBRANCH  21  22
ENDBRANCH  16  21
ENDBRANCH   7  13
BRANCH   2  28
HETATM   28  C   UNL     1       5.791  28.007  54.794  1.00  0.00     0.011 A 
HETATM   29  S   UNL     1       7.411  28.303  54.301  1.00  0.00    -0.104 SA
HETATM   30  C   UNL     1       7.980  28.258  55.909  1.00  0.00     0.050 A 
HETATM   31  C   UNL     1       6.966  28.030  56.811  1.00  0.00     0.008 A 
HETATM   32  C   UNL     1       5.702  27.883  56.170  1.00  0.00     0.017 A 
ENDBRANCH   2  28
BRANCH   1  33
HETATM   33  C   UNL     1       5.125  25.481  53.228  1.00  0.00     0.256 C 
HETATM   34  N   UNL     1       6.460  25.179  53.398  1.00  0.00    -0.323 N 
HETATM   35  H   UNL     1       7.134  25.914  53.240  1.00  0.00     0.169 HD
HETATM   36  O   UNL     1       4.173  24.730  53.405  1.00  0.00    -0.267 OA
BRANCH  34  37
HETATM   37  C   UNL     1       7.017  23.918  53.737  1.00  0.00     0.041 A 
HETATM   38  C   UNL     1       7.105  23.555  55.100  1.00  0.00    -0.035 A 
HETATM   39  C   UNL     1       6.635  24.455  56.211  1.00  0.00     0.050 C 
HETATM   40  C   UNL     1       7.663  22.310  55.450  1.00  0.00     0.009 A 
HETATM   41  C   UNL     1       8.130  21.434  54.474  1.00  0.00     0.001 A 
HETATM   42  C   UNL     1       8.045  21.791  53.135  1.00  0.00     0.002 A 
HETATM   43  C   UNL     1       7.494  23.022  52.772  1.00  0.00     0.030 A 
ENDBRANCH  34  37
ENDBRANCH   1  33
TORSDOF 8
ENDMDL
MODEL 6
REMARK VINA RESULT:      -8.7      3.937      4.541
REMARK  8 active torsions:
REMARK  status: ('A' for Active; 'I' for Inactive)
REMARK    1  A    between atoms: C_3  and  N_4 
REMARK       I    between atoms: N_4  and  C_5 
REMARK    2  A    between atoms: C_5  and  C_6 
REMARK    3  A    between atoms: C_7  and  C_8 
REMARK    4  A    between atoms: C_17  and  C_18 
REMARK    5  A    between atoms: C_20  and  O_21 
REMARK    6  A    between atoms: C_23  and  O_24 
REMARK    7  A    between atoms: O_24  and  C_25 
REMARK    8  A    between atoms: C_25  and  C_26 
REMARK       I    between atoms: C_26  and  N_27 
ROOT
HETATM    1  C   UNL     1       5.355  26.215  54.388  1.00  0.00     0.062 A 
HETATM    2  C   UNL     1       5.253  27.587  55.004  1.00  0.00     0.176 A 
HETATM    3  N   UNL     1       4.899  28.574  53.995  1.00  0.00    -0.277 N 
HETATM    4  C   UNL     1       4.794  28.230  52.686  1.00  0.00     0.177 A 
HETATM    5  S   UNL     1       4.424  29.609  51.694  1.00  0.00    -0.046 SA
HETATM    6  C   UNL     1       4.214  30.628  53.075  1.00  0.00     0.077 C 
HETATM    7  C   UNL     1       3.860  31.917  52.970  1.00  0.00     0.036 C 
HETATM    8  C   UNL     1       4.467  29.839  54.322  1.00  0.00     0.267 C 
HETATM    9  O   UNL     1       4.249  30.240  55.455  1.00  0.00    -0.266 OA
HETATM   10  N   UNL     1       4.913  27.048  52.195  1.00  0.00    -0.228 NA
HETATM   11  C   UNL     1       5.185  26.015  53.064  1.00  0.00     0.047 A 
HETATM   12  C   UNL     1       5.260  24.667  52.390  1.00  0.00     0.071 C 
ENDROOT
BRANCH   7  13
HETATM   13  C   UNL     1       3.617  32.818  54.096  1.00  0.00    -0.032 A 
HETATM   14  C   UNL     1       4.651  33.621  54.599  1.00  0.00     0.051 A 
HETATM   15  C   UNL     1       4.417  34.473  55.684  1.00  0.00     0.102 A 
HETATM   16  C   UNL     1       3.144  34.491  56.279  1.00  0.00     0.102 A 
HETATM   17  C   UNL     1       2.105  33.718  55.756  1.00  0.00     0.040 A 
HETATM   18  C   UNL     1       2.343  32.881  54.667  1.00  0.00     0.014 A 
BRANCH  15  19
HETATM   19  O   UNL     1       5.361  35.290  56.257  1.00  0.00    -0.353 OA
HETATM   20  C   UNL     1       5.732  36.451  55.524  1.00  0.00     0.210 C 
ENDBRANCH  15  19
BRANCH  16  21
HETATM   21  O   UNL     1       2.953  35.337  57.343  1.00  0.00    -0.339 OA
BRANCH  21  22
HETATM   22  C   UNL     1       1.618  35.835  57.447  1.00  0.00     0.278 C 
BRANCH  22  23
HETATM   23  C   UNL     1       1.175  35.806  58.905  1.00  0.00     0.239 C 
HETATM   24  N   UNL     1       2.082  36.295  59.801  1.00  0.00    -0.368 N 
HETATM   25  H   UNL     1       2.873  36.836  59.461  1.00  0.00     0.159 HD
HETATM   26  H   UNL     1       1.813  36.363  60.773  1.00  0.00     0.159 HD
HETATM   27  O   UNL     1       0.109  35.325  59.278  1.00  0.00    -0.271 OA
ENDBRANCH  22  23
ENDBRANCH  21  22
ENDBRANCH  16  21
ENDBRANCH   7  13
BRANCH   2  28
HETATM   28  C   UNL     1       6.523  28.039  55.700  1.00  0.00     0.011 A 
HETATM   29  S   UNL     1       7.935  28.366  54.776  1.00  0.00    -0.104 SA
HETATM   30  C   UNL     1       8.820  28.821  56.162  1.00  0.00     0.050 A 
HETATM   31  C   UNL     1       8.064  28.737  57.309  1.00  0.00     0.008 A 
HETATM   32  C   UNL     1       6.739  28.283  57.046  1.00  0.00     0.017 A 
ENDBRANCH   2  28
BRANCH   1  33
HETATM   33  C   UNL     1       5.853  25.102  55.251  1.00  0.00     0.256 C 
HETATM   34  N   UNL     1       6.965  24.453  54.755  1.00  0.00    -0.323 N 
HETATM   35  H   UNL     1       7.380  24.809  53.908  1.00  0.00     0.169 HD
HETATM   36  O   UNL     1       5.240  24.831  56.277  1.00  0.00    -0.267 OA
BRANCH  34  37
HETATM   37  C   UNL     1       7.585  23.290  55.285  1.00  0.00     0.041 A 
HETATM   38  C   UNL     1       8.037  22.292  54.392  1.00  0.00    -0.035 A 
HETATM   39  C   UNL     1       7.885  22.409  52.899  1.00  0.00     0.050 C 
HETATM   40  C   UNL     1       8.646  21.129  54.904  1.00  0.00     0.009 A 
HETATM   41  C   UNL     1       8.807  20.950  56.276  1.00  0.00     0.001 A 
HETATM   42  C   UNL     1       8.361  21.929  57.152  1.00  0.00     0.002 A 
HETATM   43  C   UNL     1       7.755  23.088  56.660  1.00  0.00     0.030 A 
ENDBRANCH  34  37
ENDBRANCH   1  33
TORSDOF 8
ENDMDL
MODEL 7
REMARK VINA RESULT:      -8.5      1.951      2.440
REMARK  8 active torsions:
REMARK  status: ('A' for Active; 'I' for Inactive)
REMARK    1  A    between atoms: C_3  and  N_4 
REMARK       I    between atoms: N_4  and  C_5 
REMARK    2  A    between atoms: C_5  and  C_6 
REMARK    3  A    between atoms: C_7  and  C_8 
REMARK    4  A    between atoms: C_17  and  C_18 
REMARK    5  A    between atoms: C_20  and  O_21 
REMARK    6  A    between atoms: C_23  and  O_24 
REMARK    7  A    between atoms: O_24  and  C_25 
REMARK    8  A    between atoms: C_25  and  C_26 
REMARK       I    between atoms: C_26  and  N_27 
ROOT
HETATM    1  C   UNL     1       5.262  26.922  54.441  1.00  0.00     0.062 A 
HETATM    2  C   UNL     1       5.310  28.014  55.479  1.00  0.00     0.176 A 
HETATM    3  N   UNL     1       4.896  29.284  54.903  1.00  0.00    -0.277 N 
HETATM    4  C   UNL     1       4.617  29.394  53.579  1.00  0.00     0.177 A 
HETATM    5  S   UNL     1       4.211  31.029  53.149  1.00  0.00    -0.046 SA
HETATM    6  C   UNL     1       4.224  31.536  54.802  1.00  0.00     0.077 C 
HETATM    7  C   UNL     1       3.934  32.792  55.171  1.00  0.00     0.036 C 
HETATM    8  C   UNL     1       4.578  30.375  55.678  1.00  0.00     0.267 C 
HETATM    9  O   UNL     1       4.519  30.381  56.899  1.00  0.00    -0.266 OA
HETATM   10  N   UNL     1       4.611  28.440  52.717  1.00  0.00    -0.228 NA
HETATM   11  C   UNL     1       4.925  27.174  53.158  1.00  0.00     0.047 A 
HETATM   12  C   UNL     1       4.843  26.125  52.077  1.00  0.00     0.071 C 
ENDROOT
BRANCH   7  13
HETATM   13  C   UNL     1       3.878  33.273  56.551  1.00  0.00    -0.032 A 
HETATM   14  C   UNL     1       4.886  32.933  57.463  1.00  0.00     0.051 A 
HETATM   15  C   UNL     1       4.822  33.387  58.786  1.00  0.00     0.102 A 
HETATM   16  C   UNL     1       3.720  34.158  59.193  1.00  0.00     0.102 A 
HETATM   17  C   UNL     1       2.733  34.525  58.275  1.00  0.00     0.040 A 
HETATM   18  C   UNL     1       2.812  34.081  56.957  1.00  0.00     0.014 A 
BRANCH  15  19
HETATM   19  O   UNL     1       5.751  33.103  59.757  1.00  0.00    -0.353 OA
HETATM   20  C   UNL     1       6.647  32.030  59.492  1.00  0.00     0.210 C 
ENDBRANCH  15  19
BRANCH  16  21
HETATM   21  O   UNL     1       3.690  34.582  60.498  1.00  0.00    -0.339 OA
BRANCH  21  22
HETATM   22  C   UNL     1       2.611  34.031  61.256  1.00  0.00     0.278 C 
BRANCH  22  23
HETATM   23  C   UNL     1       3.168  33.165  62.381  1.00  0.00     0.239 C 
HETATM   24  N   UNL     1       3.551  31.907  62.015  1.00  0.00    -0.368 N 
HETATM   25  H   UNL     1       3.657  31.688  61.028  1.00  0.00     0.159 HD
HETATM   26  H   UNL     1       3.991  31.316  62.706  1.00  0.00     0.159 HD
HETATM   27  O   UNL     1       3.222  33.531  63.551  1.00  0.00    -0.271 OA
ENDBRANCH  22  23
ENDBRANCH  21  22
ENDBRANCH  16  21
ENDBRANCH   7  13
BRANCH   2  28
HETATM   28  C   UNL     1       6.678  28.191  56.112  1.00  0.00     0.011 A 
HETATM   29  S   UNL     1       8.001  28.725  55.154  1.00  0.00    -0.104 SA
HETATM   30  C   UNL     1       9.061  28.716  56.491  1.00  0.00     0.050 A 
HETATM   31  C   UNL     1       8.430  28.323  57.649  1.00  0.00     0.008 A 
HETATM   32  C   UNL     1       7.055  28.017  57.433  1.00  0.00     0.017 A 
ENDBRANCH   2  28
BRANCH   1  33
HETATM   33  C   UNL     1       5.794  25.578  54.820  1.00  0.00     0.256 C 
HETATM   34  N   UNL     1       6.948  25.217  54.155  1.00  0.00    -0.323 N 
HETATM   35  H   UNL     1       7.365  25.892  53.532  1.00  0.00     0.169 HD
HETATM   36  O   UNL     1       5.172  24.905  55.633  1.00  0.00    -0.267 OA
BRANCH  34  37
HETATM   37  C   UNL     1       7.613  23.963  54.213  1.00  0.00     0.041 A 
HETATM   38  C   UNL     1       8.430  23.676  55.331  1.00  0.00    -0.035 A 
HETATM   39  C   UNL     1       8.627  24.648  56.463  1.00  0.00     0.050 C 
HETATM   40  C   UNL     1       9.102  22.440  55.397  1.00  0.00     0.009 A 
HETATM   41  C   UNL     1       8.975  21.500  54.377  1.00  0.00     0.001 A 
HETATM   42  C   UNL     1       8.174  21.782  53.280  1.00  0.00     0.002 A 
HETATM   43  C   UNL     1       7.500  23.004  53.200  1.00  0.00     0.030 A 
ENDBRANCH  34  37
ENDBRANCH   1  33
TORSDOF 8
ENDMDL
MODEL 8
REMARK VINA RESULT:      -8.2      2.093      2.806
REMARK  8 active torsions:
REMARK  status: ('A' for Active; 'I' for Inactive)
REMARK    1  A    between atoms: C_3  and  N_4 
REMARK       I    between atoms: N_4  and  C_5 
REMARK    2  A    between atoms: C_5  and  C_6 
REMARK    3  A    between atoms: C_7  and  C_8 
REMARK    4  A    between atoms: C_17  and  C_18 
REMARK    5  A    between atoms: C_20  and  O_21 
REMARK    6  A    between atoms: C_23  and  O_24 
REMARK    7  A    between atoms: O_24  and  C_25 
REMARK    8  A    between atoms: C_25  and  C_26 
REMARK       I    between atoms: C_26  and  N_27 
ROOT
HETATM    1  C   UNL     1       5.038  27.415  55.232  1.00  0.00     0.062 A 
HETATM    2  C   UNL     1       5.258  28.377  56.371  1.00  0.00     0.176 A 
HETATM    3  N   UNL     1       4.726  29.690  56.040  1.00  0.00    -0.277 N 
HETATM    4  C   UNL     1       4.209  29.946  54.810  1.00  0.00     0.177 A 
HETATM    5  S   UNL     1       3.706  31.603  54.665  1.00  0.00    -0.046 SA
HETATM    6  C   UNL     1       4.012  31.912  56.338  1.00  0.00     0.077 C 
HETATM    7  C   UNL     1       3.774  33.103  56.904  1.00  0.00     0.036 C 
HETATM    8  C   UNL     1       4.537  30.669  56.988  1.00  0.00     0.267 C 
HETATM    9  O   UNL     1       4.701  30.529  58.190  1.00  0.00    -0.266 OA
HETATM   10  N   UNL     1       4.061  29.100  53.853  1.00  0.00    -0.228 NA
HETATM   11  C   UNL     1       4.470  27.804  54.072  1.00  0.00     0.047 A 
HETATM   12  C   UNL     1       4.208  26.887  52.902  1.00  0.00     0.071 C 
ENDROOT
BRANCH   7  13
HETATM   13  C   UNL     1       3.962  33.415  58.321  1.00  0.00    -0.032 A 
HETATM   14  C   UNL     1       2.865  33.756  59.125  1.00  0.00     0.051 A 
HETATM   15  C   UNL     1       3.052  34.065  60.477  1.00  0.00     0.102 A 
HETATM   16  C   UNL     1       4.353  34.060  61.008  1.00  0.00     0.102 A 
HETATM   17  C   UNL     1       5.441  33.687  60.215  1.00  0.00     0.040 A 
HETATM   18  C   UNL     1       5.245  33.368  58.873  1.00  0.00     0.014 A 
BRANCH  15  19
HETATM   19  O   UNL     1       2.049  34.420  61.346  1.00  0.00    -0.353 OA
HETATM   20  C   UNL     1       0.780  34.710  60.772  1.00  0.00     0.210 C 
ENDBRANCH  15  19
BRANCH  16  21
HETATM   21  O   UNL     1       4.498  34.371  62.336  1.00  0.00    -0.339 OA
BRANCH  21  22
HETATM   22  C   UNL     1       5.229  35.577  62.568  1.00  0.00     0.278 C 
BRANCH  22  23
HETATM   23  C   UNL     1       4.496  36.429  63.597  1.00  0.00     0.239 C 
HETATM   24  N   UNL     1       3.159  36.597  63.372  1.00  0.00    -0.368 N 
HETATM   25  H   UNL     1       2.691  35.998  62.697  1.00  0.00     0.159 HD
HETATM   26  H   UNL     1       2.612  37.094  64.060  1.00  0.00     0.159 HD
HETATM   27  O   UNL     1       5.057  36.985  64.537  1.00  0.00    -0.271 OA
ENDBRANCH  22  23
ENDBRANCH  21  22
ENDBRANCH  16  21
ENDBRANCH   7  13
BRANCH   2  28
HETATM   28  C   UNL     1       6.715  28.530  56.767  1.00  0.00     0.011 A 
HETATM   29  S   UNL     1       7.854  29.122  55.624  1.00  0.00    -0.104 SA
HETATM   30  C   UNL     1       9.129  29.049  56.756  1.00  0.00     0.050 A 
HETATM   31  C   UNL     1       8.707  28.592  57.982  1.00  0.00     0.008 A 
HETATM   32  C   UNL     1       7.314  28.289  57.992  1.00  0.00     0.017 A 
ENDBRANCH   2  28
BRANCH   1  33
HETATM   33  C   UNL     1       5.651  26.057  55.342  1.00  0.00     0.256 C 
HETATM   34  N   UNL     1       6.709  25.841  54.484  1.00  0.00    -0.323 N 
HETATM   35  H   UNL     1       7.018  26.612  53.912  1.00  0.00     0.169 HD
HETATM   36  O   UNL     1       5.167  25.251  56.128  1.00  0.00    -0.267 OA
BRANCH  34  37
HETATM   37  C   UNL     1       7.407  24.621  54.273  1.00  0.00     0.041 A 
HETATM   38  C   UNL     1       7.640  24.189  52.947  1.00  0.00    -0.035 A 
HETATM   39  C   UNL     1       7.175  24.968  51.747  1.00  0.00     0.050 C 
HETATM   40  C   UNL     1       8.323  22.977  52.725  1.00  0.00     0.009 A 
HETATM   41  C   UNL     1       8.769  22.200  53.791  1.00  0.00     0.001 A 
HETATM   42  C   UNL     1       8.539  22.624  55.092  1.00  0.00     0.002 A 
HETATM   43  C   UNL     1       7.863  23.823  55.330  1.00  0.00     0.030 A 
ENDBRANCH  34  37
ENDBRANCH   1  33
TORSDOF 8
ENDMDL
MODEL 9
REMARK VINA RESULT:      -8.2      3.966      4.780
REMARK  8 active torsions:
REMARK  status: ('A' for Active; 'I' for Inactive)
REMARK    1  A    between atoms: C_3  and  N_4 
REMARK       I    between atoms: N_4  and  C_5 
REMARK    2  A    between atoms: C_5  and  C_6 
REMARK    3  A    between atoms: C_7  and  C_8 
REMARK    4  A    between atoms: C_17  and  C_18 
REMARK    5  A    between atoms: C_20  and  O_21 
REMARK    6  A    between atoms: C_23  and  O_24 
REMARK    7  A    between atoms: O_24  and  C_25 
REMARK    8  A    between atoms: C_25  and  C_26 
REMARK       I    between atoms: C_26  and  N_27 
ROOT
HETATM    1  C   UNL     1       5.208  26.589  54.486  1.00  0.00     0.062 A 
HETATM    2  C   UNL     1       5.210  27.958  55.118  1.00  0.00     0.176 A 
HETATM    3  N   UNL     1       4.802  28.966  54.151  1.00  0.00    -0.277 N 
HETATM    4  C   UNL     1       4.568  28.638  52.854  1.00  0.00     0.177 A 
HETATM    5  S   UNL     1       4.160  30.038  51.908  1.00  0.00    -0.046 SA
HETATM    6  C   UNL     1       4.111  31.051  53.308  1.00  0.00     0.077 C 
HETATM    7  C   UNL     1       3.795  32.352  53.243  1.00  0.00     0.036 C 
HETATM    8  C   UNL     1       4.446  30.242  54.523  1.00  0.00     0.267 C 
HETATM    9  O   UNL     1       4.345  30.640  55.673  1.00  0.00    -0.266 OA
HETATM   10  N   UNL     1       4.601  27.456  52.347  1.00  0.00    -0.228 NA
HETATM   11  C   UNL     1       4.913  26.407  53.182  1.00  0.00     0.047 A 
HETATM   12  C   UNL     1       4.879  25.064  52.495  1.00  0.00     0.071 C 
ENDROOT
BRANCH   7  13
HETATM   13  C   UNL     1       3.686  33.251  54.392  1.00  0.00    -0.032 A 
HETATM   14  C   UNL     1       2.440  33.494  54.988  1.00  0.00     0.051 A 
HETATM   15  C   UNL     1       2.340  34.364  56.080  1.00  0.00     0.102 A 
HETATM   16  C   UNL     1       3.495  35.012  56.548  1.00  0.00     0.102 A 
HETATM   17  C   UNL     1       4.741  34.743  55.977  1.00  0.00     0.040 A 
HETATM   18  C   UNL     1       4.834  33.865  54.899  1.00  0.00     0.014 A 
BRANCH  15  19
HETATM   19  O   UNL     1       1.169  34.676  56.727  1.00  0.00    -0.353 OA
HETATM   20  C   UNL     1       0.050  34.993  55.908  1.00  0.00     0.210 C 
ENDBRANCH  15  19
BRANCH  16  21
HETATM   21  O   UNL     1       3.357  35.860  57.618  1.00  0.00    -0.339 OA
BRANCH  21  22
HETATM   22  C   UNL     1       4.452  36.763  57.781  1.00  0.00     0.278 C 
BRANCH  22  23
HETATM   23  C   UNL     1       3.944  38.198  57.712  1.00  0.00     0.239 C 
HETATM   24  N   UNL     1       4.584  39.085  58.530  1.00  0.00    -0.368 N 
HETATM   25  H   UNL     1       5.468  38.818  58.956  1.00  0.00     0.159 HD
HETATM   26  H   UNL     1       4.334  40.062  58.472  1.00  0.00     0.159 HD
HETATM   27  O   UNL     1       2.989  38.545  57.022  1.00  0.00    -0.271 OA
ENDBRANCH  22  23
ENDBRANCH  21  22
ENDBRANCH  16  21
ENDBRANCH   7  13
BRANCH   2  28
HETATM   28  C   UNL     1       6.553  28.359  55.700  1.00  0.00     0.011 A 
HETATM   29  S   UNL     1       6.743  28.483  57.403  1.00  0.00    -0.104 SA
HETATM   30  C   UNL     1       8.394  28.892  57.257  1.00  0.00     0.050 A 
HETATM   31  C   UNL     1       8.803  28.929  55.944  1.00  0.00     0.008 A 
HETATM   32  C   UNL     1       7.742  28.623  55.042  1.00  0.00     0.017 A 
ENDBRANCH   2  28
BRANCH   1  33
HETATM   33  C   UNL     1       5.741  25.451  55.294  1.00  0.00     0.256 C 
HETATM   34  N   UNL     1       6.883  24.874  54.778  1.00  0.00    -0.323 N 
HETATM   35  H   UNL     1       7.293  25.293  53.957  1.00  0.00     0.169 HD
HETATM   36  O   UNL     1       5.130  25.100  56.297  1.00  0.00    -0.267 OA
BRANCH  34  37
HETATM   37  C   UNL     1       7.544  23.710  55.252  1.00  0.00     0.041 A 
HETATM   38  C   UNL     1       7.962  22.735  54.317  1.00  0.00    -0.035 A 
HETATM   39  C   UNL     1       7.731  22.878  52.837  1.00  0.00     0.050 C 
HETATM   40  C   UNL     1       8.611  21.571  54.775  1.00  0.00     0.009 A 
HETATM   41  C   UNL     1       8.844  21.368  56.132  1.00  0.00     0.001 A 
HETATM   42  C   UNL     1       8.434  22.325  57.050  1.00  0.00     0.002 A 
HETATM   43  C   UNL     1       7.789  23.484  56.612  1.00  0.00     0.030 A 
ENDBRANCH  34  37
ENDBRANCH   1  33
TORSDOF 8
ENDMDL
MODEL 10
REMARK VINA RESULT:      -7.8      3.472      4.126
REMARK  8 active torsions:
REMARK  status: ('A' for Active; 'I' for Inactive)
REMARK    1  A    between atoms: C_3  and  N_4 
REMARK       I    between atoms: N_4  and  C_5 
REMARK    2  A    between atoms: C_5  and  C_6 
REMARK    3  A    between atoms: C_7  and  C_8 
REMARK    4  A    between atoms: C_17  and  C_18 
REMARK    5  A    between atoms: C_20  and  O_21 
REMARK    6  A    between atoms: C_23  and  O_24 
REMARK    7  A    between atoms: O_24  and  C_25 
REMARK    8  A    between atoms: C_25  and  C_26 
REMARK       I    between atoms: C_26  and  N_27 
ROOT
HETATM    1  C   UNL     1       5.246  26.989  54.090  1.00  0.00     0.062 A 
HETATM    2  C   UNL     1       5.228  28.209  54.974  1.00  0.00     0.176 A 
HETATM    3  N   UNL     1       4.849  29.388  54.210  1.00  0.00    -0.277 N 
HETATM    4  C   UNL     1       4.654  29.319  52.868  1.00  0.00     0.177 A 
HETATM    5  S   UNL     1       4.273  30.878  52.201  1.00  0.00    -0.046 SA
HETATM    6  C   UNL     1       4.183  31.600  53.769  1.00  0.00     0.077 C 
HETATM    7  C   UNL     1       3.868  32.891  53.949  1.00  0.00     0.036 C 
HETATM    8  C   UNL     1       4.482  30.569  54.813  1.00  0.00     0.267 C 
HETATM    9  O   UNL     1       4.347  30.737  56.015  1.00  0.00    -0.266 OA
HETATM   10  N   UNL     1       4.702  28.258  52.143  1.00  0.00    -0.228 NA
HETATM   11  C   UNL     1       4.989  27.065  52.767  1.00  0.00     0.047 A 
HETATM   12  C   UNL     1       4.976  25.881  51.832  1.00  0.00     0.071 C 
ENDROOT
BRANCH   7  13
HETATM   13  C   UNL     1       3.725  33.551  55.247  1.00  0.00    -0.032 A 
HETATM   14  C   UNL     1       2.453  33.812  55.775  1.00  0.00     0.051 A 
HETATM   15  C   UNL     1       2.322  34.453  57.012  1.00  0.00     0.102 A 
HETATM   16  C   UNL     1       3.478  34.859  57.700  1.00  0.00     0.102 A 
HETATM   17  C   UNL     1       4.745  34.567  57.190  1.00  0.00     0.040 A 
HETATM   18  C   UNL     1       4.868  33.916  55.964  1.00  0.00     0.014 A 
BRANCH  15  19
HETATM   19  O   UNL     1       1.125  34.763  57.610  1.00  0.00    -0.353 OA
HETATM   20  C   UNL     1       0.054  35.127  56.748  1.00  0.00     0.210 C 
ENDBRANCH  15  19
BRANCH  16  21
HETATM   21  O   UNL     1       3.309  35.488  58.908  1.00  0.00    -0.339 OA
BRANCH  21  22
HETATM   22  C   UNL     1       3.839  36.814  58.943  1.00  0.00     0.278 C 
BRANCH  22  23
HETATM   23  C   UNL     1       2.744  37.789  59.360  1.00  0.00     0.239 C 
HETATM   24  N   UNL     1       3.181  38.949  59.934  1.00  0.00    -0.368 N 
HETATM   25  H   UNL     1       4.162  39.200  59.857  1.00  0.00     0.159 HD
HETATM   26  H   UNL     1       2.500  39.659  60.165  1.00  0.00     0.159 HD
HETATM   27  O   UNL     1       1.545  37.545  59.253  1.00  0.00    -0.271 OA
ENDBRANCH  22  23
ENDBRANCH  21  22
ENDBRANCH  16  21
ENDBRANCH   7  13
BRANCH   2  28
HETATM   28  C   UNL     1       6.554  28.482  55.662  1.00  0.00     0.011 A 
HETATM   29  S   UNL     1       6.671  28.359  57.372  1.00  0.00    -0.104 SA
HETATM   30  C   UNL     1       8.336  28.733  57.352  1.00  0.00     0.050 A 
HETATM   31  C   UNL     1       8.804  28.941  56.076  1.00  0.00     0.008 A 
HETATM   32  C   UNL     1       7.777  28.799  55.098  1.00  0.00     0.017 A 
ENDBRANCH   2  28
BRANCH   1  33
HETATM   33  C   UNL     1       5.755  25.713  54.676  1.00  0.00     0.256 C 
HETATM   34  N   UNL     1       6.948  25.277  54.138  1.00  0.00    -0.323 N 
HETATM   35  H   UNL     1       7.402  25.867  53.458  1.00  0.00     0.169 HD
HETATM   36  O   UNL     1       5.085  25.147  55.532  1.00  0.00    -0.267 OA
BRANCH  34  37
HETATM   37  C   UNL     1       7.610  24.049  54.404  1.00  0.00     0.041 A 
HETATM   38  C   UNL     1       8.309  23.900  55.624  1.00  0.00    -0.035 A 
HETATM   39  C   UNL     1       8.383  24.994  56.654  1.00  0.00     0.050 C 
HETATM   40  C   UNL     1       8.976  22.690  55.895  1.00  0.00     0.009 A 
HETATM   41  C   UNL     1       8.960  21.641  54.979  1.00  0.00     0.001 A 
HETATM   42  C   UNL     1       8.275  21.787  53.781  1.00  0.00     0.002 A 
HETATM   43  C   UNL     1       7.607  22.981  53.497  1.00  0.00     0.030 A 
ENDBRANCH  34  37
ENDBRANCH   1  33
TORSDOF 8
ENDMDL
