MODEL 1
REMARK VINA RESULT:      -9.5      0.000      0.000
REMARK  11 active torsions:
REMARK  status: ('A' for Active; 'I' for Inactive)
REMARK    1  A    between atoms: C_4  and  C_5 
REMARK    2  A    between atoms: C_7  and  O_8 
REMARK    3  A    between atoms: C_10  and  O_11 
REMARK    4  A    between atoms: C_16  and  C_17 
REMARK    5  A    between atoms: C_20  and  C_21 
REMARK    6  A    between atoms: C_21  and  N_22 
REMARK    7  A    between atoms: N_22  and  C_23 
REMARK    8  A    between atoms: C_23  and  N_24 
REMARK    9  A    between atoms: N_24  and  C_25 
REMARK   10  A    between atoms: C_27  and  O_28 
REMARK   11  A    between atoms: C_31  and  O_32 
ROOT
HETATM    1  C   UNL     1       4.128  28.978  55.986  1.00  0.00     0.067 C 
HETATM    2  C   UNL     1       4.261  30.486  55.694  1.00  0.00     0.001 C 
HETATM    3  C   UNL     1       5.688  30.987  56.012  1.00  0.00     0.040 C 
HETATM    4  C   UNL     1       5.992  30.877  57.516  1.00  0.00     0.206 C 
HETATM    5  N   UNL     1       4.880  30.025  58.133  1.00  0.00    -0.065 N 
HETATM    6  H   UNL     1       5.120  29.835  59.118  1.00  0.00     0.280 HD
HETATM    7  C   UNL     1       4.698  28.700  57.403  1.00  0.00     0.246 C 
HETATM    8  C   UNL     1       3.299  31.221  56.665  1.00  0.00     0.033 C 
HETATM    9  C   UNL     1       3.580  30.812  58.116  1.00  0.00     0.236 C 
ENDROOT
BRANCH   4  10
HETATM   10  C   UNL     1       7.391  30.299  57.826  1.00  0.00     0.155 C 
BRANCH  10  11
HETATM   11  N   UNL     1       7.631  30.062  59.244  1.00  0.00    -0.365 N 
HETATM   12  H   UNL     1       7.474  29.122  59.596  1.00  0.00     0.161 HD
BRANCH  11  13
HETATM   13  C   UNL     1       8.100  30.954  60.165  1.00  0.00     0.172 C 
HETATM   14  S   UNL     1       9.498  31.853  59.988  1.00  0.00    -0.041 SA
BRANCH  13  15
HETATM   15  N   UNL     1       7.410  31.054  61.339  1.00  0.00    -0.333 N 
HETATM   16  H   UNL     1       7.734  30.406  62.053  1.00  0.00     0.168 HD
BRANCH  15  17
HETATM   17  C   UNL     1       6.453  31.998  61.779  1.00  0.00     0.039 A 
HETATM   18  C   UNL     1       5.952  32.040  63.083  1.00  0.00     0.066 A 
HETATM   19  C   UNL     1       5.007  32.998  63.462  1.00  0.00     0.073 A 
HETATM   20  C   UNL     1       4.536  33.904  62.516  1.00  0.00     0.073 A 
HETATM   21  C   UNL     1       4.985  33.842  61.193  1.00  0.00     0.073 A 
HETATM   22  C   UNL     1       5.941  32.890  60.828  1.00  0.00     0.066 A 
BRANCH  19  23
HETATM   23  O   UNL     1       4.632  32.933  64.777  1.00  0.00    -0.356 OA
HETATM   24  C   UNL     1       5.283  33.829  65.672  1.00  0.00     0.210 C 
ENDBRANCH  19  23
BRANCH  21  25
HETATM   25  O   UNL     1       4.423  34.773  60.364  1.00  0.00    -0.356 OA
HETATM   26  C   UNL     1       4.144  34.372  59.028  1.00  0.00     0.210 C 
ENDBRANCH  21  25
ENDBRANCH  15  17
ENDBRANCH  13  15
ENDBRANCH  11  13
ENDBRANCH  10  11
ENDBRANCH   4  10
BRANCH   1  27
HETATM   27  C   UNL     1       4.619  27.947  55.001  1.00  0.00     0.038 C 
HETATM   28  N   UNL     1       4.396  27.785  53.650  1.00  0.00    -0.277 N 
HETATM   29  C   UNL     1       3.491  28.438  52.734  1.00  0.00     0.179 C 
HETATM   30  N   UNL     1       5.173  26.835  53.103  1.00  0.00    -0.172 NA
HETATM   31  C   UNL     1       5.740  26.192  54.127  1.00  0.00     0.089 C 
HETATM   32  C   UNL     1       5.431  26.865  55.331  1.00  0.00     0.061 C 
BRANCH  31  33
HETATM   33  C   UNL     1       6.564  24.999  53.937  1.00  0.00    -0.003 A 
HETATM   34  C   UNL     1       6.771  24.104  54.997  1.00  0.00     0.053 A 
HETATM   35  C   UNL     1       7.556  22.957  54.827  1.00  0.00     0.102 A 
HETATM   36  C   UNL     1       8.160  22.704  53.579  1.00  0.00     0.101 A 
HETATM   37  C   UNL     1       7.960  23.598  52.523  1.00  0.00     0.040 A 
HETATM   38  C   UNL     1       7.166  24.736  52.701  1.00  0.00     0.017 A 
BRANCH  35  39
HETATM   39  O   UNL     1       7.795  22.027  55.808  1.00  0.00    -0.353 OA
HETATM   40  C   UNL     1       8.377  22.479  57.023  1.00  0.00     0.210 C 
ENDBRANCH  35  39
BRANCH  36  41
HETATM   41  O   UNL     1       8.914  21.561  53.491  1.00  0.00    -0.353 OA
HETATM   42  C   UNL     1       8.343  20.441  52.830  1.00  0.00     0.210 C 
ENDBRANCH  36  41
ENDBRANCH  31  33
ENDBRANCH   1  27
TORSDOF 11
ENDMDL
MODEL 2
REMARK VINA RESULT:      -9.5      0.185      2.011
REMARK  11 active torsions:
REMARK  status: ('A' for Active; 'I' for Inactive)
REMARK    1  A    between atoms: C_4  and  C_5 
REMARK    2  A    between atoms: C_7  and  O_8 
REMARK    3  A    between atoms: C_10  and  O_11 
REMARK    4  A    between atoms: C_16  and  C_17 
REMARK    5  A    between atoms: C_20  and  C_21 
REMARK    6  A    between atoms: C_21  and  N_22 
REMARK    7  A    between atoms: N_22  and  C_23 
REMARK    8  A    between atoms: C_23  and  N_24 
REMARK    9  A    between atoms: N_24  and  C_25 
REMARK   10  A    between atoms: C_27  and  O_28 
REMARK   11  A    between atoms: C_31  and  O_32 
ROOT
HETATM    1  C   UNL     1       4.145  28.951  56.002  1.00  0.00     0.067 C 
HETATM    2  C   UNL     1       4.277  30.458  55.702  1.00  0.00     0.001 C 
HETATM    3  C   UNL     1       5.707  30.959  56.006  1.00  0.00     0.040 C 
HETATM    4  C   UNL     1       6.023  30.856  57.509  1.00  0.00     0.206 C 
HETATM    5  N   UNL     1       4.915  30.008  58.139  1.00  0.00    -0.065 N 
HETATM    6  H   UNL     1       5.162  29.823  59.122  1.00  0.00     0.280 HD
HETATM    7  C   UNL     1       4.726  28.679  57.417  1.00  0.00     0.246 C 
HETATM    8  C   UNL     1       3.324  31.197  56.677  1.00  0.00     0.033 C 
HETATM    9  C   UNL     1       3.616  30.796  58.127  1.00  0.00     0.236 C 
ENDROOT
BRANCH   4  10
HETATM   10  C   UNL     1       7.424  30.278  57.810  1.00  0.00     0.155 C 
BRANCH  10  11
HETATM   11  N   UNL     1       7.678  30.056  59.228  1.00  0.00    -0.365 N 
HETATM   12  H   UNL     1       7.598  29.105  59.575  1.00  0.00     0.161 HD
BRANCH  11  13
HETATM   13  C   UNL     1       8.068  30.980  60.155  1.00  0.00     0.172 C 
HETATM   14  S   UNL     1       9.430  31.939  60.022  1.00  0.00    -0.041 SA
BRANCH  13  15
HETATM   15  N   UNL     1       7.327  31.062  61.298  1.00  0.00    -0.333 N 
HETATM   16  H   UNL     1       7.607  30.390  62.009  1.00  0.00     0.168 HD
BRANCH  15  17
HETATM   17  C   UNL     1       6.368  32.012  61.720  1.00  0.00     0.039 A 
HETATM   18  C   UNL     1       5.837  32.999  60.886  1.00  0.00     0.066 A 
HETATM   19  C   UNL     1       4.890  33.911  61.358  1.00  0.00     0.073 A 
HETATM   20  C   UNL     1       4.493  33.854  62.691  1.00  0.00     0.073 A 
HETATM   21  C   UNL     1       5.054  32.909  63.556  1.00  0.00     0.073 A 
HETATM   22  C   UNL     1       5.989  31.992  63.069  1.00  0.00     0.066 A 
BRANCH  19  23
HETATM   23  O   UNL     1       4.441  34.799  60.418  1.00  0.00    -0.356 OA
HETATM   24  C   UNL     1       3.479  34.314  59.488  1.00  0.00     0.210 C 
ENDBRANCH  19  23
BRANCH  21  25
HETATM   25  O   UNL     1       4.593  32.979  64.842  1.00  0.00    -0.356 OA
HETATM   26  C   UNL     1       5.253  33.882  65.721  1.00  0.00     0.210 C 
ENDBRANCH  21  25
ENDBRANCH  15  17
ENDBRANCH  13  15
ENDBRANCH  11  13
ENDBRANCH  10  11
ENDBRANCH   4  10
BRANCH   1  27
HETATM   27  C   UNL     1       4.629  27.914  55.019  1.00  0.00     0.038 C 
HETATM   28  N   UNL     1       4.395  27.746  53.670  1.00  0.00    -0.277 N 
HETATM   29  C   UNL     1       3.483  28.395  52.759  1.00  0.00     0.179 C 
HETATM   30  N   UNL     1       5.167  26.793  53.123  1.00  0.00    -0.172 NA
HETATM   31  C   UNL     1       5.742  26.155  54.146  1.00  0.00     0.089 C 
HETATM   32  C   UNL     1       5.442  26.834  55.348  1.00  0.00     0.061 C 
BRANCH  31  33
HETATM   33  C   UNL     1       6.563  24.960  53.955  1.00  0.00    -0.003 A 
HETATM   34  C   UNL     1       6.943  24.177  55.055  1.00  0.00     0.053 A 
HETATM   35  C   UNL     1       7.728  23.030  54.885  1.00  0.00     0.102 A 
HETATM   36  C   UNL     1       8.155  22.662  53.594  1.00  0.00     0.101 A 
HETATM   37  C   UNL     1       7.782  23.444  52.497  1.00  0.00     0.040 A 
HETATM   38  C   UNL     1       6.990  24.583  52.676  1.00  0.00     0.017 A 
BRANCH  35  39
HETATM   39  O   UNL     1       8.130  22.206  55.907  1.00  0.00    -0.353 OA
HETATM   40  C   UNL     1       8.384  22.796  57.174  1.00  0.00     0.210 C 
ENDBRANCH  35  39
BRANCH  36  41
HETATM   41  O   UNL     1       8.920  21.527  53.510  1.00  0.00    -0.353 OA
HETATM   42  C   UNL     1       8.347  20.388  52.884  1.00  0.00     0.210 C 
ENDBRANCH  36  41
ENDBRANCH  31  33
ENDBRANCH   1  27
TORSDOF 11
ENDMDL
MODEL 3
REMARK VINA RESULT:      -8.9      3.840      5.927
REMARK  11 active torsions:
REMARK  status: ('A' for Active; 'I' for Inactive)
REMARK    1  A    between atoms: C_4  and  C_5 
REMARK    2  A    between atoms: C_7  and  O_8 
REMARK    3  A    between atoms: C_10  and  O_11 
REMARK    4  A    between atoms: C_16  and  C_17 
REMARK    5  A    between atoms: C_20  and  C_21 
REMARK    6  A    between atoms: C_21  and  N_22 
REMARK    7  A    between atoms: N_22  and  C_23 
REMARK    8  A    between atoms: C_23  and  N_24 
REMARK    9  A    between atoms: N_24  and  C_25 
REMARK   10  A    between atoms: C_27  and  O_28 
REMARK   11  A    between atoms: C_31  and  O_32 
ROOT
HETATM    1  C   UNL     1       7.341  26.397  54.895  1.00  0.00     0.067 C 
HETATM    2  C   UNL     1       6.847  25.725  56.192  1.00  0.00     0.001 C 
HETATM    3  C   UNL     1       5.641  26.489  56.785  1.00  0.00     0.040 C 
HETATM    4  C   UNL     1       6.048  27.902  57.238  1.00  0.00     0.206 C 
HETATM    5  N   UNL     1       7.441  28.169  56.663  1.00  0.00    -0.065 N 
HETATM    6  H   UNL     1       7.690  29.152  56.849  1.00  0.00     0.280 HD
HETATM    7  C   UNL     1       7.502  27.919  55.161  1.00  0.00     0.246 C 
HETATM    8  C   UNL     1       8.000  25.834  57.224  1.00  0.00     0.033 C 
HETATM    9  C   UNL     1       8.452  27.290  57.379  1.00  0.00     0.236 C 
ENDROOT
BRANCH   4  10
HETATM   10  C   UNL     1       5.041  28.999  56.824  1.00  0.00     0.155 C 
BRANCH  10  11
HETATM   11  N   UNL     1       4.665  29.896  57.910  1.00  0.00    -0.365 N 
HETATM   12  H   UNL     1       4.148  29.499  58.688  1.00  0.00     0.161 HD
BRANCH  11  13
HETATM   13  C   UNL     1       4.975  31.220  58.036  1.00  0.00     0.172 C 
HETATM   14  S   UNL     1       5.021  32.308  56.768  1.00  0.00    -0.041 SA
BRANCH  13  15
HETATM   15  N   UNL     1       5.345  31.655  59.276  1.00  0.00    -0.333 N 
HETATM   16  H   UNL     1       4.554  31.846  59.888  1.00  0.00     0.168 HD
BRANCH  15  17
HETATM   17  C   UNL     1       6.613  31.725  59.899  1.00  0.00     0.039 A 
HETATM   18  C   UNL     1       6.795  31.717  61.285  1.00  0.00     0.066 A 
HETATM   19  C   UNL     1       8.073  31.788  61.845  1.00  0.00     0.073 A 
HETATM   20  C   UNL     1       9.180  31.899  61.007  1.00  0.00     0.073 A 
HETATM   21  C   UNL     1       9.014  31.963  59.621  1.00  0.00     0.073 A 
HETATM   22  C   UNL     1       7.732  31.877  59.071  1.00  0.00     0.066 A 
BRANCH  19  23
HETATM   23  O   UNL     1       8.095  31.741  63.212  1.00  0.00    -0.356 OA
HETATM   24  C   UNL     1       7.970  32.983  63.898  1.00  0.00     0.210 C 
ENDBRANCH  19  23
BRANCH  21  25
HETATM   25  O   UNL     1      10.180  32.096  58.919  1.00  0.00    -0.356 OA
HETATM   26  C   UNL     1      10.400  31.191  57.844  1.00  0.00     0.210 C 
ENDBRANCH  21  25
ENDBRANCH  15  17
ENDBRANCH  13  15
ENDBRANCH  11  13
ENDBRANCH  10  11
ENDBRANCH   4  10
BRANCH   1  27
HETATM   27  C   UNL     1       6.646  26.156  53.578  1.00  0.00     0.038 C 
HETATM   28  N   UNL     1       6.384  24.999  52.875  1.00  0.00    -0.277 N 
HETATM   29  C   UNL     1       6.819  23.635  53.060  1.00  0.00     0.179 C 
HETATM   30  N   UNL     1       5.573  25.202  51.823  1.00  0.00    -0.172 NA
HETATM   31  C   UNL     1       5.489  26.527  51.675  1.00  0.00     0.089 C 
HETATM   32  C   UNL     1       6.134  27.160  52.761  1.00  0.00     0.061 C 
BRANCH  31  33
HETATM   33  C   UNL     1       4.792  27.141  50.546  1.00  0.00    -0.003 A 
HETATM   34  C   UNL     1       4.606  26.427  49.352  1.00  0.00     0.053 A 
HETATM   35  C   UNL     1       3.939  27.003  48.265  1.00  0.00     0.102 A 
HETATM   36  C   UNL     1       3.458  28.324  48.362  1.00  0.00     0.101 A 
HETATM   37  C   UNL     1       3.647  29.040  49.548  1.00  0.00     0.040 A 
HETATM   38  C   UNL     1       4.307  28.452  50.632  1.00  0.00     0.017 A 
BRANCH  35  39
HETATM   39  O   UNL     1       3.705  26.367  47.071  1.00  0.00    -0.353 OA
HETATM   40  C   UNL     1       2.745  25.320  47.054  1.00  0.00     0.210 C 
ENDBRANCH  35  39
BRANCH  36  41
HETATM   41  O   UNL     1       2.816  28.818  47.256  1.00  0.00    -0.353 OA
HETATM   42  C   UNL     1       3.219  30.090  46.768  1.00  0.00     0.210 C 
ENDBRANCH  36  41
ENDBRANCH  31  33
ENDBRANCH   1  27
TORSDOF 11
ENDMDL
MODEL 4
REMARK VINA RESULT:      -8.8      2.227      3.248
REMARK  11 active torsions:
REMARK  status: ('A' for Active; 'I' for Inactive)
REMARK    1  A    between atoms: C_4  and  C_5 
REMARK    2  A    between atoms: C_7  and  O_8 
REMARK    3  A    between atoms: C_10  and  O_11 
REMARK    4  A    between atoms: C_16  and  C_17 
REMARK    5  A    between atoms: C_20  and  C_21 
REMARK    6  A    between atoms: C_21  and  N_22 
REMARK    7  A    between atoms: N_22  and  C_23 
REMARK    8  A    between atoms: C_23  and  N_24 
REMARK    9  A    between atoms: N_24  and  C_25 
REMARK   10  A    between atoms: C_27  and  O_28 
REMARK   11  A    between atoms: C_31  and  O_32 
ROOT
HETATM    1  C   UNL     1       4.405  29.236  55.517  1.00  0.00     0.067 C 
HETATM    2  C   UNL     1       4.763  30.631  54.968  1.00  0.00     0.001 C 
HETATM    3  C   UNL     1       5.385  31.516  56.072  1.00  0.00     0.040 C 
HETATM    4  C   UNL     1       4.365  31.813  57.185  1.00  0.00     0.206 C 
HETATM    5  N   UNL     1       3.177  30.873  56.961  1.00  0.00    -0.065 N 
HETATM    6  H   UNL     1       2.531  30.965  57.759  1.00  0.00     0.280 HD
HETATM    7  C   UNL     1       3.610  29.418  56.839  1.00  0.00     0.246 C 
HETATM    8  C   UNL     1       3.431  31.306  54.546  1.00  0.00     0.033 C 
HETATM    9  C   UNL     1       2.432  31.302  55.709  1.00  0.00     0.236 C 
ENDROOT
BRANCH   4  10
HETATM   10  C   UNL     1       4.944  31.669  58.610  1.00  0.00     0.155 C 
BRANCH  10  11
HETATM   11  N   UNL     1       3.933  31.466  59.641  1.00  0.00    -0.365 N 
HETATM   12  H   UNL     1       3.314  30.668  59.540  1.00  0.00     0.161 HD
BRANCH  11  13
HETATM   13  C   UNL     1       3.746  32.205  60.774  1.00  0.00     0.172 C 
HETATM   14  S   UNL     1       2.919  33.656  60.835  1.00  0.00    -0.041 SA
BRANCH  13  15
HETATM   15  N   UNL     1       4.346  31.753  61.914  1.00  0.00    -0.333 N 
HETATM   16  H   UNL     1       3.894  30.930  62.308  1.00  0.00     0.168 HD
BRANCH  15  17
HETATM   17  C   UNL     1       5.561  32.122  62.537  1.00  0.00     0.039 A 
HETATM   18  C   UNL     1       6.820  31.871  61.985  1.00  0.00     0.066 A 
HETATM   19  C   UNL     1       7.988  32.260  62.647  1.00  0.00     0.073 A 
HETATM   20  C   UNL     1       7.894  32.879  63.890  1.00  0.00     0.073 A 
HETATM   21  C   UNL     1       6.646  33.088  64.483  1.00  0.00     0.073 A 
HETATM   22  C   UNL     1       5.483  32.709  63.806  1.00  0.00     0.066 A 
BRANCH  19  23
HETATM   23  O   UNL     1       9.143  31.975  61.970  1.00  0.00    -0.356 OA
HETATM   24  C   UNL     1       9.012  31.229  60.765  1.00  0.00     0.210 C 
ENDBRANCH  19  23
BRANCH  21  25
HETATM   25  O   UNL     1       6.700  33.682  65.714  1.00  0.00    -0.356 OA
HETATM   26  C   UNL     1       5.578  34.463  66.110  1.00  0.00     0.210 C 
ENDBRANCH  21  25
ENDBRANCH  15  17
ENDBRANCH  13  15
ENDBRANCH  11  13
ENDBRANCH  10  11
ENDBRANCH   4  10
BRANCH   1  27
HETATM   27  C   UNL     1       5.455  28.164  55.670  1.00  0.00     0.038 C 
HETATM   28  N   UNL     1       6.461  27.987  56.597  1.00  0.00    -0.277 N 
HETATM   29  C   UNL     1       6.970  28.838  57.646  1.00  0.00     0.179 C 
HETATM   30  N   UNL     1       7.070  26.795  56.484  1.00  0.00    -0.172 NA
HETATM   31  C   UNL     1       6.642  26.273  55.331  1.00  0.00     0.089 C 
HETATM   32  C   UNL     1       5.621  27.092  54.798  1.00  0.00     0.061 C 
BRANCH  31  33
HETATM   33  C   UNL     1       7.184  25.027  54.793  1.00  0.00    -0.003 A 
HETATM   34  C   UNL     1       7.324  23.899  55.617  1.00  0.00     0.053 A 
HETATM   35  C   UNL     1       7.839  22.699  55.113  1.00  0.00     0.102 A 
HETATM   36  C   UNL     1       8.239  22.624  53.764  1.00  0.00     0.101 A 
HETATM   37  C   UNL     1       8.107  23.747  52.943  1.00  0.00     0.040 A 
HETATM   38  C   UNL     1       7.582  24.939  53.453  1.00  0.00     0.017 A 
BRANCH  35  39
HETATM   39  O   UNL     1       7.994  21.551  55.849  1.00  0.00    -0.353 OA
HETATM   40  C   UNL     1       8.376  21.683  57.211  1.00  0.00     0.210 C 
ENDBRANCH  35  39
BRANCH  36  41
HETATM   41  O   UNL     1       8.734  21.414  53.346  1.00  0.00    -0.353 OA
HETATM   42  C   UNL     1       7.822  20.488  52.774  1.00  0.00     0.210 C 
ENDBRANCH  36  41
ENDBRANCH  31  33
ENDBRANCH   1  27
TORSDOF 11
ENDMDL
MODEL 5
REMARK VINA RESULT:      -8.8      3.843      6.264
REMARK  11 active torsions:
REMARK  status: ('A' for Active; 'I' for Inactive)
REMARK    1  A    between atoms: C_4  and  C_5 
REMARK    2  A    between atoms: C_7  and  O_8 
REMARK    3  A    between atoms: C_10  and  O_11 
REMARK    4  A    between atoms: C_16  and  C_17 
REMARK    5  A    between atoms: C_20  and  C_21 
REMARK    6  A    between atoms: C_21  and  N_22 
REMARK    7  A    between atoms: N_22  and  C_23 
REMARK    8  A    between atoms: C_23  and  N_24 
REMARK    9  A    between atoms: N_24  and  C_25 
REMARK   10  A    between atoms: C_27  and  O_28 
REMARK   11  A    between atoms: C_31  and  O_32 
ROOT
HETATM    1  C   UNL     1       7.510  26.640  54.808  1.00  0.00     0.067 C 
HETATM    2  C   UNL     1       6.997  25.855  56.032  1.00  0.00     0.001 C 
HETATM    3  C   UNL     1       5.739  26.524  56.629  1.00  0.00     0.040 C 
HETATM    4  C   UNL     1       6.067  27.915  57.198  1.00  0.00     0.206 C 
HETATM    5  N   UNL     1       7.468  28.280  56.700  1.00  0.00    -0.065 N 
HETATM    6  H   UNL     1       7.667  29.256  56.967  1.00  0.00     0.280 HD
HETATM    7  C   UNL     1       7.595  28.143  55.188  1.00  0.00     0.246 C 
HETATM    8  C   UNL     1       8.106  25.934  57.115  1.00  0.00     0.033 C 
HETATM    9  C   UNL     1       8.489  27.392  57.392  1.00  0.00     0.236 C 
ENDROOT
BRANCH   4  10
HETATM   10  C   UNL     1       5.030  28.998  56.823  1.00  0.00     0.155 C 
BRANCH  10  11
HETATM   11  N   UNL     1       4.671  29.879  57.928  1.00  0.00    -0.365 N 
HETATM   12  H   UNL     1       4.133  29.480  58.691  1.00  0.00     0.161 HD
BRANCH  11  13
HETATM   13  C   UNL     1       5.021  31.189  58.090  1.00  0.00     0.172 C 
HETATM   14  S   UNL     1       5.011  32.332  56.870  1.00  0.00    -0.041 SA
BRANCH  13  15
HETATM   15  N   UNL     1       5.481  31.560  59.321  1.00  0.00    -0.333 N 
HETATM   16  H   UNL     1       4.752  31.593  60.030  1.00  0.00     0.168 HD
BRANCH  15  17
HETATM   17  C   UNL     1       6.797  31.741  59.808  1.00  0.00     0.039 A 
HETATM   18  C   UNL     1       7.929  31.764  58.989  1.00  0.00     0.066 A 
HETATM   19  C   UNL     1       9.205  31.946  59.528  1.00  0.00     0.073 A 
HETATM   20  C   UNL     1       9.353  32.076  60.906  1.00  0.00     0.073 A 
HETATM   21  C   UNL     1       8.238  32.000  61.746  1.00  0.00     0.073 A 
HETATM   22  C   UNL     1       6.964  31.832  61.196  1.00  0.00     0.066 A 
BRANCH  19  23
HETATM   23  O   UNL     1      10.211  31.977  58.600  1.00  0.00    -0.356 OA
HETATM   24  C   UNL     1      10.304  30.861  57.720  1.00  0.00     0.210 C 
ENDBRANCH  19  23
BRANCH  21  25
HETATM   25  O   UNL     1       8.527  32.118  63.078  1.00  0.00    -0.356 OA
HETATM   26  C   UNL     1       7.714  32.997  63.845  1.00  0.00     0.210 C 
ENDBRANCH  21  25
ENDBRANCH  15  17
ENDBRANCH  13  15
ENDBRANCH  11  13
ENDBRANCH  10  11
ENDBRANCH   4  10
BRANCH   1  27
HETATM   27  C   UNL     1       6.876  26.468  53.450  1.00  0.00     0.038 C 
HETATM   28  N   UNL     1       7.018  25.493  52.485  1.00  0.00    -0.277 N 
HETATM   29  C   UNL     1       7.936  24.387  52.356  1.00  0.00     0.179 C 
HETATM   30  N   UNL     1       6.129  25.617  51.486  1.00  0.00    -0.172 NA
HETATM   31  C   UNL     1       5.553  26.810  51.652  1.00  0.00     0.089 C 
HETATM   32  C   UNL     1       5.982  27.369  52.878  1.00  0.00     0.061 C 
BRANCH  31  33
HETATM   33  C   UNL     1       4.612  27.363  50.679  1.00  0.00    -0.003 A 
HETATM   34  C   UNL     1       3.835  28.486  51.002  1.00  0.00     0.053 A 
HETATM   35  C   UNL     1       2.932  29.025  50.079  1.00  0.00     0.102 A 
HETATM   36  C   UNL     1       2.787  28.425  48.812  1.00  0.00     0.101 A 
HETATM   37  C   UNL     1       3.556  27.303  48.490  1.00  0.00     0.040 A 
HETATM   38  C   UNL     1       4.462  26.777  49.416  1.00  0.00     0.017 A 
BRANCH  35  39
HETATM   39  O   UNL     1       2.148  30.128  50.313  1.00  0.00    -0.353 OA
HETATM   40  C   UNL     1       2.687  31.166  51.119  1.00  0.00     0.210 C 
ENDBRANCH  35  39
BRANCH  36  41
HETATM   41  O   UNL     1       1.883  29.012  47.963  1.00  0.00    -0.353 OA
HETATM   42  C   UNL     1       1.131  28.163  47.108  1.00  0.00     0.210 C 
ENDBRANCH  36  41
ENDBRANCH  31  33
ENDBRANCH   1  27
TORSDOF 11
ENDMDL
MODEL 6
REMARK VINA RESULT:      -8.7      2.249      2.927
REMARK  11 active torsions:
REMARK  status: ('A' for Active; 'I' for Inactive)
REMARK    1  A    between atoms: C_4  and  C_5 
REMARK    2  A    between atoms: C_7  and  O_8 
REMARK    3  A    between atoms: C_10  and  O_11 
REMARK    4  A    between atoms: C_16  and  C_17 
REMARK    5  A    between atoms: C_20  and  C_21 
REMARK    6  A    between atoms: C_21  and  N_22 
REMARK    7  A    between atoms: N_22  and  C_23 
REMARK    8  A    between atoms: C_23  and  N_24 
REMARK    9  A    between atoms: N_24  and  C_25 
REMARK   10  A    between atoms: C_27  and  O_28 
REMARK   11  A    between atoms: C_31  and  O_32 
ROOT
HETATM    1  C   UNL     1       4.527  29.189  55.457  1.00  0.00     0.067 C 
HETATM    2  C   UNL     1       4.940  30.620  55.056  1.00  0.00     0.001 C 
HETATM    3  C   UNL     1       5.421  31.421  56.286  1.00  0.00     0.040 C 
HETATM    4  C   UNL     1       4.275  31.638  57.290  1.00  0.00     0.206 C 
HETATM    5  N   UNL     1       3.128  30.721  56.860  1.00  0.00    -0.065 N 
HETATM    6  H   UNL     1       2.391  30.756  57.580  1.00  0.00     0.280 HD
HETATM    7  C   UNL     1       3.580  29.276  56.685  1.00  0.00     0.246 C 
HETATM    8  C   UNL     1       3.662  31.327  54.529  1.00  0.00     0.033 C 
HETATM    9  C   UNL     1       2.533  31.241  55.562  1.00  0.00     0.236 C 
ENDROOT
BRANCH   4  10
HETATM   10  C   UNL     1       4.682  31.390  58.760  1.00  0.00     0.155 C 
BRANCH  10  11
HETATM   11  N   UNL     1       3.579  31.504  59.705  1.00  0.00    -0.365 N 
HETATM   12  H   UNL     1       2.769  30.910  59.555  1.00  0.00     0.161 HD
BRANCH  11  13
HETATM   13  C   UNL     1       3.521  32.292  60.820  1.00  0.00     0.172 C 
HETATM   14  S   UNL     1       2.860  33.826  60.864  1.00  0.00    -0.041 SA
BRANCH  13  15
HETATM   15  N   UNL     1       4.116  31.810  61.950  1.00  0.00    -0.333 N 
HETATM   16  H   UNL     1       3.649  30.991  62.333  1.00  0.00     0.168 HD
BRANCH  15  17
HETATM   17  C   UNL     1       5.341  32.145  62.573  1.00  0.00     0.039 A 
HETATM   18  C   UNL     1       5.430  32.778  63.815  1.00  0.00     0.066 A 
HETATM   19  C   UNL     1       6.669  33.084  64.383  1.00  0.00     0.073 A 
HETATM   20  C   UNL     1       7.834  32.780  63.683  1.00  0.00     0.073 A 
HETATM   21  C   UNL     1       7.764  32.196  62.415  1.00  0.00     0.073 A 
HETATM   22  C   UNL     1       6.519  31.881  61.863  1.00  0.00     0.066 A 
BRANCH  19  23
HETATM   23  O   UNL     1       6.597  33.676  65.615  1.00  0.00    -0.356 OA
HETATM   24  C   UNL     1       5.297  34.009  66.090  1.00  0.00     0.210 C 
ENDBRANCH  19  23
BRANCH  21  25
HETATM   25  O   UNL     1       8.981  31.974  61.830  1.00  0.00    -0.356 OA
HETATM   26  C   UNL     1       9.472  30.639  61.837  1.00  0.00     0.210 C 
ENDBRANCH  21  25
ENDBRANCH  15  17
ENDBRANCH  13  15
ENDBRANCH  11  13
ENDBRANCH  10  11
ENDBRANCH   4  10
BRANCH   1  27
HETATM   27  C   UNL     1       5.559  28.107  55.655  1.00  0.00     0.038 C 
HETATM   28  N   UNL     1       6.557  27.948  56.593  1.00  0.00    -0.277 N 
HETATM   29  C   UNL     1       7.076  28.829  57.612  1.00  0.00     0.179 C 
HETATM   30  N   UNL     1       7.147  26.743  56.527  1.00  0.00    -0.172 NA
HETATM   31  C   UNL     1       6.716  26.185  55.393  1.00  0.00     0.089 C 
HETATM   32  C   UNL     1       5.711  27.000  54.824  1.00  0.00     0.061 C 
BRANCH  31  33
HETATM   33  C   UNL     1       7.239  24.910  54.904  1.00  0.00    -0.003 A 
HETATM   34  C   UNL     1       7.309  23.798  55.757  1.00  0.00     0.053 A 
HETATM   35  C   UNL     1       7.807  22.572  55.301  1.00  0.00     0.102 A 
HETATM   36  C   UNL     1       8.258  22.453  53.972  1.00  0.00     0.101 A 
HETATM   37  C   UNL     1       8.195  23.561  53.122  1.00  0.00     0.040 A 
HETATM   38  C   UNL     1       7.688  24.780  53.584  1.00  0.00     0.017 A 
BRANCH  35  39
HETATM   39  O   UNL     1       7.894  21.436  56.068  1.00  0.00    -0.353 OA
HETATM   40  C   UNL     1       8.322  21.577  57.415  1.00  0.00     0.210 C 
ENDBRANCH  35  39
BRANCH  36  41
HETATM   41  O   UNL     1       8.731  21.220  53.600  1.00  0.00    -0.353 OA
HETATM   42  C   UNL     1       7.990  20.491  52.633  1.00  0.00     0.210 C 
ENDBRANCH  36  41
ENDBRANCH  31  33
ENDBRANCH   1  27
TORSDOF 11
ENDMDL
MODEL 7
REMARK VINA RESULT:      -8.5      4.649      6.188
REMARK  11 active torsions:
REMARK  status: ('A' for Active; 'I' for Inactive)
REMARK    1  A    between atoms: C_4  and  C_5 
REMARK    2  A    between atoms: C_7  and  O_8 
REMARK    3  A    between atoms: C_10  and  O_11 
REMARK    4  A    between atoms: C_16  and  C_17 
REMARK    5  A    between atoms: C_20  and  C_21 
REMARK    6  A    between atoms: C_21  and  N_22 
REMARK    7  A    between atoms: N_22  and  C_23 
REMARK    8  A    between atoms: C_23  and  N_24 
REMARK    9  A    between atoms: N_24  and  C_25 
REMARK   10  A    between atoms: C_27  and  O_28 
REMARK   11  A    between atoms: C_31  and  O_32 
ROOT
HETATM    1  C   UNL     1       4.757  27.826  50.344  1.00  0.00     0.067 C 
HETATM    2  C   UNL     1       5.774  28.834  49.774  1.00  0.00     0.001 C 
HETATM    3  C   UNL     1       5.767  30.147  50.590  1.00  0.00     0.040 C 
HETATM    4  C   UNL     1       4.418  30.875  50.458  1.00  0.00     0.206 C 
HETATM    5  N   UNL     1       3.444  29.890  49.807  1.00  0.00    -0.065 N 
HETATM    6  H   UNL     1       2.501  30.308  49.814  1.00  0.00     0.280 HD
HETATM    7  C   UNL     1       3.399  28.555  50.539  1.00  0.00     0.246 C 
HETATM    8  C   UNL     1       5.300  29.193  48.341  1.00  0.00     0.033 C 
HETATM    9  C   UNL     1       3.846  29.676  48.357  1.00  0.00     0.236 C 
ENDROOT
BRANCH   4  10
HETATM   10  C   UNL     1       3.871  31.414  51.799  1.00  0.00     0.155 C 
BRANCH  10  11
HETATM   11  N   UNL     1       4.646  31.000  52.962  1.00  0.00    -0.365 N 
HETATM   12  H   UNL     1       5.544  30.557  52.794  1.00  0.00     0.161 HD
BRANCH  11  13
HETATM   13  C   UNL     1       4.329  31.185  54.278  1.00  0.00     0.172 C 
HETATM   14  S   UNL     1       2.837  31.695  54.831  1.00  0.00    -0.041 SA
BRANCH  13  15
HETATM   15  N   UNL     1       5.332  31.010  55.187  1.00  0.00    -0.333 N 
HETATM   16  H   UNL     1       5.702  31.884  55.553  1.00  0.00     0.168 HD
BRANCH  15  17
HETATM   17  C   UNL     1       5.822  29.844  55.821  1.00  0.00     0.039 A 
HETATM   18  C   UNL     1       7.174  29.625  56.099  1.00  0.00     0.066 A 
HETATM   19  C   UNL     1       7.600  28.452  56.728  1.00  0.00     0.073 A 
HETATM   20  C   UNL     1       6.665  27.473  57.054  1.00  0.00     0.073 A 
HETATM   21  C   UNL     1       5.316  27.650  56.733  1.00  0.00     0.073 A 
HETATM   22  C   UNL     1       4.898  28.834  56.117  1.00  0.00     0.066 A 
BRANCH  19  23
HETATM   23  O   UNL     1       8.947  28.393  56.962  1.00  0.00    -0.356 OA
HETATM   24  C   UNL     1       9.696  29.575  56.697  1.00  0.00     0.210 C 
ENDBRANCH  19  23
BRANCH  21  25
HETATM   25  O   UNL     1       4.511  26.602  57.086  1.00  0.00    -0.356 OA
HETATM   26  C   UNL     1       5.128  25.330  57.243  1.00  0.00     0.210 C 
ENDBRANCH  21  25
ENDBRANCH  15  17
ENDBRANCH  13  15
ENDBRANCH  11  13
ENDBRANCH  10  11
ENDBRANCH   4  10
BRANCH   1  27
HETATM   27  C   UNL     1       5.087  26.981  51.549  1.00  0.00     0.038 C 
HETATM   28  N   UNL     1       4.514  26.901  52.801  1.00  0.00    -0.277 N 
HETATM   29  C   UNL     1       3.509  27.703  53.458  1.00  0.00     0.179 C 
HETATM   30  N   UNL     1       4.997  25.882  53.531  1.00  0.00    -0.172 NA
HETATM   31  C   UNL     1       6.064  25.430  52.867  1.00  0.00     0.089 C 
HETATM   32  C   UNL     1       6.146  26.081  51.616  1.00  0.00     0.061 C 
BRANCH  31  33
HETATM   33  C   UNL     1       6.941  24.396  53.415  1.00  0.00    -0.003 A 
HETATM   34  C   UNL     1       7.258  24.386  54.782  1.00  0.00     0.053 A 
HETATM   35  C   UNL     1       8.095  23.401  55.319  1.00  0.00     0.102 A 
HETATM   36  C   UNL     1       8.640  22.413  54.475  1.00  0.00     0.101 A 
HETATM   37  C   UNL     1       8.330  22.424  53.113  1.00  0.00     0.040 A 
HETATM   38  C   UNL     1       7.485  23.407  52.587  1.00  0.00     0.017 A 
BRANCH  35  39
HETATM   39  O   UNL     1       8.441  23.314  56.645  1.00  0.00    -0.353 OA
HETATM   40  C   UNL     1       8.958  24.479  57.273  1.00  0.00     0.210 C 
ENDBRANCH  35  39
BRANCH  36  41
HETATM   41  O   UNL     1       9.450  21.483  55.076  1.00  0.00    -0.353 OA
HETATM   42  C   UNL     1       8.971  20.149  55.170  1.00  0.00     0.210 C 
ENDBRANCH  36  41
ENDBRANCH  31  33
ENDBRANCH   1  27
TORSDOF 11
ENDMDL
MODEL 8
REMARK VINA RESULT:      -8.5      3.484     10.206
REMARK  11 active torsions:
REMARK  status: ('A' for Active; 'I' for Inactive)
REMARK    1  A    between atoms: C_4  and  C_5 
REMARK    2  A    between atoms: C_7  and  O_8 
REMARK    3  A    between atoms: C_10  and  O_11 
REMARK    4  A    between atoms: C_16  and  C_17 
REMARK    5  A    between atoms: C_20  and  C_21 
REMARK    6  A    between atoms: C_21  and  N_22 
REMARK    7  A    between atoms: N_22  and  C_23 
REMARK    8  A    between atoms: C_23  and  N_24 
REMARK    9  A    between atoms: N_24  and  C_25 
REMARK   10  A    between atoms: C_27  and  O_28 
REMARK   11  A    between atoms: C_31  and  O_32 
ROOT
HETATM    1  C   UNL     1       7.802  27.612  56.376  1.00  0.00     0.067 C 
HETATM    2  C   UNL     1       7.716  27.802  54.849  1.00  0.00     0.001 C 
HETATM    3  C   UNL     1       6.427  28.560  54.458  1.00  0.00     0.040 C 
HETATM    4  C   UNL     1       5.174  27.733  54.795  1.00  0.00     0.206 C 
HETATM    5  N   UNL     1       5.632  26.572  55.681  1.00  0.00    -0.065 N 
HETATM    6  H   UNL     1       4.798  26.069  56.020  1.00  0.00     0.280 HD
HETATM    7  C   UNL     1       6.445  27.048  56.879  1.00  0.00     0.246 C 
HETATM    8  C   UNL     1       7.613  26.386  54.223  1.00  0.00     0.033 C 
HETATM    9  C   UNL     1       6.452  25.602  54.847  1.00  0.00     0.236 C 
ENDROOT
BRANCH   4  10
HETATM   10  C   UNL     1       4.052  28.555  55.469  1.00  0.00     0.155 C 
BRANCH  10  11
HETATM   11  N   UNL     1       4.114  29.983  55.183  1.00  0.00    -0.365 N 
HETATM   12  H   UNL     1       4.816  30.529  55.673  1.00  0.00     0.161 HD
BRANCH  11  13
HETATM   13  C   UNL     1       3.362  30.681  54.282  1.00  0.00     0.172 C 
HETATM   14  S   UNL     1       2.722  32.200  54.554  1.00  0.00    -0.041 SA
BRANCH  13  15
HETATM   15  N   UNL     1       3.058  30.051  53.109  1.00  0.00    -0.333 N 
HETATM   16  H   UNL     1       2.064  29.860  53.000  1.00  0.00     0.168 HD
BRANCH  15  17
HETATM   17  C   UNL     1       3.847  29.773  51.969  1.00  0.00     0.039 A 
HETATM   18  C   UNL     1       4.782  30.666  51.439  1.00  0.00     0.066 A 
HETATM   19  C   UNL     1       5.535  30.336  50.309  1.00  0.00     0.073 A 
HETATM   20  C   UNL     1       5.327  29.109  49.684  1.00  0.00     0.073 A 
HETATM   21  C   UNL     1       4.357  28.226  50.167  1.00  0.00     0.073 A 
HETATM   22  C   UNL     1       3.620  28.559  51.307  1.00  0.00     0.066 A 
BRANCH  19  23
HETATM   23  O   UNL     1       6.429  31.298  49.924  1.00  0.00    -0.356 OA
HETATM   24  C   UNL     1       5.996  32.211  48.921  1.00  0.00     0.210 C 
ENDBRANCH  19  23
BRANCH  21  25
HETATM   25  O   UNL     1       4.240  27.069  49.446  1.00  0.00    -0.356 OA
HETATM   26  C   UNL     1       3.182  26.998  48.497  1.00  0.00     0.210 C 
ENDBRANCH  21  25
ENDBRANCH  15  17
ENDBRANCH  13  15
ENDBRANCH  11  13
ENDBRANCH  10  11
ENDBRANCH   4  10
BRANCH   1  27
HETATM   27  C   UNL     1       8.283  28.724  57.275  1.00  0.00     0.038 C 
HETATM   28  N   UNL     1       9.446  29.464  57.280  1.00  0.00    -0.277 N 
HETATM   29  C   UNL     1      10.680  29.333  56.542  1.00  0.00     0.179 C 
HETATM   30  N   UNL     1       9.405  30.492  58.144  1.00  0.00    -0.172 NA
HETATM   31  C   UNL     1       8.316  30.300  58.892  1.00  0.00     0.089 C 
HETATM   32  C   UNL     1       7.578  29.212  58.372  1.00  0.00     0.061 C 
BRANCH  31  33
HETATM   33  C   UNL     1       7.998  31.150  60.038  1.00  0.00    -0.003 A 
HETATM   34  C   UNL     1       6.837  31.938  60.037  1.00  0.00     0.053 A 
HETATM   35  C   UNL     1       6.521  32.755  61.129  1.00  0.00     0.102 A 
HETATM   36  C   UNL     1       7.387  32.801  62.240  1.00  0.00     0.101 A 
HETATM   37  C   UNL     1       8.548  32.022  62.240  1.00  0.00     0.040 A 
HETATM   38  C   UNL     1       8.850  31.202  61.148  1.00  0.00     0.017 A 
BRANCH  35  39
HETATM   39  O   UNL     1       5.400  33.543  61.210  1.00  0.00    -0.353 OA
HETATM   40  C   UNL     1       4.160  32.905  61.485  1.00  0.00     0.210 C 
ENDBRANCH  35  39
BRANCH  36  41
HETATM   41  O   UNL     1       7.009  33.625  63.269  1.00  0.00    -0.353 OA
HETATM   42  C   UNL     1       7.525  33.348  64.563  1.00  0.00     0.210 C 
ENDBRANCH  36  41
ENDBRANCH  31  33
ENDBRANCH   1  27
TORSDOF 11
ENDMDL
MODEL 9
REMARK VINA RESULT:      -8.4      3.614      5.661
REMARK  11 active torsions:
REMARK  status: ('A' for Active; 'I' for Inactive)
REMARK    1  A    between atoms: C_4  and  C_5 
REMARK    2  A    between atoms: C_7  and  O_8 
REMARK    3  A    between atoms: C_10  and  O_11 
REMARK    4  A    between atoms: C_16  and  C_17 
REMARK    5  A    between atoms: C_20  and  C_21 
REMARK    6  A    between atoms: C_21  and  N_22 
REMARK    7  A    between atoms: N_22  and  C_23 
REMARK    8  A    between atoms: C_23  and  N_24 
REMARK    9  A    between atoms: N_24  and  C_25 
REMARK   10  A    between atoms: C_27  and  O_28 
REMARK   11  A    between atoms: C_31  and  O_32 
ROOT
HETATM    1  C   UNL     1       6.112  26.650  54.560  1.00  0.00     0.067 C 
HETATM    2  C   UNL     1       5.447  26.048  55.815  1.00  0.00     0.001 C 
HETATM    3  C   UNL     1       5.390  27.084  56.960  1.00  0.00     0.040 C 
HETATM    4  C   UNL     1       6.803  27.460  57.439  1.00  0.00     0.206 C 
HETATM    5  N   UNL     1       7.786  26.903  56.406  1.00  0.00    -0.065 N 
HETATM    6  H   UNL     1       8.732  27.241  56.637  1.00  0.00     0.280 HD
HETATM    7  C   UNL     1       7.438  27.337  54.988  1.00  0.00     0.246 C 
HETATM    8  C   UNL     1       6.362  24.892  56.299  1.00  0.00     0.033 C 
HETATM    9  C   UNL     1       7.799  25.386  56.498  1.00  0.00     0.236 C 
ENDROOT
BRANCH   4  10
HETATM   10  C   UNL     1       7.002  28.977  57.653  1.00  0.00     0.155 C 
BRANCH  10  11
HETATM   11  N   UNL     1       8.356  29.346  58.049  1.00  0.00    -0.365 N 
HETATM   12  H   UNL     1       9.124  28.841  57.617  1.00  0.00     0.161 HD
BRANCH  11  13
HETATM   13  C   UNL     1       8.726  30.341  58.908  1.00  0.00     0.172 C 
HETATM   14  S   UNL     1       9.923  31.465  58.597  1.00  0.00    -0.041 SA
BRANCH  13  15
HETATM   15  N   UNL     1       8.121  30.360  60.131  1.00  0.00    -0.333 N 
HETATM   16  H   UNL     1       8.170  29.468  60.619  1.00  0.00     0.168 HD
BRANCH  15  17
HETATM   17  C   UNL     1       7.595  31.429  60.894  1.00  0.00     0.039 A 
HETATM   18  C   UNL     1       8.039  31.755  62.178  1.00  0.00     0.066 A 
HETATM   19  C   UNL     1       7.481  32.825  62.884  1.00  0.00     0.073 A 
HETATM   20  C   UNL     1       6.446  33.556  62.309  1.00  0.00     0.073 A 
HETATM   21  C   UNL     1       5.951  33.210  61.049  1.00  0.00     0.073 A 
HETATM   22  C   UNL     1       6.525  32.148  60.345  1.00  0.00     0.066 A 
BRANCH  19  23
HETATM   23  O   UNL     1       8.038  33.041  64.115  1.00  0.00    -0.356 OA
HETATM   24  C   UNL     1       7.181  33.569  65.122  1.00  0.00     0.210 C 
ENDBRANCH  19  23
BRANCH  21  25
HETATM   25  O   UNL     1       4.918  33.995  60.614  1.00  0.00    -0.356 OA
HETATM   26  C   UNL     1       4.521  35.073  61.453  1.00  0.00     0.210 C 
ENDBRANCH  21  25
ENDBRANCH  15  17
ENDBRANCH  13  15
ENDBRANCH  11  13
ENDBRANCH  10  11
ENDBRANCH   4  10
BRANCH   1  27
HETATM   27  C   UNL     1       5.335  27.531  53.614  1.00  0.00     0.038 C 
HETATM   28  N   UNL     1       4.872  28.825  53.732  1.00  0.00    -0.277 N 
HETATM   29  C   UNL     1       4.820  29.734  54.851  1.00  0.00     0.179 C 
HETATM   30  N   UNL     1       4.379  29.308  52.580  1.00  0.00    -0.172 NA
HETATM   31  C   UNL     1       4.285  28.263  51.754  1.00  0.00     0.089 C 
HETATM   32  C   UNL     1       4.886  27.135  52.357  1.00  0.00     0.061 C 
BRANCH  31  33
HETATM   33  C   UNL     1       3.666  28.368  50.433  1.00  0.00    -0.003 A 
HETATM   34  C   UNL     1       3.942  27.413  49.442  1.00  0.00     0.053 A 
HETATM   35  C   UNL     1       3.353  27.502  48.175  1.00  0.00     0.102 A 
HETATM   36  C   UNL     1       2.484  28.571  47.882  1.00  0.00     0.101 A 
HETATM   37  C   UNL     1       2.213  29.527  48.866  1.00  0.00     0.040 A 
HETATM   38  C   UNL     1       2.798  29.424  50.132  1.00  0.00     0.017 A 
BRANCH  35  39
HETATM   39  O   UNL     1       3.561  26.602  47.159  1.00  0.00    -0.353 OA
HETATM   40  C   UNL     1       3.104  25.271  47.348  1.00  0.00     0.210 C 
ENDBRANCH  35  39
BRANCH  36  41
HETATM   41  O   UNL     1       1.948  28.588  46.620  1.00  0.00    -0.353 OA
HETATM   42  C   UNL     1       0.698  29.238  46.440  1.00  0.00     0.210 C 
ENDBRANCH  36  41
ENDBRANCH  31  33
ENDBRANCH   1  27
TORSDOF 11
ENDMDL
MODEL 10
REMARK VINA RESULT:      -8.3      3.295      5.324
REMARK  11 active torsions:
REMARK  status: ('A' for Active; 'I' for Inactive)
REMARK    1  A    between atoms: C_4  and  C_5 
REMARK    2  A    between atoms: C_7  and  O_8 
REMARK    3  A    between atoms: C_10  and  O_11 
REMARK    4  A    between atoms: C_16  and  C_17 
REMARK    5  A    between atoms: C_20  and  C_21 
REMARK    6  A    between atoms: C_21  and  N_22 
REMARK    7  A    between atoms: N_22  and  C_23 
REMARK    8  A    between atoms: C_23  and  N_24 
REMARK    9  A    between atoms: N_24  and  C_25 
REMARK   10  A    between atoms: C_27  and  O_28 
REMARK   11  A    between atoms: C_31  and  O_32 
ROOT
HETATM    1  C   UNL     1       3.588  29.184  50.227  1.00  0.00     0.067 C 
HETATM    2  C   UNL     1       4.389  30.499  50.136  1.00  0.00     0.001 C 
HETATM    3  C   UNL     1       4.696  31.057  51.544  1.00  0.00     0.040 C 
HETATM    4  C   UNL     1       3.404  31.465  52.273  1.00  0.00     0.206 C 
HETATM    5  N   UNL     1       2.238  30.893  51.464  1.00  0.00    -0.065 N 
HETATM    6  H   UNL     1       1.365  31.048  51.991  1.00  0.00     0.280 HD
HETATM    7  C   UNL     1       2.398  29.401  51.200  1.00  0.00     0.246 C 
HETATM    8  C   UNL     1       3.475  31.536  49.430  1.00  0.00     0.033 C 
HETATM    9  C   UNL     1       2.126  31.645  50.149  1.00  0.00     0.236 C 
ENDROOT
BRANCH   4  10
HETATM   10  C   UNL     1       3.353  31.008  53.748  1.00  0.00     0.155 C 
BRANCH  10  11
HETATM   11  N   UNL     1       4.617  30.477  54.245  1.00  0.00    -0.365 N 
HETATM   12  H   UNL     1       5.440  30.607  53.665  1.00  0.00     0.161 HD
BRANCH  11  13
HETATM   13  C   UNL     1       4.842  29.858  55.441  1.00  0.00     0.172 C 
HETATM   14  S   UNL     1       4.379  28.293  55.802  1.00  0.00    -0.041 SA
BRANCH  13  15
HETATM   15  N   UNL     1       5.419  30.607  56.427  1.00  0.00    -0.333 N 
HETATM   16  H   UNL     1       4.823  31.361  56.760  1.00  0.00     0.168 HD
BRANCH  15  17
HETATM   17  C   UNL     1       6.610  30.415  57.166  1.00  0.00     0.039 A 
HETATM   18  C   UNL     1       6.756  30.783  58.506  1.00  0.00     0.066 A 
HETATM   19  C   UNL     1       7.958  30.569  59.185  1.00  0.00     0.073 A 
HETATM   20  C   UNL     1       9.036  30.008  58.506  1.00  0.00     0.073 A 
HETATM   21  C   UNL     1       8.926  29.684  57.150  1.00  0.00     0.073 A 
HETATM   22  C   UNL     1       7.714  29.889  56.484  1.00  0.00     0.066 A 
BRANCH  19  23
HETATM   23  O   UNL     1       7.942  30.953  60.499  1.00  0.00    -0.356 OA
HETATM   24  C   UNL     1       9.132  30.725  61.247  1.00  0.00     0.210 C 
ENDBRANCH  19  23
BRANCH  21  25
HETATM   25  O   UNL     1      10.066  29.164  56.601  1.00  0.00    -0.356 OA
HETATM   26  C   UNL     1      11.308  29.642  57.103  1.00  0.00     0.210 C 
ENDBRANCH  21  25
ENDBRANCH  15  17
ENDBRANCH  13  15
ENDBRANCH  11  13
ENDBRANCH  10  11
ENDBRANCH   4  10
BRANCH   1  27
HETATM   27  C   UNL     1       4.275  27.871  50.508  1.00  0.00     0.038 C 
HETATM   28  N   UNL     1       4.455  26.743  49.734  1.00  0.00    -0.277 N 
HETATM   29  C   UNL     1       3.916  26.353  48.453  1.00  0.00     0.179 C 
HETATM   30  N   UNL     1       5.288  25.853  50.298  1.00  0.00    -0.172 NA
HETATM   31  C   UNL     1       5.473  26.268  51.554  1.00  0.00     0.089 C 
HETATM   32  C   UNL     1       4.868  27.535  51.721  1.00  0.00     0.061 C 
BRANCH  31  33
HETATM   33  C   UNL     1       6.225  25.482  52.530  1.00  0.00    -0.003 A 
HETATM   34  C   UNL     1       5.796  25.408  53.864  1.00  0.00     0.053 A 
HETATM   35  C   UNL     1       6.506  24.657  54.808  1.00  0.00     0.102 A 
HETATM   36  C   UNL     1       7.678  23.978  54.420  1.00  0.00     0.101 A 
HETATM   37  C   UNL     1       8.112  24.055  53.094  1.00  0.00     0.040 A 
HETATM   38  C   UNL     1       7.389  24.800  52.156  1.00  0.00     0.017 A 
BRANCH  35  39
HETATM   39  O   UNL     1       6.144  24.524  56.126  1.00  0.00    -0.353 OA
HETATM   40  C   UNL     1       6.578  25.524  57.037  1.00  0.00     0.210 C 
ENDBRANCH  35  39
BRANCH  36  41
HETATM   41  O   UNL     1       8.318  23.264  55.402  1.00  0.00    -0.353 OA
HETATM   42  C   UNL     1       9.259  22.281  54.999  1.00  0.00     0.210 C 
ENDBRANCH  36  41
ENDBRANCH  31  33
ENDBRANCH   1  27
TORSDOF 11
ENDMDL
