MODEL 1
REMARK VINA RESULT:     -10.8      0.000      0.000
REMARK  6 active torsions:
REMARK  status: ('A' for Active; 'I' for Inactive)
REMARK    1  A    between atoms: C_3  and  C_4 
REMARK    2  A    between atoms: N_5  and  C_6 
REMARK    3  A    between atoms: C_11  and  S_12 
REMARK    4  A    between atoms: S_12  and  C_13 
REMARK    5  A    between atoms: C_13  and  C_14 
REMARK       I    between atoms: C_14  and  N_15 
REMARK    6  A    between atoms: N_15  and  C_16 
ROOT
HETATM    1  S   UNL     1       7.125  29.835  57.383  1.00  0.00    -0.081 SA
ENDROOT
BRANCH   1   2
HETATM    2  C   UNL     1       7.208  28.116  57.211  1.00  0.00     0.192 C 
HETATM    3  N   UNL     1       6.638  27.394  56.193  1.00  0.00    -0.302 N 
HETATM    4  C   UNL     1       7.468  26.284  56.075  1.00  0.00     0.166 C 
HETATM    5  N   UNL     1       8.231  26.216  57.151  1.00  0.00    -0.128 NA
HETATM    6  N   UNL     1       8.076  27.374  57.860  1.00  0.00    -0.122 NA
BRANCH   3   7
HETATM    7  C   UNL     1       5.512  27.712  55.331  1.00  0.00     0.094 C 
HETATM    8  C   UNL     1       4.373  28.448  56.063  1.00  0.00     0.026 C 
HETATM    9  C   UNL     1       3.487  29.016  54.964  1.00  0.00     0.002 C 
HETATM   10  C   UNL     1       4.390  29.203  53.756  1.00  0.00     0.002 C 
HETATM   11  C   UNL     1       5.764  28.691  54.171  1.00  0.00     0.026 C 
ENDBRANCH   3   7
BRANCH   4  12
HETATM   12  C   UNL     1       7.596  25.419  54.903  1.00  0.00     0.034 A 
HETATM   13  C   UNL     1       7.660  26.016  53.630  1.00  0.00     0.017 A 
HETATM   14  C   UNL     1       7.824  25.241  52.480  1.00  0.00     0.001 A 
HETATM   15  C   UNL     1       7.929  23.859  52.586  1.00  0.00     0.002 A 
HETATM   16  C   UNL     1       7.875  23.250  53.842  1.00  0.00     0.025 A 
HETATM   17  C   UNL     1       7.714  24.025  54.997  1.00  0.00     0.048 A 
HETATM   18 CL   UNL     1       7.624  23.194  56.510  1.00  0.00    -0.083 Cl
ENDBRANCH   4  12
ENDBRANCH   1   2
BRANCH   1  19
HETATM   19  C   UNL     1       8.194  30.046  58.842  1.00  0.00     0.185 C 
BRANCH  19  20
HETATM   20  C   UNL     1       7.674  31.161  59.747  1.00  0.00     0.231 C 
HETATM   21  N   UNL     1       7.633  30.797  61.083  1.00  0.00    -0.326 N 
HETATM   22  H   UNL     1       8.161  29.958  61.329  1.00  0.00     0.169 HD
HETATM   23  O   UNL     1       7.373  32.263  59.293  1.00  0.00    -0.272 OA
BRANCH  21  24
HETATM   24  C   UNL     1       7.206  31.572  62.181  1.00  0.00     0.037 A 
HETATM   25  C   UNL     1       5.864  31.757  62.526  1.00  0.00     0.061 A 
HETATM   26  C   UNL     1       5.605  32.577  63.602  1.00  0.00     0.065 A 
HETATM   27  C   UNL     1       6.615  33.190  64.339  1.00  0.00     0.063 A 
HETATM   28  N   UNL     1       4.386  32.963  64.149  1.00  0.00    -0.306 N 
HETATM   29  N   UNL     1       6.020  33.946  65.341  1.00  0.00    -0.307 N 
HETATM   30  C   UNL     1       7.942  33.016  64.042  1.00  0.00     0.034 A 
HETATM   31  C   UNL     1       4.628  33.819  65.234  1.00  0.00     0.325 A 
HETATM   32  H   UNL     1       6.481  34.506  66.038  1.00  0.00     0.170 HD
HETATM   33  O   UNL     1       3.792  34.352  65.941  1.00  0.00    -0.247 OA
HETATM   34  C   UNL     1       8.231  32.195  62.945  1.00  0.00     0.032 A 
HETATM   35  H   UNL     1       3.465  32.690  63.843  1.00  0.00     0.170 HD
ENDBRANCH  21  24
ENDBRANCH  19  20
ENDBRANCH   1  19
TORSDOF 6
ENDMDL
MODEL 2
REMARK VINA RESULT:     -10.4      1.858      2.572
REMARK  6 active torsions:
REMARK  status: ('A' for Active; 'I' for Inactive)
REMARK    1  A    between atoms: C_3  and  C_4 
REMARK    2  A    between atoms: N_5  and  C_6 
REMARK    3  A    between atoms: C_11  and  S_12 
REMARK    4  A    between atoms: S_12  and  C_13 
REMARK    5  A    between atoms: C_13  and  C_14 
REMARK       I    between atoms: C_14  and  N_15 
REMARK    6  A    between atoms: N_15  and  C_16 
ROOT
HETATM    1  S   UNL     1       7.261  29.837  58.090  1.00  0.00    -0.081 SA
ENDROOT
BRANCH   1   2
HETATM    2  C   UNL     1       7.965  29.046  56.723  1.00  0.00     0.192 C 
HETATM    3  N   UNL     1       7.556  27.841  56.208  1.00  0.00    -0.302 N 
HETATM    4  C   UNL     1       7.879  27.936  54.858  1.00  0.00     0.166 C 
HETATM    5  N   UNL     1       8.703  28.956  54.696  1.00  0.00    -0.128 NA
HETATM    6  N   UNL     1       8.748  29.660  55.866  1.00  0.00    -0.122 NA
BRANCH   3   7
HETATM    7  C   UNL     1       6.847  26.741  56.840  1.00  0.00     0.094 C 
HETATM    8  C   UNL     1       5.336  26.738  56.539  1.00  0.00     0.026 C 
HETATM    9  C   UNL     1       4.845  25.358  56.949  1.00  0.00     0.002 C 
HETATM   10  C   UNL     1       6.046  24.435  56.824  1.00  0.00     0.002 C 
HETATM   11  C   UNL     1       7.213  25.315  56.394  1.00  0.00     0.026 C 
ENDBRANCH   3   7
BRANCH   4  12
HETATM   12  C   UNL     1       7.297  27.150  53.771  1.00  0.00     0.034 A 
HETATM   13  C   UNL     1       7.982  26.002  53.330  1.00  0.00     0.017 A 
HETATM   14  C   UNL     1       7.453  25.191  52.324  1.00  0.00     0.001 A 
HETATM   15  C   UNL     1       6.231  25.515  51.746  1.00  0.00     0.002 A 
HETATM   16  C   UNL     1       5.534  26.646  52.176  1.00  0.00     0.025 A 
HETATM   17  C   UNL     1       6.060  27.459  53.188  1.00  0.00     0.048 A 
HETATM   18 CL   UNL     1       5.153  28.858  53.641  1.00  0.00    -0.083 Cl
ENDBRANCH   4  12
ENDBRANCH   1   2
BRANCH   1  19
HETATM   19  C   UNL     1       8.775  30.431  58.910  1.00  0.00     0.185 C 
BRANCH  19  20
HETATM   20  C   UNL     1       8.453  31.504  59.947  1.00  0.00     0.231 C 
HETATM   21  N   UNL     1       7.719  31.017  61.017  1.00  0.00    -0.326 N 
HETATM   22  H   UNL     1       7.692  30.000  61.108  1.00  0.00     0.169 HD
HETATM   23  O   UNL     1       8.860  32.657  59.819  1.00  0.00    -0.272 OA
BRANCH  21  24
HETATM   24  C   UNL     1       7.249  31.726  62.141  1.00  0.00     0.037 A 
HETATM   25  C   UNL     1       5.894  31.925  62.423  1.00  0.00     0.061 A 
HETATM   26  C   UNL     1       5.594  32.677  63.538  1.00  0.00     0.065 A 
HETATM   27  C   UNL     1       6.576  33.208  64.372  1.00  0.00     0.063 A 
HETATM   28  N   UNL     1       4.356  33.059  64.043  1.00  0.00    -0.306 N 
HETATM   29  N   UNL     1       5.943  33.910  65.390  1.00  0.00    -0.307 N 
HETATM   30  C   UNL     1       7.912  33.017  64.137  1.00  0.00     0.034 A 
HETATM   31  C   UNL     1       4.557  33.830  65.197  1.00  0.00     0.325 A 
HETATM   32  H   UNL     1       6.377  34.407  66.150  1.00  0.00     0.170 HD
HETATM   33  O   UNL     1       3.695  34.338  65.893  1.00  0.00    -0.247 OA
HETATM   34  C   UNL     1       8.244  32.266  63.003  1.00  0.00     0.032 A 
HETATM   35  H   UNL     1       3.448  32.834  63.668  1.00  0.00     0.170 HD
ENDBRANCH  21  24
ENDBRANCH  19  20
ENDBRANCH   1  19
TORSDOF 6
ENDMDL
MODEL 3
REMARK VINA RESULT:     -10.3      2.482      3.605
REMARK  6 active torsions:
REMARK  status: ('A' for Active; 'I' for Inactive)
REMARK    1  A    between atoms: C_3  and  C_4 
REMARK    2  A    between atoms: N_5  and  C_6 
REMARK    3  A    between atoms: C_11  and  S_12 
REMARK    4  A    between atoms: S_12  and  C_13 
REMARK    5  A    between atoms: C_13  and  C_14 
REMARK       I    between atoms: C_14  and  N_15 
REMARK    6  A    between atoms: N_15  and  C_16 
ROOT
HETATM    1  S   UNL     1       7.360  27.346  55.301  1.00  0.00    -0.081 SA
ENDROOT
BRANCH   1   2
HETATM    2  C   UNL     1       7.096  25.694  55.738  1.00  0.00     0.192 C 
HETATM    3  N   UNL     1       6.906  24.662  54.854  1.00  0.00    -0.302 N 
HETATM    4  C   UNL     1       7.401  23.554  55.534  1.00  0.00     0.166 C 
HETATM    5  N   UNL     1       7.538  23.872  56.809  1.00  0.00    -0.128 NA
HETATM    6  N   UNL     1       7.357  25.221  56.935  1.00  0.00    -0.122 NA
BRANCH   3   7
HETATM    7  C   UNL     1       6.421  24.674  53.484  1.00  0.00     0.094 C 
HETATM    8  C   UNL     1       4.993  25.238  53.349  1.00  0.00     0.026 C 
HETATM    9  C   UNL     1       4.809  25.519  51.865  1.00  0.00     0.002 C 
HETATM   10  C   UNL     1       6.203  25.768  51.312  1.00  0.00     0.002 C 
HETATM   11  C   UNL     1       7.163  25.573  52.480  1.00  0.00     0.026 C 
ENDBRANCH   3   7
BRANCH   4  12
HETATM   12  C   UNL     1       7.845  22.296  54.934  1.00  0.00     0.034 A 
HETATM   13  C   UNL     1       7.868  22.191  53.531  1.00  0.00     0.017 A 
HETATM   14  C   UNL     1       8.320  21.028  52.904  1.00  0.00     0.001 A 
HETATM   15  C   UNL     1       8.759  19.955  53.672  1.00  0.00     0.002 A 
HETATM   16  C   UNL     1       8.750  20.044  55.065  1.00  0.00     0.025 A 
HETATM   17  C   UNL     1       8.300  21.210  55.696  1.00  0.00     0.048 A 
HETATM   18 CL   UNL     1       8.290  21.230  57.425  1.00  0.00    -0.083 Cl
ENDBRANCH   4  12
ENDBRANCH   1   2
BRANCH   1  19
HETATM   19  C   UNL     1       8.440  27.856  56.676  1.00  0.00     0.185 C 
BRANCH  19  20
HETATM   20  C   UNL     1       7.677  28.711  57.685  1.00  0.00     0.231 C 
HETATM   21  N   UNL     1       8.494  29.600  58.365  1.00  0.00    -0.326 N 
HETATM   22  H   UNL     1       9.420  29.748  57.960  1.00  0.00     0.169 HD
HETATM   23  O   UNL     1       6.459  28.611  57.813  1.00  0.00    -0.272 OA
BRANCH  21  24
HETATM   24  C   UNL     1       8.127  30.528  59.361  1.00  0.00     0.037 A 
HETATM   25  C   UNL     1       8.635  30.512  60.663  1.00  0.00     0.061 A 
HETATM   26  C   UNL     1       8.146  31.459  61.535  1.00  0.00     0.065 A 
HETATM   27  C   UNL     1       7.204  32.413  61.155  1.00  0.00     0.063 A 
HETATM   28  N   UNL     1       8.440  31.664  62.879  1.00  0.00    -0.306 N 
HETATM   29  N   UNL     1       6.923  33.205  62.262  1.00  0.00    -0.307 N 
HETATM   30  C   UNL     1       6.698  32.471  59.883  1.00  0.00     0.034 A 
HETATM   31  C   UNL     1       7.684  32.749  63.347  1.00  0.00     0.325 A 
HETATM   32  H   UNL     1       6.283  33.981  62.310  1.00  0.00     0.170 HD
HETATM   33  O   UNL     1       7.682  33.201  64.477  1.00  0.00    -0.247 OA
HETATM   34  C   UNL     1       7.171  31.510  58.981  1.00  0.00     0.032 A 
HETATM   35  H   UNL     1       9.085  31.140  63.449  1.00  0.00     0.170 HD
ENDBRANCH  21  24
ENDBRANCH  19  20
ENDBRANCH   1  19
TORSDOF 6
ENDMDL
MODEL 4
REMARK VINA RESULT:     -10.3      1.833      2.887
REMARK  6 active torsions:
REMARK  status: ('A' for Active; 'I' for Inactive)
REMARK    1  A    between atoms: C_3  and  C_4 
REMARK    2  A    between atoms: N_5  and  C_6 
REMARK    3  A    between atoms: C_11  and  S_12 
REMARK    4  A    between atoms: S_12  and  C_13 
REMARK    5  A    between atoms: C_13  and  C_14 
REMARK       I    between atoms: C_14  and  N_15 
REMARK    6  A    between atoms: N_15  and  C_16 
ROOT
HETATM    1  S   UNL     1       5.220  29.359  57.270  1.00  0.00    -0.081 SA
ENDROOT
BRANCH   1   2
HETATM    2  C   UNL     1       5.429  28.598  55.731  1.00  0.00     0.192 C 
HETATM    3  N   UNL     1       6.552  27.921  55.328  1.00  0.00    -0.302 N 
HETATM    4  C   UNL     1       6.062  26.980  54.429  1.00  0.00     0.166 C 
HETATM    5  N   UNL     1       4.829  27.321  54.096  1.00  0.00    -0.128 NA
HETATM    6  N   UNL     1       4.428  28.332  54.924  1.00  0.00    -0.122 NA
BRANCH   3   7
HETATM    7  C   UNL     1       7.929  28.032  55.780  1.00  0.00     0.094 C 
HETATM    8  C   UNL     1       8.689  29.206  55.133  1.00  0.00     0.026 C 
HETATM    9  C   UNL     1       9.941  29.391  55.977  1.00  0.00     0.002 C 
HETATM   10  C   UNL     1       9.591  28.868  57.361  1.00  0.00     0.002 C 
HETATM   11  C   UNL     1       8.162  28.347  57.267  1.00  0.00     0.026 C 
ENDBRANCH   3   7
BRANCH   4  12
HETATM   12  C   UNL     1       6.722  25.738  54.028  1.00  0.00     0.034 A 
HETATM   13  C   UNL     1       7.276  25.658  52.737  1.00  0.00     0.017 A 
HETATM   14  C   UNL     1       7.954  24.512  52.315  1.00  0.00     0.001 A 
HETATM   15  C   UNL     1       8.090  23.432  53.179  1.00  0.00     0.002 A 
HETATM   16  C   UNL     1       7.553  23.497  54.467  1.00  0.00     0.025 A 
HETATM   17  C   UNL     1       6.876  24.646  54.893  1.00  0.00     0.048 A 
HETATM   18 CL   UNL     1       6.212  24.635  56.489  1.00  0.00    -0.083 Cl
ENDBRANCH   4  12
ENDBRANCH   1   2
BRANCH   1  19
HETATM   19  C   UNL     1       5.727  31.055  56.842  1.00  0.00     0.185 C 
BRANCH  19  20
HETATM   20  C   UNL     1       5.972  31.888  58.098  1.00  0.00     0.231 C 
HETATM   21  N   UNL     1       6.565  31.162  59.119  1.00  0.00    -0.326 N 
HETATM   22  H   UNL     1       6.976  30.269  58.845  1.00  0.00     0.169 HD
HETATM   23  O   UNL     1       5.690  33.084  58.135  1.00  0.00    -0.272 OA
BRANCH  21  24
HETATM   24  C   UNL     1       6.925  31.611  60.406  1.00  0.00     0.037 A 
HETATM   25  C   UNL     1       6.002  32.043  61.364  1.00  0.00     0.061 A 
HETATM   26  C   UNL     1       6.512  32.492  62.562  1.00  0.00     0.065 A 
HETATM   27  C   UNL     1       7.878  32.508  62.838  1.00  0.00     0.063 A 
HETATM   28  N   UNL     1       5.849  33.002  63.674  1.00  0.00    -0.306 N 
HETATM   29  N   UNL     1       8.053  33.020  64.117  1.00  0.00    -0.307 N 
HETATM   30  C   UNL     1       8.809  32.075  61.930  1.00  0.00     0.034 A 
HETATM   31  C   UNL     1       6.797  33.337  64.651  1.00  0.00     0.325 A 
HETATM   32  H   UNL     1       8.923  33.158  64.605  1.00  0.00     0.170 HD
HETATM   33  O   UNL     1       6.573  33.816  65.748  1.00  0.00    -0.247 OA
HETATM   34  C   UNL     1       8.316  31.624  60.700  1.00  0.00     0.032 A 
HETATM   35  H   UNL     1       4.855  33.120  63.789  1.00  0.00     0.170 HD
ENDBRANCH  21  24
ENDBRANCH  19  20
ENDBRANCH   1  19
TORSDOF 6
ENDMDL
MODEL 5
REMARK VINA RESULT:      -9.9      2.311      3.643
REMARK  6 active torsions:
REMARK  status: ('A' for Active; 'I' for Inactive)
REMARK    1  A    between atoms: C_3  and  C_4 
REMARK    2  A    between atoms: N_5  and  C_6 
REMARK    3  A    between atoms: C_11  and  S_12 
REMARK    4  A    between atoms: S_12  and  C_13 
REMARK    5  A    between atoms: C_13  and  C_14 
REMARK       I    between atoms: C_14  and  N_15 
REMARK    6  A    between atoms: N_15  and  C_16 
ROOT
HETATM    1  S   UNL     1       6.407  31.637  58.661  1.00  0.00    -0.081 SA
ENDROOT
BRANCH   1   2
HETATM    2  C   UNL     1       6.171  30.609  57.291  1.00  0.00     0.192 C 
HETATM    3  N   UNL     1       7.004  29.586  56.915  1.00  0.00    -0.302 N 
HETATM    4  C   UNL     1       6.154  28.689  56.277  1.00  0.00     0.166 C 
HETATM    5  N   UNL     1       5.016  29.307  56.014  1.00  0.00    -0.128 NA
HETATM    6  N   UNL     1       5.023  30.510  56.661  1.00  0.00    -0.122 NA
BRANCH   3   7
HETATM    7  C   UNL     1       8.416  29.374  57.190  1.00  0.00     0.094 C 
HETATM    8  C   UNL     1       9.297  29.435  55.927  1.00  0.00     0.026 C 
HETATM    9  C   UNL     1      10.725  29.569  56.438  1.00  0.00     0.002 C 
HETATM   10  C   UNL     1      10.619  30.231  57.802  1.00  0.00     0.002 C 
HETATM   11  C   UNL     1       9.129  30.416  58.068  1.00  0.00     0.026 C 
ENDBRANCH   3   7
BRANCH   4  12
HETATM   12  C   UNL     1       6.400  27.264  56.064  1.00  0.00     0.034 A 
HETATM   13  C   UNL     1       6.124  26.368  57.114  1.00  0.00     0.017 A 
HETATM   14  C   UNL     1       6.301  24.993  56.952  1.00  0.00     0.001 A 
HETATM   15  C   UNL     1       6.755  24.493  55.736  1.00  0.00     0.002 A 
HETATM   16  C   UNL     1       7.027  25.366  54.681  1.00  0.00     0.025 A 
HETATM   17  C   UNL     1       6.846  26.745  54.839  1.00  0.00     0.048 A 
HETATM   18 CL   UNL     1       7.235  27.761  53.496  1.00  0.00    -0.083 Cl
ENDBRANCH   4  12
ENDBRANCH   1   2
BRANCH   1  19
HETATM   19  C   UNL     1       4.675  31.848  59.185  1.00  0.00     0.185 C 
BRANCH  19  20
HETATM   20  C   UNL     1       4.595  32.495  60.566  1.00  0.00     0.231 C 
HETATM   21  N   UNL     1       5.700  32.220  61.355  1.00  0.00    -0.326 N 
HETATM   22  H   UNL     1       6.512  31.844  60.863  1.00  0.00     0.169 HD
HETATM   23  O   UNL     1       3.645  33.209  60.881  1.00  0.00    -0.272 OA
BRANCH  21  24
HETATM   24  C   UNL     1       5.952  32.648  62.675  1.00  0.00     0.037 A 
HETATM   25  C   UNL     1       4.946  32.963  63.594  1.00  0.00     0.061 A 
HETATM   26  C   UNL     1       5.352  33.408  64.833  1.00  0.00     0.065 A 
HETATM   27  C   UNL     1       6.695  33.529  65.184  1.00  0.00     0.063 A 
HETATM   28  N   UNL     1       4.590  33.816  65.922  1.00  0.00    -0.306 N 
HETATM   29  N   UNL     1       6.758  34.005  66.488  1.00  0.00    -0.307 N 
HETATM   30  C   UNL     1       7.706  33.212  64.316  1.00  0.00     0.034 A 
HETATM   31  C   UNL     1       5.453  34.193  66.962  1.00  0.00     0.325 A 
HETATM   32  H   UNL     1       7.585  34.198  67.028  1.00  0.00     0.170 HD
HETATM   33  O   UNL     1       5.130  34.610  68.060  1.00  0.00    -0.247 OA
HETATM   34  C   UNL     1       7.319  32.768  63.045  1.00  0.00     0.032 A 
HETATM   35  H   UNL     1       3.585  33.845  65.987  1.00  0.00     0.170 HD
ENDBRANCH  21  24
ENDBRANCH  19  20
ENDBRANCH   1  19
TORSDOF 6
ENDMDL
MODEL 6
REMARK VINA RESULT:      -9.9      5.692      9.618
REMARK  6 active torsions:
REMARK  status: ('A' for Active; 'I' for Inactive)
REMARK    1  A    between atoms: C_3  and  C_4 
REMARK    2  A    between atoms: N_5  and  C_6 
REMARK    3  A    between atoms: C_11  and  S_12 
REMARK    4  A    between atoms: S_12  and  C_13 
REMARK    5  A    between atoms: C_13  and  C_14 
REMARK       I    between atoms: C_14  and  N_15 
REMARK    6  A    between atoms: N_15  and  C_16 
ROOT
HETATM    1  S   UNL     1       5.029  29.020  56.406  1.00  0.00    -0.081 SA
ENDROOT
BRANCH   1   2
HETATM    2  C   UNL     1       5.541  27.738  55.364  1.00  0.00     0.192 C 
HETATM    3  N   UNL     1       6.776  27.141  55.392  1.00  0.00    -0.302 N 
HETATM    4  C   UNL     1       6.525  25.849  54.940  1.00  0.00     0.166 C 
HETATM    5  N   UNL     1       5.327  25.827  54.383  1.00  0.00    -0.128 NA
HETATM    6  N   UNL     1       4.704  27.011  54.661  1.00  0.00    -0.122 NA
BRANCH   3   7
HETATM    7  C   UNL     1       8.052  27.641  55.876  1.00  0.00     0.094 C 
HETATM    8  C   UNL     1       8.508  28.931  55.167  1.00  0.00     0.026 C 
HETATM    9  C   UNL     1       9.625  29.495  56.034  1.00  0.00     0.002 C 
HETATM   10  C   UNL     1       9.357  28.986  57.441  1.00  0.00     0.002 C 
HETATM   11  C   UNL     1       8.121  28.100  57.343  1.00  0.00     0.026 C 
ENDBRANCH   3   7
BRANCH   4  12
HETATM   12  C   UNL     1       7.363  24.673  55.168  1.00  0.00     0.034 A 
HETATM   13  C   UNL     1       7.507  24.194  56.484  1.00  0.00     0.017 A 
HETATM   14  C   UNL     1       8.262  23.051  56.755  1.00  0.00     0.001 A 
HETATM   15  C   UNL     1       8.882  22.369  55.713  1.00  0.00     0.002 A 
HETATM   16  C   UNL     1       8.743  22.826  54.401  1.00  0.00     0.025 A 
HETATM   17  C   UNL     1       7.984  23.969  54.126  1.00  0.00     0.048 A 
HETATM   18 CL   UNL     1       7.888  24.488  52.480  1.00  0.00    -0.083 Cl
ENDBRANCH   4  12
ENDBRANCH   1   2
BRANCH   1  19
HETATM   19  C   UNL     1       5.050  30.402  55.220  1.00  0.00     0.185 C 
BRANCH  19  20
HETATM   20  C   UNL     1       4.431  29.990  53.886  1.00  0.00     0.231 C 
HETATM   21  N   UNL     1       5.378  29.615  52.946  1.00  0.00    -0.326 N 
HETATM   22  H   UNL     1       6.313  29.429  53.310  1.00  0.00     0.169 HD
HETATM   23  O   UNL     1       3.213  29.972  53.727  1.00  0.00    -0.272 OA
BRANCH  21  24
HETATM   24  C   UNL     1       5.161  29.187  51.620  1.00  0.00     0.037 A 
HETATM   25  C   UNL     1       4.567  27.966  51.286  1.00  0.00     0.061 A 
HETATM   26  C   UNL     1       4.463  27.670  49.945  1.00  0.00     0.065 A 
HETATM   27  C   UNL     1       4.903  28.539  48.949  1.00  0.00     0.063 A 
HETATM   28  N   UNL     1       3.952  26.535  49.324  1.00  0.00    -0.306 N 
HETATM   29  N   UNL     1       4.660  27.941  47.718  1.00  0.00    -0.307 N 
HETATM   30  C   UNL     1       5.473  29.751  49.239  1.00  0.00     0.034 A 
HETATM   31  C   UNL     1       4.069  26.689  47.934  1.00  0.00     0.325 A 
HETATM   32  H   UNL     1       4.864  28.317  46.807  1.00  0.00     0.170 HD
HETATM   33  O   UNL     1       3.731  25.887  47.082  1.00  0.00    -0.247 OA
HETATM   34  C   UNL     1       5.600  30.070  50.596  1.00  0.00     0.032 A 
HETATM   35  H   UNL     1       3.555  25.723  49.769  1.00  0.00     0.170 HD
ENDBRANCH  21  24
ENDBRANCH  19  20
ENDBRANCH   1  19
TORSDOF 6
ENDMDL
MODEL 7
REMARK VINA RESULT:      -9.7      6.988     11.684
REMARK  6 active torsions:
REMARK  status: ('A' for Active; 'I' for Inactive)
REMARK    1  A    between atoms: C_3  and  C_4 
REMARK    2  A    between atoms: N_5  and  C_6 
REMARK    3  A    between atoms: C_11  and  S_12 
REMARK    4  A    between atoms: S_12  and  C_13 
REMARK    5  A    between atoms: C_13  and  C_14 
REMARK       I    between atoms: C_14  and  N_15 
REMARK    6  A    between atoms: N_15  and  C_16 
ROOT
HETATM    1  S   UNL     1       5.647  26.524  52.408  1.00  0.00    -0.081 SA
ENDROOT
BRANCH   1   2
HETATM    2  C   UNL     1       7.005  25.551  52.857  1.00  0.00     0.192 C 
HETATM    3  N   UNL     1       7.277  25.109  54.127  1.00  0.00    -0.302 N 
HETATM    4  C   UNL     1       7.963  23.918  53.919  1.00  0.00     0.166 C 
HETATM    5  N   UNL     1       8.343  23.870  52.654  1.00  0.00    -0.128 NA
HETATM    6  N   UNL     1       7.731  24.891  51.984  1.00  0.00    -0.122 NA
BRANCH   3   7
HETATM    7  C   UNL     1       6.872  25.646  55.416  1.00  0.00     0.094 C 
HETATM    8  C   UNL     1       7.361  27.087  55.656  1.00  0.00     0.026 C 
HETATM    9  C   UNL     1       6.552  27.596  56.840  1.00  0.00     0.002 C 
HETATM   10  C   UNL     1       5.253  26.808  56.826  1.00  0.00     0.002 C 
HETATM   11  C   UNL     1       5.365  25.827  55.665  1.00  0.00     0.026 C 
ENDBRANCH   3   7
BRANCH   4  12
HETATM   12  C   UNL     1       8.115  22.826  54.879  1.00  0.00     0.034 A 
HETATM   13  C   UNL     1       8.349  23.145  56.230  1.00  0.00     0.017 A 
HETATM   14  C   UNL     1       8.462  22.144  57.197  1.00  0.00     0.001 A 
HETATM   15  C   UNL     1       8.339  20.809  56.827  1.00  0.00     0.002 A 
HETATM   16  C   UNL     1       8.100  20.474  55.493  1.00  0.00     0.025 A 
HETATM   17  C   UNL     1       7.983  21.476  54.522  1.00  0.00     0.048 A 
HETATM   18 CL   UNL     1       7.718  20.978  52.888  1.00  0.00    -0.083 Cl
ENDBRANCH   4  12
ENDBRANCH   1   2
BRANCH   1  19
HETATM   19  C   UNL     1       5.467  26.010  50.670  1.00  0.00     0.185 C 
BRANCH  19  20
HETATM   20  C   UNL     1       4.655  27.032  49.877  1.00  0.00     0.231 C 
HETATM   21  N   UNL     1       3.491  26.502  49.346  1.00  0.00    -0.326 N 
HETATM   22  H   UNL     1       3.198  25.603  49.732  1.00  0.00     0.169 HD
HETATM   23  O   UNL     1       5.021  28.202  49.784  1.00  0.00    -0.272 OA
BRANCH  21  24
HETATM   24  C   UNL     1       2.518  27.156  48.563  1.00  0.00     0.037 A 
HETATM   25  C   UNL     1       1.917  26.588  47.436  1.00  0.00     0.061 A 
HETATM   26  C   UNL     1       1.014  27.370  46.750  1.00  0.00     0.065 A 
HETATM   27  C   UNL     1       0.683  28.662  47.152  1.00  0.00     0.063 A 
HETATM   28  N   UNL     1       0.294  27.087  45.594  1.00  0.00    -0.306 N 
HETATM   29  N   UNL     1      -0.242  29.171  46.248  1.00  0.00    -0.307 N 
HETATM   30  C   UNL     1       1.237  29.244  48.262  1.00  0.00     0.034 A 
HETATM   31  C   UNL     1      -0.493  28.202  45.268  1.00  0.00     0.325 A 
HETATM   32  H   UNL     1      -0.675  30.079  46.265  1.00  0.00     0.170 HD
HETATM   33  O   UNL     1      -1.243  28.309  44.314  1.00  0.00    -0.247 OA
HETATM   34  C   UNL     1       2.167  28.473  48.970  1.00  0.00     0.032 A 
HETATM   35  H   UNL     1       0.311  26.234  45.058  1.00  0.00     0.170 HD
ENDBRANCH  21  24
ENDBRANCH  19  20
ENDBRANCH   1  19
TORSDOF 6
ENDMDL
MODEL 8
REMARK VINA RESULT:      -9.6      5.485     11.092
REMARK  6 active torsions:
REMARK  status: ('A' for Active; 'I' for Inactive)
REMARK    1  A    between atoms: C_3  and  C_4 
REMARK    2  A    between atoms: N_5  and  C_6 
REMARK    3  A    between atoms: C_11  and  S_12 
REMARK    4  A    between atoms: S_12  and  C_13 
REMARK    5  A    between atoms: C_13  and  C_14 
REMARK       I    between atoms: C_14  and  N_15 
REMARK    6  A    between atoms: N_15  and  C_16 
ROOT
HETATM    1  S   UNL     1       3.842  32.886  62.225  1.00  0.00    -0.081 SA
ENDROOT
BRANCH   1   2
HETATM    2  C   UNL     1       3.762  34.558  62.659  1.00  0.00     0.192 C 
HETATM    3  N   UNL     1       4.806  35.300  63.152  1.00  0.00    -0.302 N 
HETATM    4  C   UNL     1       4.520  36.591  62.723  1.00  0.00     0.166 C 
HETATM    5  N   UNL     1       3.261  36.631  62.324  1.00  0.00    -0.128 NA
HETATM    6  N   UNL     1       2.788  35.350  62.273  1.00  0.00    -0.122 NA
BRANCH   3   7
HETATM    7  C   UNL     1       6.006  34.881  63.856  1.00  0.00     0.094 C 
HETATM    8  C   UNL     1       5.723  34.328  65.267  1.00  0.00     0.026 C 
HETATM    9  C   UNL     1       7.000  33.613  65.684  1.00  0.00     0.002 C 
HETATM   10  C   UNL     1       7.678  33.184  64.393  1.00  0.00     0.002 C 
HETATM   11  C   UNL     1       6.801  33.706  63.261  1.00  0.00     0.026 C 
ENDBRANCH   3   7
BRANCH   4  12
HETATM   12  C   UNL     1       5.476  37.690  62.586  1.00  0.00     0.034 A 
HETATM   13  C   UNL     1       5.945  38.017  61.300  1.00  0.00     0.017 A 
HETATM   14  C   UNL     1       6.826  39.082  61.105  1.00  0.00     0.001 A 
HETATM   15  C   UNL     1       7.250  39.837  62.194  1.00  0.00     0.002 A 
HETATM   16  C   UNL     1       6.789  39.531  63.476  1.00  0.00     0.025 A 
HETATM   17  C   UNL     1       5.902  38.466  63.673  1.00  0.00     0.048 A 
HETATM   18 CL   UNL     1       5.404  38.131  65.294  1.00  0.00    -0.083 Cl
ENDBRANCH   4  12
ENDBRANCH   1   2
BRANCH   1  19
HETATM   19  C   UNL     1       3.434  33.012  60.454  1.00  0.00     0.185 C 
BRANCH  19  20
HETATM   20  C   UNL     1       4.694  32.934  59.594  1.00  0.00     0.231 C 
HETATM   21  N   UNL     1       5.676  32.129  60.147  1.00  0.00    -0.326 N 
HETATM   22  H   UNL     1       5.370  31.513  60.903  1.00  0.00     0.169 HD
HETATM   23  O   UNL     1       4.763  33.513  58.512  1.00  0.00    -0.272 OA
BRANCH  21  24
HETATM   24  C   UNL     1       6.955  31.840  59.629  1.00  0.00     0.037 A 
HETATM   25  C   UNL     1       7.182  30.959  58.568  1.00  0.00     0.061 A 
HETATM   26  C   UNL     1       8.494  30.748  58.203  1.00  0.00     0.065 A 
HETATM   27  C   UNL     1       9.560  31.386  58.832  1.00  0.00     0.063 A 
HETATM   28  N   UNL     1       9.018  29.917  57.218  1.00  0.00    -0.306 N 
HETATM   29  N   UNL     1      10.736  30.952  58.234  1.00  0.00    -0.307 N 
HETATM   30  C   UNL     1       9.374  32.270  59.863  1.00  0.00     0.034 A 
HETATM   31  C   UNL     1      10.416  30.032  57.227  1.00  0.00     0.325 A 
HETATM   32  H   UNL     1      11.676  31.229  58.464  1.00  0.00     0.170 HD
HETATM   33  O   UNL     1      11.199  29.442  56.504  1.00  0.00    -0.247 OA
HETATM   34  C   UNL     1       8.050  32.493  60.261  1.00  0.00     0.032 A 
HETATM   35  H   UNL     1       8.506  29.321  56.587  1.00  0.00     0.170 HD
ENDBRANCH  21  24
ENDBRANCH  19  20
ENDBRANCH   1  19
TORSDOF 6
ENDMDL
MODEL 9
REMARK VINA RESULT:      -9.5      3.805      6.063
REMARK  6 active torsions:
REMARK  status: ('A' for Active; 'I' for Inactive)
REMARK    1  A    between atoms: C_3  and  C_4 
REMARK    2  A    between atoms: N_5  and  C_6 
REMARK    3  A    between atoms: C_11  and  S_12 
REMARK    4  A    between atoms: S_12  and  C_13 
REMARK    5  A    between atoms: C_13  and  C_14 
REMARK       I    between atoms: C_14  and  N_15 
REMARK    6  A    between atoms: N_15  and  C_16 
ROOT
HETATM    1  S   UNL     1       4.134  32.611  60.835  1.00  0.00    -0.081 SA
ENDROOT
BRANCH   1   2
HETATM    2  C   UNL     1       5.274  32.510  59.539  1.00  0.00     0.192 C 
HETATM    3  N   UNL     1       6.475  31.849  59.591  1.00  0.00    -0.302 N 
HETATM    4  C   UNL     1       6.693  31.463  58.272  1.00  0.00     0.166 C 
HETATM    5  N   UNL     1       5.865  32.141  57.496  1.00  0.00    -0.128 NA
HETATM    6  N   UNL     1       4.966  32.790  58.294  1.00  0.00    -0.122 NA
BRANCH   3   7
HETATM    7  C   UNL     1       7.308  31.500  60.730  1.00  0.00     0.094 C 
HETATM    8  C   UNL     1       8.662  32.237  60.742  1.00  0.00     0.026 C 
HETATM    9  C   UNL     1       9.213  32.047  62.147  1.00  0.00     0.002 C 
HETATM   10  C   UNL     1       8.003  31.845  63.045  1.00  0.00     0.002 C 
HETATM   11  C   UNL     1       6.785  31.873  62.127  1.00  0.00     0.026 C 
ENDBRANCH   3   7
BRANCH   4  12
HETATM   12  C   UNL     1       7.572  30.386  57.818  1.00  0.00     0.034 A 
HETATM   13  C   UNL     1       8.957  30.629  57.756  1.00  0.00     0.017 A 
HETATM   14  C   UNL     1       9.847  29.625  57.369  1.00  0.00     0.001 A 
HETATM   15  C   UNL     1       9.365  28.363  57.042  1.00  0.00     0.002 A 
HETATM   16  C   UNL     1       7.994  28.102  57.105  1.00  0.00     0.025 A 
HETATM   17  C   UNL     1       7.100  29.105  57.496  1.00  0.00     0.048 A 
HETATM   18 CL   UNL     1       5.417  28.712  57.518  1.00  0.00    -0.083 Cl
ENDBRANCH   4  12
ENDBRANCH   1   2
BRANCH   1  19
HETATM   19  C   UNL     1       3.791  34.400  60.800  1.00  0.00     0.185 C 
BRANCH  19  20
HETATM   20  C   UNL     1       4.141  35.052  62.136  1.00  0.00     0.231 C 
HETATM   21  N   UNL     1       4.198  34.144  63.181  1.00  0.00    -0.326 N 
HETATM   22  H   UNL     1       4.244  33.160  62.910  1.00  0.00     0.169 HD
HETATM   23  O   UNL     1       4.377  36.255  62.215  1.00  0.00    -0.272 OA
BRANCH  21  24
HETATM   24  C   UNL     1       4.487  34.399  64.537  1.00  0.00     0.037 A 
HETATM   25  C   UNL     1       5.702  34.073  65.148  1.00  0.00     0.061 A 
HETATM   26  C   UNL     1       5.816  34.348  66.493  1.00  0.00     0.065 A 
HETATM   27  C   UNL     1       4.791  34.939  67.228  1.00  0.00     0.063 A 
HETATM   28  N   UNL     1       6.878  34.111  67.359  1.00  0.00    -0.306 N 
HETATM   29  N   UNL     1       5.224  35.070  68.542  1.00  0.00    -0.307 N 
HETATM   30  C   UNL     1       3.595  35.289  66.659  1.00  0.00     0.034 A 
HETATM   31  C   UNL     1       6.523  34.555  68.641  1.00  0.00     0.325 A 
HETATM   32  H   UNL     1       4.713  35.462  69.316  1.00  0.00     0.170 HD
HETATM   33  O   UNL     1       7.207  34.497  69.647  1.00  0.00    -0.247 OA
HETATM   34  C   UNL     1       3.449  35.010  65.294  1.00  0.00     0.032 A 
HETATM   35  H   UNL     1       7.767  33.694  67.134  1.00  0.00     0.170 HD
ENDBRANCH  21  24
ENDBRANCH  19  20
ENDBRANCH   1  19
TORSDOF 6
ENDMDL
MODEL 10
REMARK VINA RESULT:      -9.4      8.006     11.140
REMARK  6 active torsions:
REMARK  status: ('A' for Active; 'I' for Inactive)
REMARK    1  A    between atoms: C_3  and  C_4 
REMARK    2  A    between atoms: N_5  and  C_6 
REMARK    3  A    between atoms: C_11  and  S_12 
REMARK    4  A    between atoms: S_12  and  C_13 
REMARK    5  A    between atoms: C_13  and  C_14 
REMARK       I    between atoms: C_14  and  N_15 
REMARK    6  A    between atoms: N_15  and  C_16 
ROOT
HETATM    1  S   UNL     1       4.735  27.859  51.455  1.00  0.00    -0.081 SA
ENDROOT
BRANCH   1   2
HETATM    2  C   UNL     1       5.315  28.924  50.222  1.00  0.00     0.192 C 
HETATM    3  N   UNL     1       4.792  29.032  48.959  1.00  0.00    -0.302 N 
HETATM    4  C   UNL     1       5.062  30.350  48.605  1.00  0.00     0.166 C 
HETATM    5  N   UNL     1       5.956  30.835  49.449  1.00  0.00    -0.128 NA
HETATM    6  N   UNL     1       6.106  29.942  50.472  1.00  0.00    -0.122 NA
BRANCH   3   7
HETATM    7  C   UNL     1       4.026  28.079  48.173  1.00  0.00     0.094 C 
HETATM    8  C   UNL     1       4.634  26.663  48.174  1.00  0.00     0.026 C 
HETATM    9  C   UNL     1       3.537  25.752  47.641  1.00  0.00     0.002 C 
HETATM   10  C   UNL     1       2.225  26.443  47.973  1.00  0.00     0.002 C 
HETATM   11  C   UNL     1       2.597  27.760  48.645  1.00  0.00     0.026 C 
ENDBRANCH   3   7
BRANCH   4  12
HETATM   12  C   UNL     1       4.375  31.130  47.576  1.00  0.00     0.034 A 
HETATM   13  C   UNL     1       5.002  31.298  46.328  1.00  0.00     0.017 A 
HETATM   14  C   UNL     1       4.375  31.998  45.296  1.00  0.00     0.001 A 
HETATM   15  C   UNL     1       3.109  32.537  45.496  1.00  0.00     0.002 A 
HETATM   16  C   UNL     1       2.468  32.374  46.726  1.00  0.00     0.025 A 
HETATM   17  C   UNL     1       3.094  31.669  47.762  1.00  0.00     0.048 A 
HETATM   18 CL   UNL     1       2.249  31.539  49.264  1.00  0.00    -0.083 Cl
ENDBRANCH   4  12
ENDBRANCH   1   2
BRANCH   1  19
HETATM   19  C   UNL     1       5.717  28.461  52.865  1.00  0.00     0.185 C 
BRANCH  19  20
HETATM   20  C   UNL     1       6.649  27.371  53.391  1.00  0.00     0.231 C 
HETATM   21  N   UNL     1       6.052  26.122  53.424  1.00  0.00    -0.326 N 
HETATM   22  H   UNL     1       5.186  26.030  52.890  1.00  0.00     0.169 HD
HETATM   23  O   UNL     1       7.812  27.621  53.700  1.00  0.00    -0.272 OA
BRANCH  21  24
HETATM   24  C   UNL     1       6.615  24.902  53.853  1.00  0.00     0.037 A 
HETATM   25  C   UNL     1       7.078  23.911  52.982  1.00  0.00     0.061 A 
HETATM   26  C   UNL     1       7.563  22.756  53.555  1.00  0.00     0.065 A 
HETATM   27  C   UNL     1       7.619  22.568  54.934  1.00  0.00     0.063 A 
HETATM   28  N   UNL     1       8.055  21.605  52.949  1.00  0.00    -0.306 N 
HETATM   29  N   UNL     1       8.149  21.306  55.175  1.00  0.00    -0.307 N 
HETATM   30  C   UNL     1       7.192  23.524  55.817  1.00  0.00     0.034 A 
HETATM   31  C   UNL     1       8.424  20.691  53.947  1.00  0.00     0.325 A 
HETATM   32  H   UNL     1       8.316  20.876  56.070  1.00  0.00     0.170 HD
HETATM   33  O   UNL     1       8.885  19.576  53.778  1.00  0.00    -0.247 OA
HETATM   34  C   UNL     1       6.683  24.704  55.260  1.00  0.00     0.032 A 
HETATM   35  H   UNL     1       8.148  21.427  51.961  1.00  0.00     0.170 HD
ENDBRANCH  21  24
ENDBRANCH  19  20
ENDBRANCH   1  19
TORSDOF 6
ENDMDL
