MODEL 1
REMARK VINA RESULT:     -11.2      0.000      0.000
REMARK  5 active torsions:
REMARK  status: ('A' for Active; 'I' for Inactive)
REMARK    1  A    between atoms: N_3  and  C_4 
REMARK    2  A    between atoms: C_6  and  C_7 
REMARK    3  A    between atoms: C_15  and  C_16 
REMARK       I    between atoms: C_16  and  N_17 
REMARK    4  A    between atoms: N_17  and  N_18 
REMARK       I    between atoms: N_18  and  C_19 
REMARK    5  A    between atoms: C_19  and  C_20 
ROOT
HETATM    1  C   UNL     1       4.764  24.970  52.899  1.00  0.00     0.070 C 
HETATM    2  C   UNL     1       5.622  25.786  53.839  1.00  0.00     0.036 C 
HETATM    3  N   UNL     1       6.682  25.191  54.539  1.00  0.00    -0.238 N 
HETATM    4  N   UNL     1       7.289  25.791  55.621  1.00  0.00    -0.158 NA
HETATM    5  C   UNL     1       7.006  27.032  55.894  1.00  0.00     0.196 C 
HETATM    6  C   UNL     1       6.049  27.811  55.035  1.00  0.00     0.209 C 
HETATM    7  O   UNL     1       5.930  29.018  55.183  1.00  0.00    -0.286 OA
HETATM    8  C   UNL     1       5.272  27.066  54.044  1.00  0.00     0.084 C 
ENDROOT
BRANCH   5   9
HETATM    9  C   UNL     1       7.679  27.641  57.115  1.00  0.00     0.294 C 
HETATM   10  N   UNL     1       8.101  28.949  56.979  1.00  0.00    -0.261 N 
HETATM   11  H   UNL     1       7.771  29.550  56.215  1.00  0.00     0.190 HD
HETATM   12  O   UNL     1       7.818  26.989  58.144  1.00  0.00    -0.264 OA
BRANCH  10  13
HETATM   13  N   UNL     1       8.598  29.595  58.121  1.00  0.00    -0.262 N 
HETATM   14  C   UNL     1       7.780  30.460  58.816  1.00  0.00     0.286 C 
HETATM   15  O   UNL     1       6.654  30.755  58.416  1.00  0.00    -0.264 OA
HETATM   16  H   UNL     1       9.478  29.249  58.495  1.00  0.00     0.190 HD
BRANCH  14  17
HETATM   17  C   UNL     1       8.333  30.989  60.043  1.00  0.00     0.102 A 
HETATM   18  N   UNL     1       7.696  30.804  61.254  1.00  0.00    -0.361 N 
HETATM   19  H   UNL     1       6.823  30.299  61.357  1.00  0.00     0.165 HD
HETATM   20  C   UNL     1       8.406  31.396  62.262  1.00  0.00     0.088 A 
HETATM   21  C   UNL     1       9.522  31.976  61.706  1.00  0.00     0.019 A 
HETATM   22  C   UNL     1       9.478  31.722  60.312  1.00  0.00     0.036 A 
ENDBRANCH  14  17
ENDBRANCH  10  13
ENDBRANCH   5   9
BRANCH   3  23
HETATM   23  C   UNL     1       7.215  23.891  54.265  1.00  0.00     0.059 A 
HETATM   24  C   UNL     1       7.337  22.944  55.300  1.00  0.00     0.047 A 
HETATM   25  C   UNL     1       7.875  21.666  55.074  1.00  0.00     0.050 A 
HETATM   26  C   UNL     1       8.298  21.328  53.782  1.00  0.00     0.016 A 
HETATM   27  C   UNL     1       8.211  22.259  52.749  1.00  0.00     0.003 A 
HETATM   28  C   UNL     1       7.684  23.530  52.993  1.00  0.00     0.031 A 
BRANCH  25  29
HETATM   29  C   UNL     1       7.973  20.659  56.193  1.00  0.00     0.417 C 
HETATM   30  F   UNL     1       8.328  21.198  57.391  1.00  0.00    -0.166 F 
HETATM   31  F   UNL     1       6.792  20.013  56.409  1.00  0.00    -0.166 F 
HETATM   32  F   UNL     1       8.889  19.681  55.940  1.00  0.00    -0.166 F 
ENDBRANCH  25  29
ENDBRANCH   3  23
TORSDOF 5
ENDMDL
MODEL 2
REMARK VINA RESULT:     -10.0      3.250      5.729
REMARK  5 active torsions:
REMARK  status: ('A' for Active; 'I' for Inactive)
REMARK    1  A    between atoms: N_3  and  C_4 
REMARK    2  A    between atoms: C_6  and  C_7 
REMARK    3  A    between atoms: C_15  and  C_16 
REMARK       I    between atoms: C_16  and  N_17 
REMARK    4  A    between atoms: N_17  and  N_18 
REMARK       I    between atoms: N_18  and  C_19 
REMARK    5  A    between atoms: C_19  and  C_20 
ROOT
HETATM    1  C   UNL     1      10.475  29.711  56.096  1.00  0.00     0.070 C 
HETATM    2  C   UNL     1       9.752  30.081  57.371  1.00  0.00     0.036 C 
HETATM    3  N   UNL     1       8.524  29.486  57.696  1.00  0.00    -0.238 N 
HETATM    4  N   UNL     1       7.683  29.995  58.660  1.00  0.00    -0.158 NA
HETATM    5  C   UNL     1       8.115  30.949  59.435  1.00  0.00     0.196 C 
HETATM    6  C   UNL     1       9.516  31.476  59.298  1.00  0.00     0.209 C 
HETATM    7  O   UNL     1       9.976  32.233  60.139  1.00  0.00    -0.286 OA
HETATM    8  C   UNL     1      10.283  31.059  58.123  1.00  0.00     0.084 C 
ENDROOT
BRANCH   5   9
HETATM    9  C   UNL     1       7.140  31.498  60.465  1.00  0.00     0.294 C 
HETATM   10  N   UNL     1       7.336  31.074  61.765  1.00  0.00    -0.261 N 
HETATM   11  H   UNL     1       8.211  30.628  62.065  1.00  0.00     0.190 HD
HETATM   12  O   UNL     1       6.248  32.272  60.133  1.00  0.00    -0.264 OA
BRANCH  10  13
HETATM   13  N   UNL     1       6.551  31.663  62.767  1.00  0.00    -0.262 N 
HETATM   14  C   UNL     1       7.126  32.577  63.624  1.00  0.00     0.286 C 
HETATM   15  O   UNL     1       8.330  32.827  63.597  1.00  0.00    -0.264 OA
HETATM   16  H   UNL     1       5.544  31.533  62.695  1.00  0.00     0.190 HD
BRANCH  14  17
HETATM   17  C   UNL     1       6.219  33.220  64.548  1.00  0.00     0.102 A 
HETATM   18  N   UNL     1       4.851  33.161  64.368  1.00  0.00    -0.361 N 
HETATM   19  H   UNL     1       4.408  32.676  63.596  1.00  0.00     0.165 HD
HETATM   20  C   UNL     1       4.209  33.844  65.364  1.00  0.00     0.088 A 
HETATM   21  C   UNL     1       5.165  34.357  66.207  1.00  0.00     0.019 A 
HETATM   22  C   UNL     1       6.430  33.967  65.697  1.00  0.00     0.036 A 
ENDBRANCH  14  17
ENDBRANCH  10  13
ENDBRANCH   5   9
BRANCH   3  23
HETATM   23  C   UNL     1       7.973  28.338  57.041  1.00  0.00     0.059 A 
HETATM   24  C   UNL     1       8.455  27.050  57.347  1.00  0.00     0.047 A 
HETATM   25  C   UNL     1       7.955  25.902  56.710  1.00  0.00     0.050 A 
HETATM   26  C   UNL     1       6.949  26.047  55.747  1.00  0.00     0.016 A 
HETATM   27  C   UNL     1       6.476  27.314  55.408  1.00  0.00     0.003 A 
HETATM   28  C   UNL     1       6.993  28.447  56.043  1.00  0.00     0.031 A 
BRANCH  25  29
HETATM   29  C   UNL     1       8.469  24.531  57.072  1.00  0.00     0.417 C 
HETATM   30  F   UNL     1       9.417  24.055  56.221  1.00  0.00    -0.166 F 
HETATM   31  F   UNL     1       9.032  24.504  58.313  1.00  0.00    -0.166 F 
HETATM   32  F   UNL     1       7.482  23.590  57.094  1.00  0.00    -0.166 F 
ENDBRANCH  25  29
ENDBRANCH   3  23
TORSDOF 5
ENDMDL
MODEL 3
REMARK VINA RESULT:      -9.8      3.616      7.535
REMARK  5 active torsions:
REMARK  status: ('A' for Active; 'I' for Inactive)
REMARK    1  A    between atoms: N_3  and  C_4 
REMARK    2  A    between atoms: C_6  and  C_7 
REMARK    3  A    between atoms: C_15  and  C_16 
REMARK       I    between atoms: C_16  and  N_17 
REMARK    4  A    between atoms: N_17  and  N_18 
REMARK       I    between atoms: N_18  and  C_19 
REMARK    5  A    between atoms: C_19  and  C_20 
ROOT
HETATM    1  C   UNL     1       8.114  25.588  57.019  1.00  0.00     0.070 C 
HETATM    2  C   UNL     1       6.965  26.062  56.159  1.00  0.00     0.036 C 
HETATM    3  N   UNL     1       6.649  25.405  54.960  1.00  0.00    -0.238 N 
HETATM    4  N   UNL     1       5.835  25.962  53.999  1.00  0.00    -0.158 NA
HETATM    5  C   UNL     1       5.178  27.050  54.283  1.00  0.00     0.196 C 
HETATM    6  C   UNL     1       5.286  27.683  55.642  1.00  0.00     0.209 C 
HETATM    7  O   UNL     1       4.532  28.590  55.962  1.00  0.00    -0.286 OA
HETATM    8  C   UNL     1       6.327  27.180  56.540  1.00  0.00     0.084 C 
ENDROOT
BRANCH   5   9
HETATM    9  C   UNL     1       4.315  27.644  53.179  1.00  0.00     0.294 C 
HETATM   10  N   UNL     1       4.590  27.206  51.899  1.00  0.00    -0.261 N 
HETATM   11  H   UNL     1       5.154  26.366  51.721  1.00  0.00     0.190 HD
HETATM   12  O   UNL     1       3.433  28.455  53.442  1.00  0.00    -0.264 OA
BRANCH  10  13
HETATM   13  N   UNL     1       3.729  27.618  50.871  1.00  0.00    -0.262 N 
HETATM   14  C   UNL     1       3.909  27.116  49.599  1.00  0.00     0.286 C 
HETATM   15  O   UNL     1       4.856  26.384  49.315  1.00  0.00    -0.264 OA
HETATM   16  H   UNL     1       2.892  28.123  51.151  1.00  0.00     0.190 HD
BRANCH  14  17
HETATM   17  C   UNL     1       2.907  27.502  48.630  1.00  0.00     0.102 A 
HETATM   18  N   UNL     1       1.726  26.799  48.502  1.00  0.00    -0.361 N 
HETATM   19  H   UNL     1       1.492  25.988  49.063  1.00  0.00     0.165 HD
HETATM   20  C   UNL     1       0.947  27.352  47.523  1.00  0.00     0.088 A 
HETATM   21  C   UNL     1       1.624  28.429  47.003  1.00  0.00     0.019 A 
HETATM   22  C   UNL     1       2.857  28.526  47.697  1.00  0.00     0.036 A 
ENDBRANCH  14  17
ENDBRANCH  10  13
ENDBRANCH   5   9
BRANCH   3  23
HETATM   23  C   UNL     1       7.168  24.131  54.566  1.00  0.00     0.059 A 
HETATM   24  C   UNL     1       7.342  23.111  55.522  1.00  0.00     0.047 A 
HETATM   25  C   UNL     1       7.869  21.855  55.177  1.00  0.00     0.050 A 
HETATM   26  C   UNL     1       8.227  21.614  53.844  1.00  0.00     0.016 A 
HETATM   27  C   UNL     1       8.088  22.618  52.887  1.00  0.00     0.003 A 
HETATM   28  C   UNL     1       7.574  23.866  53.249  1.00  0.00     0.031 A 
BRANCH  25  29
HETATM   29  C   UNL     1       8.023  20.770  56.213  1.00  0.00     0.417 C 
HETATM   30  F   UNL     1       8.248  21.236  57.471  1.00  0.00    -0.166 F 
HETATM   31  F   UNL     1       6.916  19.980  56.299  1.00  0.00    -0.166 F 
HETATM   32  F   UNL     1       9.059  19.926  55.938  1.00  0.00    -0.166 F 
ENDBRANCH  25  29
ENDBRANCH   3  23
TORSDOF 5
ENDMDL
MODEL 4
REMARK VINA RESULT:      -9.7      4.564      9.377
REMARK  5 active torsions:
REMARK  status: ('A' for Active; 'I' for Inactive)
REMARK    1  A    between atoms: N_3  and  C_4 
REMARK    2  A    between atoms: C_6  and  C_7 
REMARK    3  A    between atoms: C_15  and  C_16 
REMARK       I    between atoms: C_16  and  N_17 
REMARK    4  A    between atoms: N_17  and  N_18 
REMARK       I    between atoms: N_18  and  C_19 
REMARK    5  A    between atoms: C_19  and  C_20 
ROOT
HETATM    1  C   UNL     1       5.688  31.979  57.363  1.00  0.00     0.070 C 
HETATM    2  C   UNL     1       5.898  30.485  57.448  1.00  0.00     0.036 C 
HETATM    3  N   UNL     1       7.014  29.956  58.116  1.00  0.00    -0.238 N 
HETATM    4  N   UNL     1       7.420  28.649  57.964  1.00  0.00    -0.158 NA
HETATM    5  C   UNL     1       6.643  27.816  57.333  1.00  0.00     0.196 C 
HETATM    6  C   UNL     1       5.313  28.261  56.794  1.00  0.00     0.209 C 
HETATM    7  O   UNL     1       4.512  27.441  56.370  1.00  0.00    -0.286 OA
HETATM    8  C   UNL     1       5.034  29.698  56.787  1.00  0.00     0.084 C 
ENDROOT
BRANCH   5   9
HETATM    9  C   UNL     1       7.149  26.391  57.166  1.00  0.00     0.294 C 
HETATM   10  N   UNL     1       6.707  25.724  56.040  1.00  0.00    -0.261 N 
HETATM   11  H   UNL     1       6.279  26.218  55.249  1.00  0.00     0.190 HD
HETATM   12  O   UNL     1       7.904  25.893  57.994  1.00  0.00    -0.264 OA
BRANCH  10  13
HETATM   13  N   UNL     1       7.258  24.462  55.773  1.00  0.00    -0.262 N 
HETATM   14  C   UNL     1       6.913  23.808  54.609  1.00  0.00     0.286 C 
HETATM   15  O   UNL     1       6.066  24.256  53.837  1.00  0.00    -0.264 OA
HETATM   16  H   UNL     1       8.035  24.169  56.360  1.00  0.00     0.190 HD
BRANCH  14  17
HETATM   17  C   UNL     1       7.616  22.569  54.360  1.00  0.00     0.102 A 
HETATM   18  N   UNL     1       8.067  21.780  55.399  1.00  0.00    -0.361 N 
HETATM   19  H   UNL     1       7.939  22.013  56.377  1.00  0.00     0.165 HD
HETATM   20  C   UNL     1       8.700  20.669  54.913  1.00  0.00     0.088 A 
HETATM   21  C   UNL     1       8.664  20.729  53.541  1.00  0.00     0.019 A 
HETATM   22  C   UNL     1       7.983  21.922  53.190  1.00  0.00     0.036 A 
ENDBRANCH  14  17
ENDBRANCH  10  13
ENDBRANCH   5   9
BRANCH   3  23
HETATM   23  C   UNL     1       7.885  30.704  58.970  1.00  0.00     0.059 A 
HETATM   24  C   UNL     1       7.410  31.211  60.195  1.00  0.00     0.047 A 
HETATM   25  C   UNL     1       8.229  31.968  61.050  1.00  0.00     0.050 A 
HETATM   26  C   UNL     1       9.553  32.221  60.670  1.00  0.00     0.016 A 
HETATM   27  C   UNL     1      10.036  31.752  59.450  1.00  0.00     0.003 A 
HETATM   28  C   UNL     1       9.205  31.010  58.605  1.00  0.00     0.031 A 
BRANCH  25  29
HETATM   29  C   UNL     1       7.706  32.481  62.369  1.00  0.00     0.417 C 
HETATM   30  F   UNL     1       8.674  32.691  63.302  1.00  0.00    -0.166 F 
HETATM   31  F   UNL     1       7.051  33.668  62.236  1.00  0.00    -0.166 F 
HETATM   32  F   UNL     1       6.813  31.627  62.946  1.00  0.00    -0.166 F 
ENDBRANCH  25  29
ENDBRANCH   3  23
TORSDOF 5
ENDMDL
MODEL 5
REMARK VINA RESULT:      -9.5      1.559      2.037
REMARK  5 active torsions:
REMARK  status: ('A' for Active; 'I' for Inactive)
REMARK    1  A    between atoms: N_3  and  C_4 
REMARK    2  A    between atoms: C_6  and  C_7 
REMARK    3  A    between atoms: C_15  and  C_16 
REMARK       I    between atoms: C_16  and  N_17 
REMARK    4  A    between atoms: N_17  and  N_18 
REMARK       I    between atoms: N_18  and  C_19 
REMARK    5  A    between atoms: C_19  and  C_20 
ROOT
HETATM    1  C   UNL     1       5.349  24.770  53.548  1.00  0.00     0.070 C 
HETATM    2  C   UNL     1       6.181  25.744  54.350  1.00  0.00     0.036 C 
HETATM    3  N   UNL     1       7.122  25.282  55.283  1.00  0.00    -0.238 N 
HETATM    4  N   UNL     1       7.675  26.096  56.247  1.00  0.00    -0.158 NA
HETATM    5  C   UNL     1       7.469  27.381  56.181  1.00  0.00     0.196 C 
HETATM    6  C   UNL     1       6.660  27.975  55.062  1.00  0.00     0.209 C 
HETATM    7  O   UNL     1       6.626  29.186  54.901  1.00  0.00    -0.286 OA
HETATM    8  C   UNL     1       5.918  27.052  54.201  1.00  0.00     0.084 C 
ENDROOT
BRANCH   5   9
HETATM    9  C   UNL     1       8.076  28.235  57.284  1.00  0.00     0.294 C 
HETATM   10  N   UNL     1       7.179  28.954  58.050  1.00  0.00    -0.261 N 
HETATM   11  H   UNL     1       6.174  28.745  58.049  1.00  0.00     0.190 HD
HETATM   12  O   UNL     1       9.289  28.259  57.462  1.00  0.00    -0.264 OA
BRANCH  10  13
HETATM   13  N   UNL     1       7.680  29.643  59.164  1.00  0.00    -0.262 N 
HETATM   14  C   UNL     1       7.256  30.932  59.407  1.00  0.00     0.286 C 
HETATM   15  O   UNL     1       6.519  31.533  58.626  1.00  0.00    -0.264 OA
HETATM   16  H   UNL     1       8.189  29.092  59.851  1.00  0.00     0.190 HD
BRANCH  14  17
HETATM   17  C   UNL     1       7.733  31.523  60.638  1.00  0.00     0.102 A 
HETATM   18  N   UNL     1       6.966  31.502  61.786  1.00  0.00    -0.361 N 
HETATM   19  H   UNL     1       6.044  31.082  61.837  1.00  0.00     0.165 HD
HETATM   20  C   UNL     1       7.625  32.121  62.811  1.00  0.00     0.088 A 
HETATM   21  C   UNL     1       8.838  32.554  62.331  1.00  0.00     0.019 A 
HETATM   22  C   UNL     1       8.909  32.180  60.965  1.00  0.00     0.036 A 
ENDBRANCH  14  17
ENDBRANCH  10  13
ENDBRANCH   5   9
BRANCH   3  23
HETATM   23  C   UNL     1       7.571  23.927  55.388  1.00  0.00     0.059 A 
HETATM   24  C   UNL     1       7.665  23.121  54.237  1.00  0.00     0.047 A 
HETATM   25  C   UNL     1       8.081  21.781  54.303  1.00  0.00     0.050 A 
HETATM   26  C   UNL     1       8.412  21.236  55.551  1.00  0.00     0.016 A 
HETATM   27  C   UNL     1       8.301  22.008  56.706  1.00  0.00     0.003 A 
HETATM   28  C   UNL     1       7.875  23.336  56.624  1.00  0.00     0.031 A 
BRANCH  25  29
HETATM   29  C   UNL     1       8.197  20.944  53.054  1.00  0.00     0.417 C 
HETATM   30  F   UNL     1       9.273  20.112  53.045  1.00  0.00    -0.166 F 
HETATM   31  F   UNL     1       7.107  20.148  52.865  1.00  0.00    -0.166 F 
HETATM   32  F   UNL     1       8.302  21.700  51.924  1.00  0.00    -0.166 F 
ENDBRANCH  25  29
ENDBRANCH   3  23
TORSDOF 5
ENDMDL
MODEL 6
REMARK VINA RESULT:      -9.4      4.662      9.131
REMARK  5 active torsions:
REMARK  status: ('A' for Active; 'I' for Inactive)
REMARK    1  A    between atoms: N_3  and  C_4 
REMARK    2  A    between atoms: C_6  and  C_7 
REMARK    3  A    between atoms: C_15  and  C_16 
REMARK       I    between atoms: C_16  and  N_17 
REMARK    4  A    between atoms: N_17  and  N_18 
REMARK       I    between atoms: N_18  and  C_19 
REMARK    5  A    between atoms: C_19  and  C_20 
ROOT
HETATM    1  C   UNL     1       8.808  24.829  57.613  1.00  0.00     0.070 C 
HETATM    2  C   UNL     1       8.048  24.899  56.308  1.00  0.00     0.036 C 
HETATM    3  N   UNL     1       7.395  26.080  55.923  1.00  0.00    -0.238 N 
HETATM    4  N   UNL     1       6.448  26.113  54.924  1.00  0.00    -0.158 NA
HETATM    5  C   UNL     1       6.282  25.060  54.176  1.00  0.00     0.196 C 
HETATM    6  C   UNL     1       7.122  23.830  54.382  1.00  0.00     0.209 C 
HETATM    7  O   UNL     1       7.093  22.920  53.567  1.00  0.00    -0.286 OA
HETATM    8  C   UNL     1       7.948  23.770  55.588  1.00  0.00     0.084 C 
ENDROOT
BRANCH   5   9
HETATM    9  C   UNL     1       5.204  25.135  53.105  1.00  0.00     0.294 C 
HETATM   10  N   UNL     1       5.540  25.831  51.961  1.00  0.00    -0.261 N 
HETATM   11  H   UNL     1       6.514  26.066  51.734  1.00  0.00     0.190 HD
HETATM   12  O   UNL     1       4.115  24.596  53.274  1.00  0.00    -0.264 OA
BRANCH  10  13
HETATM   13  N   UNL     1       4.631  25.806  50.893  1.00  0.00    -0.262 N 
HETATM   14  C   UNL     1       4.661  26.819  49.958  1.00  0.00     0.286 C 
HETATM   15  O   UNL     1       5.402  27.794  50.078  1.00  0.00    -0.264 OA
HETATM   16  H   UNL     1       4.116  24.941  50.751  1.00  0.00     0.190 HD
BRANCH  14  17
HETATM   17  C   UNL     1       3.771  26.652  48.831  1.00  0.00     0.102 A 
HETATM   18  N   UNL     1       2.513  27.221  48.822  1.00  0.00    -0.361 N 
HETATM   19  H   UNL     1       2.143  27.777  49.584  1.00  0.00     0.165 HD
HETATM   20  C   UNL     1       1.863  26.921  47.656  1.00  0.00     0.088 A 
HETATM   21  C   UNL     1       2.703  26.147  46.893  1.00  0.00     0.019 A 
HETATM   22  C   UNL     1       3.903  25.976  47.628  1.00  0.00     0.036 A 
ENDBRANCH  14  17
ENDBRANCH  10  13
ENDBRANCH   5   9
BRANCH   3  23
HETATM   23  C   UNL     1       7.580  27.356  56.544  1.00  0.00     0.059 A 
HETATM   24  C   UNL     1       8.795  28.051  56.386  1.00  0.00     0.047 A 
HETATM   25  C   UNL     1       9.021  29.295  56.997  1.00  0.00     0.050 A 
HETATM   26  C   UNL     1       8.007  29.857  57.783  1.00  0.00     0.016 A 
HETATM   27  C   UNL     1       6.807  29.175  57.976  1.00  0.00     0.003 A 
HETATM   28  C   UNL     1       6.602  27.932  57.369  1.00  0.00     0.031 A 
BRANCH  25  29
HETATM   29  C   UNL     1      10.322  30.032  56.794  1.00  0.00     0.417 C 
HETATM   30  F   UNL     1      10.357  31.260  57.378  1.00  0.00    -0.166 F 
HETATM   31  F   UNL     1      11.385  29.346  57.298  1.00  0.00    -0.166 F 
HETATM   32  F   UNL     1      10.606  30.239  55.476  1.00  0.00    -0.166 F 
ENDBRANCH  25  29
ENDBRANCH   3  23
TORSDOF 5
ENDMDL
MODEL 7
REMARK VINA RESULT:      -9.3      1.579      1.999
REMARK  5 active torsions:
REMARK  status: ('A' for Active; 'I' for Inactive)
REMARK    1  A    between atoms: N_3  and  C_4 
REMARK    2  A    between atoms: C_6  and  C_7 
REMARK    3  A    between atoms: C_15  and  C_16 
REMARK       I    between atoms: C_16  and  N_17 
REMARK    4  A    between atoms: N_17  and  N_18 
REMARK       I    between atoms: N_18  and  C_19 
REMARK    5  A    between atoms: C_19  and  C_20 
ROOT
HETATM    1  C   UNL     1       4.270  26.810  52.712  1.00  0.00     0.070 C 
HETATM    2  C   UNL     1       5.126  27.548  53.715  1.00  0.00     0.036 C 
HETATM    3  N   UNL     1       6.274  26.948  54.255  1.00  0.00    -0.238 N 
HETATM    4  N   UNL     1       6.907  27.431  55.379  1.00  0.00    -0.158 NA
HETATM    5  C   UNL     1       6.551  28.590  55.854  1.00  0.00     0.196 C 
HETATM    6  C   UNL     1       5.481  29.403  55.180  1.00  0.00     0.209 C 
HETATM    7  O   UNL     1       5.282  30.561  55.516  1.00  0.00    -0.286 OA
HETATM    8  C   UNL     1       4.696  28.749  54.132  1.00  0.00     0.084 C 
ENDROOT
BRANCH   5   9
HETATM    9  C   UNL     1       7.258  29.068  57.114  1.00  0.00     0.294 C 
HETATM   10  N   UNL     1       6.517  29.880  57.949  1.00  0.00    -0.261 N 
HETATM   11  H   UNL     1       5.496  29.957  57.866  1.00  0.00     0.190 HD
HETATM   12  O   UNL     1       8.414  28.731  57.349  1.00  0.00    -0.264 OA
BRANCH  10  13
HETATM   13  N   UNL     1       7.079  30.228  59.186  1.00  0.00    -0.262 N 
HETATM   14  C   UNL     1       7.087  31.550  59.576  1.00  0.00     0.286 C 
HETATM   15  O   UNL     1       6.696  32.450  58.833  1.00  0.00    -0.264 OA
HETATM   16  H   UNL     1       7.284  29.464  59.825  1.00  0.00     0.190 HD
BRANCH  14  17
HETATM   17  C   UNL     1       7.578  31.802  60.913  1.00  0.00     0.102 A 
HETATM   18  N   UNL     1       7.059  31.135  62.004  1.00  0.00    -0.361 N 
HETATM   19  H   UNL     1       6.321  30.444  61.939  1.00  0.00     0.165 HD
HETATM   20  C   UNL     1       7.680  31.544  63.152  1.00  0.00     0.088 A 
HETATM   21  C   UNL     1       8.615  32.491  62.810  1.00  0.00     0.019 A 
HETATM   22  C   UNL     1       8.554  32.656  61.403  1.00  0.00     0.036 A 
ENDBRANCH  14  17
ENDBRANCH  10  13
ENDBRANCH   5   9
BRANCH   3  23
HETATM   23  C   UNL     1       6.883  25.752  53.756  1.00  0.00     0.059 A 
HETATM   24  C   UNL     1       7.261  24.727  54.645  1.00  0.00     0.047 A 
HETATM   25  C   UNL     1       7.881  23.549  54.196  1.00  0.00     0.050 A 
HETATM   26  C   UNL     1       8.124  23.393  52.825  1.00  0.00     0.016 A 
HETATM   27  C   UNL     1       7.782  24.406  51.931  1.00  0.00     0.003 A 
HETATM   28  C   UNL     1       7.177  25.577  52.396  1.00  0.00     0.031 A 
BRANCH  25  29
HETATM   29  C   UNL     1       8.255  22.454  55.164  1.00  0.00     0.417 C 
HETATM   30  F   UNL     1       7.404  21.393  55.153  1.00  0.00    -0.166 F 
HETATM   31  F   UNL     1       9.492  21.943  54.908  1.00  0.00    -0.166 F 
HETATM   32  F   UNL     1       8.294  22.887  56.456  1.00  0.00    -0.166 F 
ENDBRANCH  25  29
ENDBRANCH   3  23
TORSDOF 5
ENDMDL
MODEL 8
REMARK VINA RESULT:      -9.0      7.007     12.311
REMARK  5 active torsions:
REMARK  status: ('A' for Active; 'I' for Inactive)
REMARK    1  A    between atoms: N_3  and  C_4 
REMARK    2  A    between atoms: C_6  and  C_7 
REMARK    3  A    between atoms: C_15  and  C_16 
REMARK       I    between atoms: C_16  and  N_17 
REMARK    4  A    between atoms: N_17  and  N_18 
REMARK       I    between atoms: N_18  and  C_19 
REMARK    5  A    between atoms: C_19  and  C_20 
ROOT
HETATM    1  C   UNL     1       7.193  33.465  64.913  1.00  0.00     0.070 C 
HETATM    2  C   UNL     1       7.362  33.091  63.458  1.00  0.00     0.036 C 
HETATM    3  N   UNL     1       6.469  33.570  62.488  1.00  0.00    -0.238 N 
HETATM    4  N   UNL     1       6.383  33.028  61.225  1.00  0.00    -0.158 NA
HETATM    5  C   UNL     1       7.284  32.169  60.844  1.00  0.00     0.196 C 
HETATM    6  C   UNL     1       8.416  31.785  61.756  1.00  0.00     0.209 C 
HETATM    7  O   UNL     1       9.354  31.127  61.331  1.00  0.00    -0.286 OA
HETATM    8  C   UNL     1       8.334  32.216  63.152  1.00  0.00     0.084 C 
ENDROOT
BRANCH   5   9
HETATM    9  C   UNL     1       7.130  31.576  59.451  1.00  0.00     0.294 C 
HETATM   10  N   UNL     1       7.417  30.230  59.335  1.00  0.00    -0.261 N 
HETATM   11  H   UNL     1       7.485  29.616  60.155  1.00  0.00     0.190 HD
HETATM   12  O   UNL     1       6.766  32.274  58.510  1.00  0.00    -0.264 OA
BRANCH  10  13
HETATM   13  N   UNL     1       7.153  29.613  58.103  1.00  0.00    -0.262 N 
HETATM   14  C   UNL     1       8.171  28.953  57.448  1.00  0.00     0.286 C 
HETATM   15  O   UNL     1       9.328  28.964  57.864  1.00  0.00    -0.264 OA
HETATM   16  H   UNL     1       6.175  29.516  57.840  1.00  0.00     0.190 HD
BRANCH  14  17
HETATM   17  C   UNL     1       7.783  28.248  56.246  1.00  0.00     0.102 A 
HETATM   18  N   UNL     1       7.625  28.911  55.046  1.00  0.00    -0.361 N 
HETATM   19  H   UNL     1       7.767  29.908  54.933  1.00  0.00     0.165 HD
HETATM   20  C   UNL     1       7.255  28.035  54.063  1.00  0.00     0.088 A 
HETATM   21  C   UNL     1       7.168  26.784  54.624  1.00  0.00     0.019 A 
HETATM   22  C   UNL     1       7.500  26.914  55.997  1.00  0.00     0.036 A 
ENDBRANCH  14  17
ENDBRANCH  10  13
ENDBRANCH   5   9
BRANCH   3  23
HETATM   23  C   UNL     1       5.516  34.617  62.700  1.00  0.00     0.059 A 
HETATM   24  C   UNL     1       5.945  35.954  62.807  1.00  0.00     0.047 A 
HETATM   25  C   UNL     1       5.042  37.005  63.037  1.00  0.00     0.050 A 
HETATM   26  C   UNL     1       3.678  36.711  63.160  1.00  0.00     0.016 A 
HETATM   27  C   UNL     1       3.234  35.392  63.084  1.00  0.00     0.003 A 
HETATM   28  C   UNL     1       4.147  34.356  62.867  1.00  0.00     0.031 A 
BRANCH  25  29
HETATM   29  C   UNL     1       5.522  38.432  63.124  1.00  0.00     0.417 C 
HETATM   30  F   UNL     1       6.735  38.643  62.544  1.00  0.00    -0.166 F 
HETATM   31  F   UNL     1       4.663  39.301  62.522  1.00  0.00    -0.166 F 
HETATM   32  F   UNL     1       5.646  38.867  64.411  1.00  0.00    -0.166 F 
ENDBRANCH  25  29
ENDBRANCH   3  23
TORSDOF 5
ENDMDL
MODEL 9
REMARK VINA RESULT:      -8.5      5.170      9.290
REMARK  5 active torsions:
REMARK  status: ('A' for Active; 'I' for Inactive)
REMARK    1  A    between atoms: N_3  and  C_4 
REMARK    2  A    between atoms: C_6  and  C_7 
REMARK    3  A    between atoms: C_15  and  C_16 
REMARK       I    between atoms: C_16  and  N_17 
REMARK    4  A    between atoms: N_17  and  N_18 
REMARK       I    between atoms: N_18  and  C_19 
REMARK    5  A    between atoms: C_19  and  C_20 
ROOT
HETATM    1  C   UNL     1       6.989  25.226  56.995  1.00  0.00     0.070 C 
HETATM    2  C   UNL     1       6.403  25.775  55.714  1.00  0.00     0.036 C 
HETATM    3  N   UNL     1       6.303  27.159  55.508  1.00  0.00    -0.238 N 
HETATM    4  N   UNL     1       5.512  27.709  54.524  1.00  0.00    -0.158 NA
HETATM    5  C   UNL     1       4.985  26.926  53.627  1.00  0.00     0.196 C 
HETATM    6  C   UNL     1       5.246  25.446  53.648  1.00  0.00     0.209 C 
HETATM    7  O   UNL     1       4.906  24.745  52.706  1.00  0.00    -0.286 OA
HETATM    8  C   UNL     1       5.904  24.893  54.833  1.00  0.00     0.084 C 
ENDROOT
BRANCH   5   9
HETATM    9  C   UNL     1       4.096  27.576  52.577  1.00  0.00     0.294 C 
HETATM   10  N   UNL     1       4.298  27.160  51.276  1.00  0.00    -0.261 N 
HETATM   11  H   UNL     1       4.822  26.305  51.054  1.00  0.00     0.190 HD
HETATM   12  O   UNL     1       3.257  28.412  52.898  1.00  0.00    -0.264 OA
BRANCH  10  13
HETATM   13  N   UNL     1       3.408  27.628  50.298  1.00  0.00    -0.262 N 
HETATM   14  C   UNL     1       3.909  28.222  49.159  1.00  0.00     0.286 C 
HETATM   15  O   UNL     1       5.112  28.437  49.012  1.00  0.00    -0.264 OA
HETATM   16  H   UNL     1       2.438  27.335  50.385  1.00  0.00     0.190 HD
BRANCH  14  17
HETATM   17  C   UNL     1       2.928  28.567  48.154  1.00  0.00     0.102 A 
HETATM   18  N   UNL     1       3.001  29.760  47.463  1.00  0.00    -0.361 N 
HETATM   19  H   UNL     1       3.726  30.452  47.613  1.00  0.00     0.165 HD
HETATM   20  C   UNL     1       1.966  29.859  46.574  1.00  0.00     0.088 A 
HETATM   21  C   UNL     1       1.207  28.718  46.682  1.00  0.00     0.019 A 
HETATM   22  C   UNL     1       1.809  27.904  47.675  1.00  0.00     0.036 A 
ENDBRANCH  14  17
ENDBRANCH  10  13
ENDBRANCH   5   9
BRANCH   3  23
HETATM   23  C   UNL     1       6.945  28.154  56.313  1.00  0.00     0.059 A 
HETATM   24  C   UNL     1       8.272  28.539  56.037  1.00  0.00     0.047 A 
HETATM   25  C   UNL     1       8.942  29.495  56.817  1.00  0.00     0.050 A 
HETATM   26  C   UNL     1       8.269  30.081  57.897  1.00  0.00     0.016 A 
HETATM   27  C   UNL     1       6.965  29.695  58.204  1.00  0.00     0.003 A 
HETATM   28  C   UNL     1       6.316  28.734  57.425  1.00  0.00     0.031 A 
BRANCH  25  29
HETATM   29  C   UNL     1      10.355  29.910  56.488  1.00  0.00     0.417 C 
HETATM   30  F   UNL     1      10.576  30.109  55.160  1.00  0.00    -0.166 F 
HETATM   31  F   UNL     1      10.705  31.074  57.104  1.00  0.00    -0.166 F 
HETATM   32  F   UNL     1      11.278  28.988  56.885  1.00  0.00    -0.166 F 
ENDBRANCH  25  29
ENDBRANCH   3  23
TORSDOF 5
ENDMDL
MODEL 10
REMARK VINA RESULT:      -8.5      5.495     10.342
REMARK  5 active torsions:
REMARK  status: ('A' for Active; 'I' for Inactive)
REMARK    1  A    between atoms: N_3  and  C_4 
REMARK    2  A    between atoms: C_6  and  C_7 
REMARK    3  A    between atoms: C_15  and  C_16 
REMARK       I    between atoms: C_16  and  N_17 
REMARK    4  A    between atoms: N_17  and  N_18 
REMARK       I    between atoms: N_18  and  C_19 
REMARK    5  A    between atoms: C_19  and  C_20 
ROOT
HETATM    1  C   UNL     1       9.793  31.972  60.838  1.00  0.00     0.070 C 
HETATM    2  C   UNL     1       9.070  31.396  59.643  1.00  0.00     0.036 C 
HETATM    3  N   UNL     1       7.673  31.477  59.544  1.00  0.00    -0.238 N 
HETATM    4  N   UNL     1       6.945  30.715  58.657  1.00  0.00    -0.158 NA
HETATM    5  C   UNL     1       7.577  30.035  57.744  1.00  0.00     0.196 C 
HETATM    6  C   UNL     1       9.075  30.090  57.641  1.00  0.00     0.209 C 
HETATM    7  O   UNL     1       9.646  29.603  56.676  1.00  0.00    -0.286 OA
HETATM    8  C   UNL     1       9.804  30.731  58.736  1.00  0.00     0.084 C 
ENDROOT
BRANCH   5   9
HETATM    9  C   UNL     1       6.731  29.186  56.806  1.00  0.00     0.294 C 
HETATM   10  N   UNL     1       6.823  29.499  55.464  1.00  0.00    -0.261 N 
HETATM   11  H   UNL     1       7.581  30.083  55.093  1.00  0.00     0.190 HD
HETATM   12  O   UNL     1       6.025  28.283  57.243  1.00  0.00    -0.264 OA
BRANCH  10  13
HETATM   13  N   UNL     1       6.171  28.655  54.553  1.00  0.00    -0.262 N 
HETATM   14  C   UNL     1       6.921  27.809  53.763  1.00  0.00     0.286 C 
HETATM   15  O   UNL     1       8.151  27.833  53.767  1.00  0.00    -0.264 OA
HETATM   16  H   UNL     1       5.163  28.567  54.650  1.00  0.00     0.190 HD
BRANCH  14  17
HETATM   17  C   UNL     1       6.164  26.893  52.939  1.00  0.00     0.102 A 
HETATM   18  N   UNL     1       5.843  27.203  51.633  1.00  0.00    -0.361 N 
HETATM   19  H   UNL     1       6.109  28.069  51.180  1.00  0.00     0.165 HD
HETATM   20  C   UNL     1       5.125  26.186  51.064  1.00  0.00     0.088 A 
HETATM   21  C   UNL     1       4.974  25.199  52.008  1.00  0.00     0.019 A 
HETATM   22  C   UNL     1       5.626  25.640  53.188  1.00  0.00     0.036 A 
ENDBRANCH  14  17
ENDBRANCH  10  13
ENDBRANCH   5   9
BRANCH   3  23
HETATM   23  C   UNL     1       6.841  32.295  60.373  1.00  0.00     0.059 A 
HETATM   24  C   UNL     1       7.169  32.491  61.729  1.00  0.00     0.047 A 
HETATM   25  C   UNL     1       6.366  33.269  62.580  1.00  0.00     0.050 A 
HETATM   26  C   UNL     1       5.210  33.866  62.060  1.00  0.00     0.016 A 
HETATM   27  C   UNL     1       4.852  33.663  60.728  1.00  0.00     0.003 A 
HETATM   28  C   UNL     1       5.656  32.877  59.898  1.00  0.00     0.031 A 
BRANCH  25  29
HETATM   29  C   UNL     1       6.750  33.486  64.022  1.00  0.00     0.417 C 
HETATM   30  F   UNL     1       5.867  32.958  64.913  1.00  0.00    -0.166 F 
HETATM   31  F   UNL     1       7.959  32.932  64.321  1.00  0.00    -0.166 F 
HETATM   32  F   UNL     1       6.858  34.806  64.344  1.00  0.00    -0.166 F 
ENDBRANCH  25  29
ENDBRANCH   3  23
TORSDOF 5
ENDMDL
