MODEL 1
REMARK VINA RESULT:     -10.6      0.000      0.000
REMARK  2 active torsions:
REMARK  status: ('A' for Active; 'I' for Inactive)
REMARK    1  A    between atoms: C_4  and  N_5 
REMARK    2  A    between atoms: C_12  and  C_13 
ROOT
HETATM    1  N   UNL     1       8.310  28.315  57.480  1.00  0.00    -0.236 N 
HETATM    2  N   UNL     1       7.491  28.694  58.566  1.00  0.00    -0.179 NA
HETATM    3  C   UNL     1       8.028  29.867  59.062  1.00  0.00     0.119 A 
HETATM    4  C   UNL     1       9.075  30.291  58.335  1.00  0.00     0.123 A 
HETATM    5  C   UNL     1       9.302  29.288  57.281  1.00  0.00     0.280 A 
HETATM    6  O   UNL     1      10.191  29.338  56.449  1.00  0.00    -0.265 OA
HETATM    7  N   UNL     1       7.619  30.548  60.177  1.00  0.00    -0.344 N 
HETATM    8  C   UNL     1       8.209  31.740  60.555  1.00  0.00     0.047 A 
HETATM    9  C   UNL     1       9.267  32.247  59.894  1.00  0.00     0.086 A 
HETATM   10  C   UNL     1       9.792  31.514  58.704  1.00  0.00     0.193 A 
HETATM   11  O   UNL     1      10.764  31.947  58.100  1.00  0.00    -0.287 OA
HETATM   12  H   UNL     1       7.462  27.979  59.294  1.00  0.00     0.155 HD
HETATM   13  H   UNL     1       6.702  30.327  60.553  1.00  0.00     0.167 HD
ENDROOT
BRANCH   8  14
HETATM   14  C   UNL     1       7.658  32.432  61.737  1.00  0.00    -0.009 A 
HETATM   15  C   UNL     1       8.263  32.308  62.999  1.00  0.00     0.015 A 
HETATM   16  C   UNL     1       7.733  32.973  64.109  1.00  0.00     0.024 A 
HETATM   17  C   UNL     1       6.600  33.770  63.965  1.00  0.00     0.034 A 
HETATM   18 CL   UNL     1       5.949  34.587  65.330  1.00  0.00    -0.084 Cl
HETATM   19  C   UNL     1       5.991  33.908  62.720  1.00  0.00     0.024 A 
HETATM   20  C   UNL     1       6.519  33.242  61.610  1.00  0.00     0.015 A 
ENDBRANCH   8  14
BRANCH   1  21
HETATM   21  C   UNL     1       8.054  27.126  56.765  1.00  0.00     0.055 A 
HETATM   22  C   UNL     1       8.351  25.870  57.311  1.00  0.00     0.031 A 
HETATM   23  C   UNL     1       8.077  24.695  56.604  1.00  0.00     0.002 A 
HETATM   24  C   UNL     1       7.504  24.756  55.338  1.00  0.00     0.000 A 
HETATM   25  C   UNL     1       7.211  25.993  54.773  1.00  0.00     0.002 A 
HETATM   26  C   UNL     1       7.485  27.169  55.481  1.00  0.00     0.031 A 
ENDBRANCH   1  21
TORSDOF 2
ENDMDL
MODEL 2
REMARK VINA RESULT:     -10.0      4.590      9.272
REMARK  2 active torsions:
REMARK  status: ('A' for Active; 'I' for Inactive)
REMARK    1  A    between atoms: C_4  and  N_5 
REMARK    2  A    between atoms: C_12  and  C_13 
ROOT
HETATM    1  N   UNL     1       7.833  29.298  58.058  1.00  0.00    -0.236 N 
HETATM    2  N   UNL     1       8.543  28.176  57.575  1.00  0.00    -0.179 NA
HETATM    3  C   UNL     1       7.640  27.440  56.831  1.00  0.00     0.119 A 
HETATM    4  C   UNL     1       6.442  28.041  56.752  1.00  0.00     0.123 A 
HETATM    5  C   UNL     1       6.522  29.271  57.556  1.00  0.00     0.280 A 
HETATM    6  O   UNL     1       5.605  30.055  57.728  1.00  0.00    -0.265 OA
HETATM    7  N   UNL     1       7.859  26.220  56.251  1.00  0.00    -0.344 N 
HETATM    8  C   UNL     1       6.889  25.593  55.491  1.00  0.00     0.047 A 
HETATM    9  C   UNL     1       5.654  26.113  55.353  1.00  0.00     0.086 A 
HETATM   10  C   UNL     1       5.342  27.415  56.014  1.00  0.00     0.193 A 
HETATM   11  O   UNL     1       4.221  27.895  55.917  1.00  0.00    -0.287 OA
HETATM   12  H   UNL     1       8.928  27.610  58.331  1.00  0.00     0.155 HD
HETATM   13  H   UNL     1       8.823  25.918  56.141  1.00  0.00     0.167 HD
ENDROOT
BRANCH   8  14
HETATM   14  C   UNL     1       7.240  24.309  54.855  1.00  0.00    -0.009 A 
HETATM   15  C   UNL     1       7.396  23.139  55.616  1.00  0.00     0.015 A 
HETATM   16  C   UNL     1       7.725  21.928  55.000  1.00  0.00     0.024 A 
HETATM   17  C   UNL     1       7.894  21.876  53.618  1.00  0.00     0.034 A 
HETATM   18 CL   UNL     1       8.297  20.386  52.861  1.00  0.00    -0.084 Cl
HETATM   19  C   UNL     1       7.738  23.025  52.847  1.00  0.00     0.024 A 
HETATM   20  C   UNL     1       7.411  24.237  53.464  1.00  0.00     0.015 A 
ENDBRANCH   8  14
BRANCH   1  21
HETATM   21  C   UNL     1       8.463  30.245  58.892  1.00  0.00     0.055 A 
HETATM   22  C   UNL     1       8.084  30.401  60.232  1.00  0.00     0.031 A 
HETATM   23  C   UNL     1       8.726  31.329  61.059  1.00  0.00     0.002 A 
HETATM   24  C   UNL     1       9.755  32.119  60.557  1.00  0.00     0.000 A 
HETATM   25  C   UNL     1      10.140  31.987  59.227  1.00  0.00     0.002 A 
HETATM   26  C   UNL     1       9.498  31.059  58.401  1.00  0.00     0.031 A 
ENDBRANCH   1  21
TORSDOF 2
ENDMDL
MODEL 3
REMARK VINA RESULT:      -9.9      3.340      8.173
REMARK  2 active torsions:
REMARK  status: ('A' for Active; 'I' for Inactive)
REMARK    1  A    between atoms: C_4  and  N_5 
REMARK    2  A    between atoms: C_12  and  C_13 
ROOT
HETATM    1  N   UNL     1       8.119  31.573  60.489  1.00  0.00    -0.236 N 
HETATM    2  N   UNL     1       7.337  30.542  59.923  1.00  0.00    -0.179 NA
HETATM    3  C   UNL     1       8.045  30.078  58.831  1.00  0.00     0.119 A 
HETATM    4  C   UNL     1       9.236  30.686  58.704  1.00  0.00     0.123 A 
HETATM    5  C   UNL     1       9.323  31.689  59.777  1.00  0.00     0.280 A 
HETATM    6  O   UNL     1      10.263  32.446  59.952  1.00  0.00    -0.265 OA
HETATM    7  N   UNL     1       7.629  29.143  57.922  1.00  0.00    -0.344 N 
HETATM    8  C   UNL     1       8.444  28.724  56.887  1.00  0.00     0.047 A 
HETATM    9  C   UNL     1       9.654  29.273  56.673  1.00  0.00     0.086 A 
HETATM   10  C   UNL     1      10.136  30.341  57.601  1.00  0.00     0.193 A 
HETATM   11  O   UNL     1      11.224  30.866  57.414  1.00  0.00    -0.287 OA
HETATM   12  H   UNL     1       6.415  30.872  59.637  1.00  0.00     0.155 HD
HETATM   13  H   UNL     1       6.841  28.555  58.179  1.00  0.00     0.167 HD
ENDROOT
BRANCH   8  14
HETATM   14  C   UNL     1       7.929  27.667  55.994  1.00  0.00    -0.009 A 
HETATM   15  C   UNL     1       7.755  27.897  54.620  1.00  0.00     0.015 A 
HETATM   16  C   UNL     1       7.271  26.885  53.785  1.00  0.00     0.024 A 
HETATM   17  C   UNL     1       6.964  25.634  54.317  1.00  0.00     0.034 A 
HETATM   18 CL   UNL     1       6.369  24.390  53.290  1.00  0.00    -0.084 Cl
HETATM   19  C   UNL     1       7.135  25.387  55.677  1.00  0.00     0.024 A 
HETATM   20  C   UNL     1       7.618  26.400  56.512  1.00  0.00     0.015 A 
ENDBRANCH   8  14
BRANCH   1  21
HETATM   21  C   UNL     1       7.661  32.291  61.614  1.00  0.00     0.055 A 
HETATM   22  C   UNL     1       8.301  32.183  62.856  1.00  0.00     0.031 A 
HETATM   23  C   UNL     1       7.853  32.912  63.962  1.00  0.00     0.002 A 
HETATM   24  C   UNL     1       6.755  33.759  63.845  1.00  0.00     0.000 A 
HETATM   25  C   UNL     1       6.100  33.872  62.624  1.00  0.00     0.002 A 
HETATM   26  C   UNL     1       6.548  33.144  61.517  1.00  0.00     0.031 A 
ENDBRANCH   1  21
TORSDOF 2
ENDMDL
MODEL 4
REMARK VINA RESULT:      -9.8      3.551      5.623
REMARK  2 active torsions:
REMARK  status: ('A' for Active; 'I' for Inactive)
REMARK    1  A    between atoms: C_4  and  N_5 
REMARK    2  A    between atoms: C_12  and  C_13 
ROOT
HETATM    1  N   UNL     1       7.027  24.223  54.895  1.00  0.00    -0.236 N 
HETATM    2  N   UNL     1       7.635  24.935  55.952  1.00  0.00    -0.179 NA
HETATM    3  C   UNL     1       7.017  26.171  55.989  1.00  0.00     0.119 A 
HETATM    4  C   UNL     1       6.027  26.268  55.086  1.00  0.00     0.123 A 
HETATM    5  C   UNL     1       6.004  25.003  54.334  1.00  0.00     0.280 A 
HETATM    6  O   UNL     1       5.243  24.749  53.416  1.00  0.00    -0.265 OA
HETATM    7  N   UNL     1       7.347  27.228  56.793  1.00  0.00    -0.344 N 
HETATM    8  C   UNL     1       6.627  28.409  56.770  1.00  0.00     0.047 A 
HETATM    9  C   UNL     1       5.619  28.606  55.900  1.00  0.00     0.086 A 
HETATM   10  C   UNL     1       5.253  27.505  54.959  1.00  0.00     0.193 A 
HETATM   11  O   UNL     1       4.353  27.670  54.147  1.00  0.00    -0.287 OA
HETATM   12  H   UNL     1       8.640  25.043  55.815  1.00  0.00     0.155 HD
HETATM   13  H   UNL     1       7.933  27.040  57.600  1.00  0.00     0.167 HD
ENDROOT
BRANCH   8  14
HETATM   14  C   UNL     1       7.021  29.469  57.718  1.00  0.00    -0.009 A 
HETATM   15  C   UNL     1       6.222  30.608  57.907  1.00  0.00     0.015 A 
HETATM   16  C   UNL     1       6.605  31.603  58.812  1.00  0.00     0.024 A 
HETATM   17  C   UNL     1       7.787  31.464  59.538  1.00  0.00     0.034 A 
HETATM   18 CL   UNL     1       8.257  32.687  60.650  1.00  0.00    -0.084 Cl
HETATM   19  C   UNL     1       8.589  30.338  59.366  1.00  0.00     0.024 A 
HETATM   20  C   UNL     1       8.206  29.344  58.460  1.00  0.00     0.015 A 
ENDBRANCH   8  14
BRANCH   1  21
HETATM   21  C   UNL     1       7.457  22.921  54.562  1.00  0.00     0.055 A 
HETATM   22  C   UNL     1       7.566  21.919  55.536  1.00  0.00     0.031 A 
HETATM   23  C   UNL     1       7.974  20.625  55.196  1.00  0.00     0.002 A 
HETATM   24  C   UNL     1       8.283  20.312  53.877  1.00  0.00     0.000 A 
HETATM   25  C   UNL     1       8.191  21.295  52.896  1.00  0.00     0.002 A 
HETATM   26  C   UNL     1       7.782  22.588  53.236  1.00  0.00     0.031 A 
ENDBRANCH   1  21
TORSDOF 2
ENDMDL
MODEL 5
REMARK VINA RESULT:      -9.8      3.571      5.646
REMARK  2 active torsions:
REMARK  status: ('A' for Active; 'I' for Inactive)
REMARK    1  A    between atoms: C_4  and  N_5 
REMARK    2  A    between atoms: C_12  and  C_13 
ROOT
HETATM    1  N   UNL     1       7.017  24.189  54.887  1.00  0.00    -0.236 N 
HETATM    2  N   UNL     1       7.645  24.899  55.934  1.00  0.00    -0.179 NA
HETATM    3  C   UNL     1       7.042  26.141  55.974  1.00  0.00     0.119 A 
HETATM    4  C   UNL     1       6.041  26.246  55.083  1.00  0.00     0.123 A 
HETATM    5  C   UNL     1       5.995  24.979  54.337  1.00  0.00     0.280 A 
HETATM    6  O   UNL     1       5.220  24.731  53.430  1.00  0.00    -0.265 OA
HETATM    7  N   UNL     1       7.394  27.198  56.770  1.00  0.00    -0.344 N 
HETATM    8  C   UNL     1       6.687  28.386  56.752  1.00  0.00     0.047 A 
HETATM    9  C   UNL     1       5.671  28.592  55.894  1.00  0.00     0.086 A 
HETATM   10  C   UNL     1       5.280  27.492  54.961  1.00  0.00     0.193 A 
HETATM   11  O   UNL     1       4.372  27.664  54.161  1.00  0.00    -0.287 OA
HETATM   12  H   UNL     1       8.650  24.994  55.785  1.00  0.00     0.155 HD
HETATM   13  H   UNL     1       7.988  27.005  57.571  1.00  0.00     0.167 HD
ENDROOT
BRANCH   8  14
HETATM   14  C   UNL     1       7.105  29.446  57.691  1.00  0.00    -0.009 A 
HETATM   15  C   UNL     1       8.323  29.362  58.386  1.00  0.00     0.015 A 
HETATM   16  C   UNL     1       8.709  30.375  59.269  1.00  0.00     0.024 A 
HETATM   17  C   UNL     1       7.884  31.482  59.459  1.00  0.00     0.034 A 
HETATM   18 CL   UNL     1       8.359  32.727  60.544  1.00  0.00    -0.084 Cl
HETATM   19  C   UNL     1       6.675  31.583  58.773  1.00  0.00     0.024 A 
HETATM   20  C   UNL     1       6.289  30.569  57.892  1.00  0.00     0.015 A 
ENDBRANCH   8  14
BRANCH   1  21
HETATM   21  C   UNL     1       7.427  22.881  54.554  1.00  0.00     0.055 A 
HETATM   22  C   UNL     1       7.737  22.530  53.234  1.00  0.00     0.031 A 
HETATM   23  C   UNL     1       8.162  21.236  52.914  1.00  0.00     0.002 A 
HETATM   24  C   UNL     1       8.281  20.272  53.909  1.00  0.00     0.000 A 
HETATM   25  C   UNL     1       7.968  20.597  55.225  1.00  0.00     0.002 A 
HETATM   26  C   UNL     1       7.544  21.891  55.545  1.00  0.00     0.031 A 
ENDBRANCH   1  21
TORSDOF 2
ENDMDL
MODEL 6
REMARK VINA RESULT:      -9.3      2.770      4.504
REMARK  2 active torsions:
REMARK  status: ('A' for Active; 'I' for Inactive)
REMARK    1  A    between atoms: C_4  and  N_5 
REMARK    2  A    between atoms: C_12  and  C_13 
ROOT
HETATM    1  N   UNL     1       7.934  31.373  59.393  1.00  0.00    -0.236 N 
HETATM    2  N   UNL     1       8.163  31.416  60.785  1.00  0.00    -0.179 NA
HETATM    3  C   UNL     1       7.142  32.179  61.320  1.00  0.00     0.119 A 
HETATM    4  C   UNL     1       6.255  32.561  60.387  1.00  0.00     0.123 A 
HETATM    5  C   UNL     1       6.744  32.056  59.094  1.00  0.00     0.280 A 
HETATM    6  O   UNL     1       6.197  32.237  58.021  1.00  0.00    -0.265 OA
HETATM    7  N   UNL     1       7.009  32.570  62.625  1.00  0.00    -0.344 N 
HETATM    8  C   UNL     1       5.918  33.303  63.055  1.00  0.00     0.047 A 
HETATM    9  C   UNL     1       4.975  33.736  62.198  1.00  0.00     0.086 A 
HETATM   10  C   UNL     1       5.101  33.388  60.751  1.00  0.00     0.193 A 
HETATM   11  O   UNL     1       4.266  33.787  59.952  1.00  0.00    -0.287 OA
HETATM   12  H   UNL     1       9.070  31.824  61.013  1.00  0.00     0.155 HD
HETATM   13  H   UNL     1       7.561  32.079  63.322  1.00  0.00     0.167 HD
ENDROOT
BRANCH   8  14
HETATM   14  C   UNL     1       5.833  33.624  64.493  1.00  0.00    -0.009 A 
HETATM   15  C   UNL     1       4.591  33.785  65.129  1.00  0.00     0.015 A 
HETATM   16  C   UNL     1       4.525  34.085  66.493  1.00  0.00     0.024 A 
HETATM   17  C   UNL     1       5.698  34.221  67.232  1.00  0.00     0.034 A 
HETATM   18 CL   UNL     1       5.616  34.590  68.909  1.00  0.00    -0.084 Cl
HETATM   19  C   UNL     1       6.938  34.061  66.617  1.00  0.00     0.024 A 
HETATM   20  C   UNL     1       7.004  33.762  65.253  1.00  0.00     0.015 A 
ENDBRANCH   8  14
BRANCH   1  21
HETATM   21  C   UNL     1       8.826  30.694  58.536  1.00  0.00     0.055 A 
HETATM   22  C   UNL     1      10.101  31.204  58.261  1.00  0.00     0.031 A 
HETATM   23  C   UNL     1      10.988  30.516  57.426  1.00  0.00     0.002 A 
HETATM   24  C   UNL     1      10.611  29.307  56.849  1.00  0.00     0.000 A 
HETATM   25  C   UNL     1       9.345  28.789  57.100  1.00  0.00     0.002 A 
HETATM   26  C   UNL     1       8.459  29.477  57.936  1.00  0.00     0.031 A 
ENDBRANCH   1  21
TORSDOF 2
ENDMDL
MODEL 7
REMARK VINA RESULT:      -9.3      5.447      6.719
REMARK  2 active torsions:
REMARK  status: ('A' for Active; 'I' for Inactive)
REMARK    1  A    between atoms: C_4  and  N_5 
REMARK    2  A    between atoms: C_12  and  C_13 
ROOT
HETATM    1  N   UNL     1       7.245  24.185  55.264  1.00  0.00    -0.236 N 
HETATM    2  N   UNL     1       6.273  24.998  54.640  1.00  0.00    -0.179 NA
HETATM    3  C   UNL     1       6.203  26.158  55.389  1.00  0.00     0.119 A 
HETATM    4  C   UNL     1       7.098  26.168  56.390  1.00  0.00     0.123 A 
HETATM    5  C   UNL     1       7.804  24.877  56.350  1.00  0.00     0.280 A 
HETATM    6  O   UNL     1       8.673  24.532  57.132  1.00  0.00    -0.265 OA
HETATM    7  N   UNL     1       5.327  27.195  55.213  1.00  0.00    -0.344 N 
HETATM    8  C   UNL     1       5.378  28.329  56.002  1.00  0.00     0.047 A 
HETATM    9  C   UNL     1       6.236  28.435  57.033  1.00  0.00     0.086 A 
HETATM   10  C   UNL     1       7.177  27.308  57.307  1.00  0.00     0.193 A 
HETATM   11  O   UNL     1       7.953  27.376  58.250  1.00  0.00    -0.287 OA
HETATM   12  H   UNL     1       5.360  24.544  54.600  1.00  0.00     0.155 HD
HETATM   13  H   UNL     1       4.836  27.250  54.326  1.00  0.00     0.167 HD
ENDROOT
BRANCH   8  14
HETATM   14  C   UNL     1       4.431  29.419  55.696  1.00  0.00    -0.009 A 
HETATM   15  C   UNL     1       3.770  30.117  56.720  1.00  0.00     0.015 A 
HETATM   16  C   UNL     1       2.879  31.151  56.416  1.00  0.00     0.024 A 
HETATM   17  C   UNL     1       2.647  31.498  55.087  1.00  0.00     0.034 A 
HETATM   18 CL   UNL     1       1.552  32.770  54.714  1.00  0.00    -0.084 Cl
HETATM   19  C   UNL     1       3.298  30.820  54.059  1.00  0.00     0.024 A 
HETATM   20  C   UNL     1       4.187  29.785  54.363  1.00  0.00     0.015 A 
ENDBRANCH   8  14
BRANCH   1  21
HETATM   21  C   UNL     1       7.538  22.899  54.764  1.00  0.00     0.055 A 
HETATM   22  C   UNL     1       7.778  22.686  53.400  1.00  0.00     0.031 A 
HETATM   23  C   UNL     1       8.087  21.411  52.914  1.00  0.00     0.002 A 
HETATM   24  C   UNL     1       8.157  20.328  53.785  1.00  0.00     0.000 A 
HETATM   25  C   UNL     1       7.913  20.516  55.141  1.00  0.00     0.002 A 
HETATM   26  C   UNL     1       7.604  21.791  55.626  1.00  0.00     0.031 A 
ENDBRANCH   1  21
TORSDOF 2
ENDMDL
MODEL 8
REMARK VINA RESULT:      -9.2      3.526      8.206
REMARK  2 active torsions:
REMARK  status: ('A' for Active; 'I' for Inactive)
REMARK    1  A    between atoms: C_4  and  N_5 
REMARK    2  A    between atoms: C_12  and  C_13 
ROOT
HETATM    1  N   UNL     1       7.851  32.001  60.631  1.00  0.00    -0.236 N 
HETATM    2  N   UNL     1       6.912  31.211  59.931  1.00  0.00    -0.179 NA
HETATM    3  C   UNL     1       7.576  30.714  58.825  1.00  0.00     0.119 A 
HETATM    4  C   UNL     1       8.871  31.071  58.810  1.00  0.00     0.123 A 
HETATM    5  C   UNL     1       9.095  31.930  59.984  1.00  0.00     0.280 A 
HETATM    6  O   UNL     1      10.155  32.456  60.274  1.00  0.00    -0.265 OA
HETATM    7  N   UNL     1       7.035  29.975  57.809  1.00  0.00    -0.344 N 
HETATM    8  C   UNL     1       7.810  29.494  56.769  1.00  0.00     0.047 A 
HETATM    9  C   UNL     1       9.117  29.799  56.662  1.00  0.00     0.086 A 
HETATM   10  C   UNL     1       9.747  30.652  57.714  1.00  0.00     0.193 A 
HETATM   11  O   UNL     1      10.929  30.956  57.626  1.00  0.00    -0.287 OA
HETATM   12  H   UNL     1       6.095  31.750  59.644  1.00  0.00     0.155 HD
HETATM   13  H   UNL     1       6.131  29.541  57.972  1.00  0.00     0.167 HD
ENDROOT
BRANCH   8  14
HETATM   14  C   UNL     1       7.147  28.655  55.752  1.00  0.00    -0.009 A 
HETATM   15  C   UNL     1       5.762  28.425  55.790  1.00  0.00     0.015 A 
HETATM   16  C   UNL     1       5.147  27.631  54.817  1.00  0.00     0.024 A 
HETATM   17  C   UNL     1       5.910  27.066  53.797  1.00  0.00     0.034 A 
HETATM   18 CL   UNL     1       5.153  26.090  52.602  1.00  0.00    -0.084 Cl
HETATM   19  C   UNL     1       7.284  27.288  53.742  1.00  0.00     0.024 A 
HETATM   20  C   UNL     1       7.900  28.081  54.716  1.00  0.00     0.015 A 
ENDBRANCH   8  14
BRANCH   1  21
HETATM   21  C   UNL     1       7.480  32.689  61.805  1.00  0.00     0.055 A 
HETATM   22  C   UNL     1       6.501  33.692  61.783  1.00  0.00     0.031 A 
HETATM   23  C   UNL     1       6.124  34.357  62.954  1.00  0.00     0.002 A 
HETATM   24  C   UNL     1       6.724  34.033  64.167  1.00  0.00     0.000 A 
HETATM   25  C   UNL     1       7.705  33.049  64.209  1.00  0.00     0.002 A 
HETATM   26  C   UNL     1       8.081  32.383  63.038  1.00  0.00     0.031 A 
ENDBRANCH   1  21
TORSDOF 2
ENDMDL
MODEL 9
REMARK VINA RESULT:      -9.1      8.660     10.387
REMARK  2 active torsions:
REMARK  status: ('A' for Active; 'I' for Inactive)
REMARK    1  A    between atoms: C_4  and  N_5 
REMARK    2  A    between atoms: C_12  and  C_13 
ROOT
HETATM    1  N   UNL     1       7.049  23.709  53.706  1.00  0.00    -0.236 N 
HETATM    2  N   UNL     1       7.087  24.166  52.371  1.00  0.00    -0.179 NA
HETATM    3  C   UNL     1       6.408  25.370  52.356  1.00  0.00     0.119 A 
HETATM    4  C   UNL     1       6.006  25.739  53.584  1.00  0.00     0.123 A 
HETATM    5  C   UNL     1       6.403  24.664  54.508  1.00  0.00     0.280 A 
HETATM    6  O   UNL     1       6.176  24.653  55.705  1.00  0.00    -0.265 OA
HETATM    7  N   UNL     1       6.111  26.129  51.257  1.00  0.00    -0.344 N 
HETATM    8  C   UNL     1       5.459  27.344  51.369  1.00  0.00     0.047 A 
HETATM    9  C   UNL     1       5.013  27.800  52.555  1.00  0.00     0.086 A 
HETATM   10  C   UNL     1       5.259  26.983  53.781  1.00  0.00     0.193 A 
HETATM   11  O   UNL     1       4.846  27.370  54.865  1.00  0.00    -0.287 OA
HETATM   12  H   UNL     1       6.654  23.505  51.726  1.00  0.00     0.155 HD
HETATM   13  H   UNL     1       6.622  25.938  50.401  1.00  0.00     0.167 HD
ENDROOT
BRANCH   8  14
HETATM   14  C   UNL     1       5.237  28.119  50.133  1.00  0.00    -0.009 A 
HETATM   15  C   UNL     1       4.816  27.493  48.948  1.00  0.00     0.015 A 
HETATM   16  C   UNL     1       4.605  28.240  47.786  1.00  0.00     0.024 A 
HETATM   17  C   UNL     1       4.808  29.618  47.800  1.00  0.00     0.034 A 
HETATM   18 CL   UNL     1       4.548  30.536  46.370  1.00  0.00    -0.084 Cl
HETATM   19  C   UNL     1       5.221  30.256  48.967  1.00  0.00     0.024 A 
HETATM   20  C   UNL     1       5.433  29.509  50.130  1.00  0.00     0.015 A 
ENDBRANCH   8  14
BRANCH   1  21
HETATM   21  C   UNL     1       7.628  22.473  54.062  1.00  0.00     0.055 A 
HETATM   22  C   UNL     1       7.774  22.097  55.404  1.00  0.00     0.031 A 
HETATM   23  C   UNL     1       8.332  20.862  55.749  1.00  0.00     0.002 A 
HETATM   24  C   UNL     1       8.756  19.984  54.758  1.00  0.00     0.000 A 
HETATM   25  C   UNL     1       8.630  20.342  53.420  1.00  0.00     0.002 A 
HETATM   26  C   UNL     1       8.072  21.577  53.075  1.00  0.00     0.031 A 
ENDBRANCH   1  21
TORSDOF 2
ENDMDL
MODEL 10
REMARK VINA RESULT:      -8.9      2.578      3.711
REMARK  2 active torsions:
REMARK  status: ('A' for Active; 'I' for Inactive)
REMARK    1  A    between atoms: C_4  and  N_5 
REMARK    2  A    between atoms: C_12  and  C_13 
ROOT
HETATM    1  N   UNL     1       7.004  26.985  54.960  1.00  0.00    -0.236 N 
HETATM    2  N   UNL     1       7.529  27.194  56.254  1.00  0.00    -0.179 NA
HETATM    3  C   UNL     1       7.081  28.439  56.654  1.00  0.00     0.119 A 
HETATM    4  C   UNL     1       6.264  28.998  55.747  1.00  0.00     0.123 A 
HETATM    5  C   UNL     1       6.191  28.073  54.605  1.00  0.00     0.280 A 
HETATM    6  O   UNL     1       5.555  28.271  53.584  1.00  0.00    -0.265 OA
HETATM    7  N   UNL     1       7.419  29.100  57.804  1.00  0.00    -0.344 N 
HETATM    8  C   UNL     1       6.874  30.331  58.120  1.00  0.00     0.047 A 
HETATM    9  C   UNL     1       6.048  30.976  57.275  1.00  0.00     0.086 A 
HETATM   10  C   UNL     1       5.690  30.326  55.979  1.00  0.00     0.193 A 
HETATM   11  O   UNL     1       4.956  30.903  55.189  1.00  0.00    -0.287 OA
HETATM   12  H   UNL     1       8.548  27.161  56.265  1.00  0.00     0.155 HD
HETATM   13  H   UNL     1       7.843  28.558  58.551  1.00  0.00     0.167 HD
ENDROOT
BRANCH   8  14
HETATM   14  C   UNL     1       7.253  30.937  59.411  1.00  0.00    -0.009 A 
HETATM   15  C   UNL     1       8.396  30.509  60.107  1.00  0.00     0.015 A 
HETATM   16  C   UNL     1       8.746  31.095  61.327  1.00  0.00     0.024 A 
HETATM   17  C   UNL     1       7.960  32.117  61.857  1.00  0.00     0.034 A 
HETATM   18 CL   UNL     1       8.392  32.838  63.357  1.00  0.00    -0.084 Cl
HETATM   19  C   UNL     1       6.827  32.556  61.178  1.00  0.00     0.024 A 
HETATM   20  C   UNL     1       6.476  31.969  59.959  1.00  0.00     0.015 A 
ENDBRANCH   8  14
BRANCH   1  21
HETATM   21  C   UNL     1       7.304  25.808  54.242  1.00  0.00     0.055 A 
HETATM   22  C   UNL     1       7.713  25.857  52.902  1.00  0.00     0.031 A 
HETATM   23  C   UNL     1       8.027  24.688  52.202  1.00  0.00     0.002 A 
HETATM   24  C   UNL     1       7.935  23.450  52.829  1.00  0.00     0.000 A 
HETATM   25  C   UNL     1       7.522  23.378  54.156  1.00  0.00     0.002 A 
HETATM   26  C   UNL     1       7.208  24.548  54.856  1.00  0.00     0.031 A 
ENDBRANCH   1  21
TORSDOF 2
ENDMDL
