MODEL 1
REMARK VINA RESULT:      -9.9      0.000      0.000
REMARK  3 active torsions:
REMARK  status: ('A' for Active; 'I' for Inactive)
REMARK    1  A    between atoms: C_6  and  N_7 
REMARK       I    between atoms: N_7  and  C_8 
REMARK    2  A    between atoms: C_8  and  C_9 
REMARK    3  A    between atoms: C_9  and  C_10 
ROOT
HETATM    1  C   UNL     1       7.042  27.526  56.340  1.00  0.00     0.286 C 
HETATM    2  N   UNL     1       8.260  28.260  55.774  1.00  0.00    -0.056 N 
HETATM    3  H   UNL     1       8.822  27.547  55.265  1.00  0.00     0.278 HD
HETATM    4  H   UNL     1       7.966  28.949  55.071  1.00  0.00     0.278 HD
HETATM    5  C   UNL     1       9.055  28.897  56.871  1.00  0.00     0.209 C 
HETATM    6  C   UNL     1       8.150  29.923  57.591  1.00  0.00     0.115 C 
HETATM    7  N   UNL     1       6.878  29.343  58.022  1.00  0.00    -0.353 N 
HETATM    8  C   UNL     1       6.187  28.430  57.251  1.00  0.00     0.249 C 
HETATM    9  O   UNL     1       4.976  28.300  57.380  1.00  0.00    -0.271 OA
HETATM   10  C   UNL     1      10.298  29.570  56.306  1.00  0.00     0.035 C 
HETATM   11  C   UNL     1      11.082  30.241  57.436  1.00  0.00     0.002 C 
HETATM   12  C   UNL     1      10.217  31.201  58.256  1.00  0.00     0.002 C 
HETATM   13  C   UNL     1       8.919  30.556  58.751  1.00  0.00     0.027 C 
HETATM   14  H   UNL     1       6.259  29.924  58.585  1.00  0.00     0.163 HD
ENDROOT
BRANCH   1  15
HETATM   15  C   UNL     1       6.239  26.880  55.208  1.00  0.00     0.146 C 
BRANCH  15  16
HETATM   16  C   UNL     1       7.142  26.775  54.004  1.00  0.00     0.224 C 
HETATM   17  N   UNL     1       7.642  25.614  53.522  1.00  0.00    -0.327 N 
HETATM   18  H   UNL     1       8.016  25.735  52.584  1.00  0.00     0.169 HD
HETATM   19  O   UNL     1       7.340  27.815  53.354  1.00  0.00    -0.273 OA
BRANCH  17  20
HETATM   20  C   UNL     1       7.781  24.308  54.030  1.00  0.00     0.035 A 
HETATM   21  C   UNL     1       7.746  23.135  53.277  1.00  0.00     0.037 A 
HETATM   22  C   UNL     1       7.877  21.869  53.886  1.00  0.00    -0.054 A 
HETATM   23  C   UNL     1       8.031  21.781  55.282  1.00  0.00    -0.056 A 
HETATM   24  C   UNL     1       7.863  20.633  53.025  1.00  0.00     0.049 C 
HETATM   25  C   UNL     1       8.155  20.456  55.985  1.00  0.00     0.049 C 
HETATM   26  C   UNL     1       8.012  22.956  56.040  1.00  0.00     0.009 A 
HETATM   27  C   UNL     1       7.885  24.201  55.420  1.00  0.00     0.030 A 
ENDBRANCH  17  20
ENDBRANCH  15  16
ENDBRANCH   1  15
TORSDOF 3
ENDMDL
MODEL 2
REMARK VINA RESULT:      -9.8      3.391      5.959
REMARK  3 active torsions:
REMARK  status: ('A' for Active; 'I' for Inactive)
REMARK    1  A    between atoms: C_6  and  N_7 
REMARK       I    between atoms: N_7  and  C_8 
REMARK    2  A    between atoms: C_8  and  C_9 
REMARK    3  A    between atoms: C_9  and  C_10 
ROOT
HETATM    1  C   UNL     1       4.908  26.901  52.861  1.00  0.00     0.286 C 
HETATM    2  N   UNL     1       5.592  27.844  51.868  1.00  0.00    -0.056 N 
HETATM    3  H   UNL     1       5.568  28.791  52.298  1.00  0.00     0.278 HD
HETATM    4  H   UNL     1       6.585  27.599  51.769  1.00  0.00     0.278 HD
HETATM    5  C   UNL     1       4.887  27.829  50.548  1.00  0.00     0.209 C 
HETATM    6  C   UNL     1       4.945  26.391  49.984  1.00  0.00     0.115 C 
HETATM    7  N   UNL     1       4.463  25.394  50.940  1.00  0.00    -0.353 N 
HETATM    8  C   UNL     1       4.735  25.478  52.291  1.00  0.00     0.249 C 
HETATM    9  O   UNL     1       4.733  24.471  52.988  1.00  0.00    -0.271 OA
HETATM   10  C   UNL     1       5.533  28.817  49.587  1.00  0.00     0.035 C 
HETATM   11  C   UNL     1       4.819  28.767  48.234  1.00  0.00     0.002 C 
HETATM   12  C   UNL     1       4.754  27.349  47.662  1.00  0.00     0.002 C 
HETATM   13  C   UNL     1       4.188  26.332  48.657  1.00  0.00     0.027 C 
HETATM   14  H   UNL     1       4.381  24.431  50.619  1.00  0.00     0.163 HD
ENDROOT
BRANCH   1  15
HETATM   15  C   UNL     1       5.640  26.926  54.205  1.00  0.00     0.146 C 
BRANCH  15  16
HETATM   16  C   UNL     1       7.118  27.049  53.923  1.00  0.00     0.224 C 
HETATM   17  N   UNL     1       7.969  26.002  53.833  1.00  0.00    -0.327 N 
HETATM   18  H   UNL     1       8.848  26.278  53.405  1.00  0.00     0.169 HD
HETATM   19  O   UNL     1       7.546  28.181  53.644  1.00  0.00    -0.273 OA
BRANCH  17  20
HETATM   20  C   UNL     1       7.919  24.649  54.219  1.00  0.00     0.035 A 
HETATM   21  C   UNL     1       7.980  23.554  53.357  1.00  0.00     0.037 A 
HETATM   22  C   UNL     1       7.903  22.233  53.844  1.00  0.00    -0.054 A 
HETATM   23  C   UNL     1       7.747  22.007  55.224  1.00  0.00    -0.056 A 
HETATM   24  C   UNL     1       8.004  21.084  52.874  1.00  0.00     0.049 C 
HETATM   25  C   UNL     1       7.639  20.618  55.794  1.00  0.00     0.049 C 
HETATM   26  C   UNL     1       7.631  23.106  56.079  1.00  0.00     0.009 A 
HETATM   27  C   UNL     1       7.714  24.409  55.582  1.00  0.00     0.030 A 
ENDBRANCH  17  20
ENDBRANCH  15  16
ENDBRANCH   1  15
TORSDOF 3
ENDMDL
MODEL 3
REMARK VINA RESULT:      -9.6      3.220      4.892
REMARK  3 active torsions:
REMARK  status: ('A' for Active; 'I' for Inactive)
REMARK    1  A    between atoms: C_6  and  N_7 
REMARK       I    between atoms: N_7  and  C_8 
REMARK    2  A    between atoms: C_8  and  C_9 
REMARK    3  A    between atoms: C_9  and  C_10 
ROOT
HETATM    1  C   UNL     1       5.830  26.519  55.479  1.00  0.00     0.286 C 
HETATM    2  N   UNL     1       5.396  25.674  54.279  1.00  0.00    -0.056 N 
HETATM    3  H   UNL     1       6.058  24.872  54.230  1.00  0.00     0.278 HD
HETATM    4  H   UNL     1       4.467  25.269  54.445  1.00  0.00     0.278 HD
HETATM    5  C   UNL     1       5.428  26.482  53.019  1.00  0.00     0.209 C 
HETATM    6  C   UNL     1       4.441  27.662  53.176  1.00  0.00     0.115 C 
HETATM    7  N   UNL     1       4.678  28.432  54.396  1.00  0.00    -0.353 N 
HETATM    8  C   UNL     1       5.027  27.832  55.589  1.00  0.00     0.249 C 
HETATM    9  O   UNL     1       4.787  28.385  56.655  1.00  0.00    -0.271 OA
HETATM   10  C   UNL     1       5.059  25.618  51.822  1.00  0.00     0.035 C 
HETATM   11  C   UNL     1       5.068  26.466  50.548  1.00  0.00     0.002 C 
HETATM   12  C   UNL     1       4.183  27.710  50.670  1.00  0.00     0.002 C 
HETATM   13  C   UNL     1       4.489  28.536  51.922  1.00  0.00     0.027 C 
HETATM   14  H   UNL     1       4.132  29.282  54.533  1.00  0.00     0.163 HD
ENDROOT
BRANCH   1  15
HETATM   15  C   UNL     1       5.791  25.681  56.759  1.00  0.00     0.146 C 
BRANCH  15  16
HETATM   16  C   UNL     1       7.201  25.578  57.286  1.00  0.00     0.224 C 
HETATM   17  N   UNL     1       8.157  24.777  56.763  1.00  0.00    -0.327 N 
HETATM   18  H   UNL     1       9.080  25.035  57.103  1.00  0.00     0.169 HD
HETATM   19  O   UNL     1       7.525  26.370  58.186  1.00  0.00    -0.273 OA
BRANCH  17  20
HETATM   20  C   UNL     1       8.155  23.670  55.894  1.00  0.00     0.035 A 
HETATM   21  C   UNL     1       8.207  22.331  56.281  1.00  0.00     0.037 A 
HETATM   22  C   UNL     1       8.219  21.292  55.327  1.00  0.00    -0.054 A 
HETATM   23  C   UNL     1       8.193  21.605  53.956  1.00  0.00    -0.056 A 
HETATM   24  C   UNL     1       8.246  19.861  55.798  1.00  0.00     0.049 C 
HETATM   25  C   UNL     1       8.225  20.537  52.896  1.00  0.00     0.049 C 
HETATM   26  C   UNL     1       8.196  22.949  53.570  1.00  0.00     0.009 A 
HETATM   27  C   UNL     1       8.180  23.966  54.527  1.00  0.00     0.030 A 
ENDBRANCH  17  20
ENDBRANCH  15  16
ENDBRANCH   1  15
TORSDOF 3
ENDMDL
MODEL 4
REMARK VINA RESULT:      -9.6      1.711      6.811
REMARK  3 active torsions:
REMARK  status: ('A' for Active; 'I' for Inactive)
REMARK    1  A    between atoms: C_6  and  N_7 
REMARK       I    between atoms: N_7  and  C_8 
REMARK    2  A    between atoms: C_8  and  C_9 
REMARK    3  A    between atoms: C_9  and  C_10 
ROOT
HETATM    1  C   UNL     1       6.026  25.357  56.410  1.00  0.00     0.286 C 
HETATM    2  N   UNL     1       6.175  24.993  54.931  1.00  0.00    -0.056 N 
HETATM    3  H   UNL     1       5.211  24.908  54.550  1.00  0.00     0.278 HD
HETATM    4  H   UNL     1       6.619  25.764  54.417  1.00  0.00     0.278 HD
HETATM    5  C   UNL     1       6.938  23.715  54.772  1.00  0.00     0.209 C 
HETATM    6  C   UNL     1       8.346  23.913  55.378  1.00  0.00     0.115 C 
HETATM    7  N   UNL     1       8.301  24.425  56.747  1.00  0.00    -0.353 N 
HETATM    8  C   UNL     1       7.380  25.372  57.148  1.00  0.00     0.249 C 
HETATM    9  O   UNL     1       7.616  26.101  58.103  1.00  0.00    -0.271 OA
HETATM   10  C   UNL     1       7.026  23.326  53.303  1.00  0.00     0.035 C 
HETATM   11  C   UNL     1       7.833  22.035  53.156  1.00  0.00     0.002 C 
HETATM   12  C   UNL     1       9.208  22.127  53.823  1.00  0.00     0.002 C 
HETATM   13  C   UNL     1       9.133  22.606  55.276  1.00  0.00     0.027 C 
HETATM   14  H   UNL     1       9.181  24.498  57.255  1.00  0.00     0.163 HD
ENDROOT
BRANCH   1  15
HETATM   15  C   UNL     1       5.246  26.667  56.557  1.00  0.00     0.146 C 
BRANCH  15  16
HETATM   16  C   UNL     1       5.534  27.514  55.342  1.00  0.00     0.224 C 
HETATM   17  N   UNL     1       6.546  28.407  55.255  1.00  0.00    -0.327 N 
HETATM   18  H   UNL     1       6.709  28.685  54.291  1.00  0.00     0.169 HD
HETATM   19  O   UNL     1       4.863  27.284  54.323  1.00  0.00    -0.273 OA
BRANCH  17  20
HETATM   20  C   UNL     1       7.386  29.046  56.186  1.00  0.00     0.035 A 
HETATM   21  C   UNL     1       8.780  29.049  56.156  1.00  0.00     0.037 A 
HETATM   22  C   UNL     1       9.534  29.706  57.150  1.00  0.00    -0.054 A 
HETATM   23  C   UNL     1       8.873  30.361  58.206  1.00  0.00    -0.056 A 
HETATM   24  C   UNL     1      11.038  29.705  57.055  1.00  0.00     0.049 C 
HETATM   25  C   UNL     1       9.628  31.059  59.304  1.00  0.00     0.049 C 
HETATM   26  C   UNL     1       7.477  30.310  58.264  1.00  0.00     0.009 A 
HETATM   27  C   UNL     1       6.745  29.659  57.269  1.00  0.00     0.030 A 
ENDBRANCH  17  20
ENDBRANCH  15  16
ENDBRANCH   1  15
TORSDOF 3
ENDMDL
MODEL 5
REMARK VINA RESULT:      -9.3      4.535      7.278
REMARK  3 active torsions:
REMARK  status: ('A' for Active; 'I' for Inactive)
REMARK    1  A    between atoms: C_6  and  N_7 
REMARK       I    between atoms: N_7  and  C_8 
REMARK    2  A    between atoms: C_8  and  C_9 
REMARK    3  A    between atoms: C_9  and  C_10 
ROOT
HETATM    1  C   UNL     1       5.436  27.946  51.026  1.00  0.00     0.286 C 
HETATM    2  N   UNL     1       4.646  26.700  50.616  1.00  0.00    -0.056 N 
HETATM    3  H   UNL     1       5.265  25.885  50.804  1.00  0.00     0.278 HD
HETATM    4  H   UNL     1       3.825  26.582  51.223  1.00  0.00     0.278 HD
HETATM    5  C   UNL     1       4.259  26.767  49.172  1.00  0.00     0.209 C 
HETATM    6  C   UNL     1       3.363  28.010  48.969  1.00  0.00     0.115 C 
HETATM    7  N   UNL     1       3.973  29.233  49.490  1.00  0.00    -0.353 N 
HETATM    8  C   UNL     1       4.697  29.251  50.665  1.00  0.00     0.249 C 
HETATM    9  O   UNL     1       4.810  30.286  51.309  1.00  0.00    -0.271 OA
HETATM   10  C   UNL     1       3.531  25.497  48.756  1.00  0.00     0.035 C 
HETATM   11  C   UNL     1       3.117  25.595  47.286  1.00  0.00     0.002 C 
HETATM   12  C   UNL     1       2.305  26.859  46.992  1.00  0.00     0.002 C 
HETATM   13  C   UNL     1       2.991  28.135  47.491  1.00  0.00     0.027 C 
HETATM   14  H   UNL     1       3.492  30.114  49.316  1.00  0.00     0.163 HD
ENDROOT
BRANCH   1  15
HETATM   15  C   UNL     1       5.824  27.864  52.505  1.00  0.00     0.146 C 
BRANCH  15  16
HETATM   16  C   UNL     1       4.712  27.150  53.235  1.00  0.00     0.224 C 
HETATM   17  N   UNL     1       4.878  26.029  53.973  1.00  0.00    -0.327 N 
HETATM   18  H   UNL     1       4.070  25.855  54.565  1.00  0.00     0.169 HD
HETATM   19  O   UNL     1       3.599  27.700  53.244  1.00  0.00    -0.273 OA
BRANCH  17  20
HETATM   20  C   UNL     1       5.888  25.055  54.082  1.00  0.00     0.035 A 
HETATM   21  C   UNL     1       6.623  24.769  55.232  1.00  0.00     0.037 A 
HETATM   22  C   UNL     1       7.630  23.782  55.233  1.00  0.00    -0.054 A 
HETATM   23  C   UNL     1       7.917  23.079  54.048  1.00  0.00    -0.056 A 
HETATM   24  C   UNL     1       8.375  23.490  56.510  1.00  0.00     0.049 C 
HETATM   25  C   UNL     1       8.995  22.031  53.987  1.00  0.00     0.049 C 
HETATM   26  C   UNL     1       7.217  23.405  52.883  1.00  0.00     0.009 A 
HETATM   27  C   UNL     1       6.219  24.382  52.901  1.00  0.00     0.030 A 
ENDBRANCH  17  20
ENDBRANCH  15  16
ENDBRANCH   1  15
TORSDOF 3
ENDMDL
MODEL 6
REMARK VINA RESULT:      -9.1      2.698      8.272
REMARK  3 active torsions:
REMARK  status: ('A' for Active; 'I' for Inactive)
REMARK    1  A    between atoms: C_6  and  N_7 
REMARK       I    between atoms: N_7  and  C_8 
REMARK    2  A    between atoms: C_8  and  C_9 
REMARK    3  A    between atoms: C_9  and  C_10 
ROOT
HETATM    1  C   UNL     1       7.240  27.918  56.828  1.00  0.00     0.286 C 
HETATM    2  N   UNL     1       8.014  26.716  57.375  1.00  0.00    -0.056 N 
HETATM    3  H   UNL     1       8.978  27.054  57.575  1.00  0.00     0.278 HD
HETATM    4  H   UNL     1       7.621  26.420  58.277  1.00  0.00     0.278 HD
HETATM    5  C   UNL     1       8.026  25.595  56.384  1.00  0.00     0.209 C 
HETATM    6  C   UNL     1       6.564  25.164  56.123  1.00  0.00     0.115 C 
HETATM    7  N   UNL     1       5.706  26.289  55.754  1.00  0.00    -0.353 N 
HETATM    8  C   UNL     1       5.828  27.531  56.344  1.00  0.00     0.249 C 
HETATM    9  O   UNL     1       4.874  28.299  56.376  1.00  0.00    -0.271 OA
HETATM   10  C   UNL     1       8.852  24.428  56.910  1.00  0.00     0.035 C 
HETATM   11  C   UNL     1       8.829  23.280  55.898  1.00  0.00     0.002 C 
HETATM   12  C   UNL     1       7.405  22.867  55.518  1.00  0.00     0.002 C 
HETATM   13  C   UNL     1       6.541  24.051  55.075  1.00  0.00     0.027 C 
HETATM   14  H   UNL     1       4.748  26.083  55.475  1.00  0.00     0.163 HD
ENDROOT
BRANCH   1  15
HETATM   15  C   UNL     1       7.236  29.056  57.852  1.00  0.00     0.146 C 
BRANCH  15  16
HETATM   16  C   UNL     1       8.525  29.823  57.695  1.00  0.00     0.224 C 
HETATM   17  N   UNL     1       9.084  30.587  58.662  1.00  0.00    -0.327 N 
HETATM   18  H   UNL     1      10.050  30.812  58.440  1.00  0.00     0.169 HD
HETATM   19  O   UNL     1       9.165  29.642  56.646  1.00  0.00    -0.273 OA
BRANCH  17  20
HETATM   20  C   UNL     1       8.625  31.151  59.866  1.00  0.00     0.035 A 
HETATM   21  C   UNL     1       7.519  31.989  60.003  1.00  0.00     0.037 A 
HETATM   22  C   UNL     1       7.151  32.520  61.257  1.00  0.00    -0.054 A 
HETATM   23  C   UNL     1       7.921  32.215  62.395  1.00  0.00    -0.056 A 
HETATM   24  C   UNL     1       5.929  33.396  61.356  1.00  0.00     0.049 C 
HETATM   25  C   UNL     1       7.586  32.771  63.752  1.00  0.00     0.049 C 
HETATM   26  C   UNL     1       9.061  31.420  62.246  1.00  0.00     0.009 A 
HETATM   27  C   UNL     1       9.408  30.898  60.998  1.00  0.00     0.030 A 
ENDBRANCH  17  20
ENDBRANCH  15  16
ENDBRANCH   1  15
TORSDOF 3
ENDMDL
MODEL 7
REMARK VINA RESULT:      -9.0      1.380      2.101
REMARK  3 active torsions:
REMARK  status: ('A' for Active; 'I' for Inactive)
REMARK    1  A    between atoms: C_6  and  N_7 
REMARK       I    between atoms: N_7  and  C_8 
REMARK    2  A    between atoms: C_8  and  C_9 
REMARK    3  A    between atoms: C_9  and  C_10 
ROOT
HETATM    1  C   UNL     1       5.687  28.125  57.024  1.00  0.00     0.286 C 
HETATM    2  N   UNL     1       7.176  28.475  56.958  1.00  0.00    -0.056 N 
HETATM    3  H   UNL     1       7.691  27.572  56.974  1.00  0.00     0.278 HD
HETATM    4  H   UNL     1       7.399  28.916  56.056  1.00  0.00     0.278 HD
HETATM    5  C   UNL     1       7.569  29.347  58.109  1.00  0.00     0.209 C 
HETATM    6  C   UNL     1       6.749  30.655  58.029  1.00  0.00     0.115 C 
HETATM    7  N   UNL     1       5.312  30.409  57.918  1.00  0.00    -0.353 N 
HETATM    8  C   UNL     1       4.798  29.378  57.158  1.00  0.00     0.249 C 
HETATM    9  O   UNL     1       3.659  29.443  56.713  1.00  0.00    -0.271 OA
HETATM   10  C   UNL     1       9.064  29.638  58.071  1.00  0.00     0.035 C 
HETATM   11  C   UNL     1       9.443  30.553  59.237  1.00  0.00     0.002 C 
HETATM   12  C   UNL     1       8.597  31.829  59.276  1.00  0.00     0.002 C 
HETATM   13  C   UNL     1       7.093  31.546  59.222  1.00  0.00     0.027 C 
HETATM   14  H   UNL     1       4.689  31.215  57.952  1.00  0.00     0.163 HD
ENDROOT
BRANCH   1  15
HETATM   15  C   UNL     1       5.299  27.235  55.841  1.00  0.00     0.146 C 
BRANCH  15  16
HETATM   16  C   UNL     1       6.209  27.579  54.687  1.00  0.00     0.224 C 
HETATM   17  N   UNL     1       6.879  26.669  53.943  1.00  0.00    -0.327 N 
HETATM   18  H   UNL     1       7.232  27.083  53.085  1.00  0.00     0.169 HD
HETATM   19  O   UNL     1       6.249  28.769  54.335  1.00  0.00    -0.273 OA
BRANCH  17  20
HETATM   20  C   UNL     1       7.213  25.311  54.104  1.00  0.00     0.035 A 
HETATM   21  C   UNL     1       7.651  24.715  55.286  1.00  0.00     0.037 A 
HETATM   22  C   UNL     1       7.980  23.344  55.338  1.00  0.00    -0.054 A 
HETATM   23  C   UNL     1       7.881  22.560  54.175  1.00  0.00    -0.056 A 
HETATM   24  C   UNL     1       8.420  22.742  56.648  1.00  0.00     0.049 C 
HETATM   25  C   UNL     1       8.238  21.098  54.170  1.00  0.00     0.049 C 
HETATM   26  C   UNL     1       7.493  23.171  52.979  1.00  0.00     0.009 A 
HETATM   27  C   UNL     1       7.167  24.529  52.945  1.00  0.00     0.030 A 
ENDBRANCH  17  20
ENDBRANCH  15  16
ENDBRANCH   1  15
TORSDOF 3
ENDMDL
MODEL 8
REMARK VINA RESULT:      -8.8      3.028      4.553
REMARK  3 active torsions:
REMARK  status: ('A' for Active; 'I' for Inactive)
REMARK    1  A    between atoms: C_6  and  N_7 
REMARK       I    between atoms: N_7  and  C_8 
REMARK    2  A    between atoms: C_8  and  C_9 
REMARK    3  A    between atoms: C_9  and  C_10 
ROOT
HETATM    1  C   UNL     1       6.850  30.310  57.963  1.00  0.00     0.286 C 
HETATM    2  N   UNL     1       6.025  30.974  59.068  1.00  0.00    -0.056 N 
HETATM    3  H   UNL     1       5.269  31.507  58.591  1.00  0.00     0.278 HD
HETATM    4  H   UNL     1       5.556  30.261  59.640  1.00  0.00     0.278 HD
HETATM    5  C   UNL     1       6.881  31.874  59.903  1.00  0.00     0.209 C 
HETATM    6  C   UNL     1       7.989  31.017  60.559  1.00  0.00     0.115 C 
HETATM    7  N   UNL     1       8.725  30.212  59.585  1.00  0.00    -0.353 N 
HETATM    8  C   UNL     1       8.103  29.601  58.515  1.00  0.00     0.249 C 
HETATM    9  O   UNL     1       8.598  28.609  57.993  1.00  0.00    -0.271 OA
HETATM   10  C   UNL     1       6.042  32.579  60.960  1.00  0.00     0.035 C 
HETATM   11  C   UNL     1       6.937  33.471  61.822  1.00  0.00     0.002 C 
HETATM   12  C   UNL     1       8.116  32.704  62.426  1.00  0.00     0.002 C 
HETATM   13  C   UNL     1       8.912  31.918  61.380  1.00  0.00     0.027 C 
HETATM   14  H   UNL     1       9.532  29.687  59.917  1.00  0.00     0.163 HD
ENDROOT
BRANCH   1  15
HETATM   15  C   UNL     1       5.961  29.392  57.118  1.00  0.00     0.146 C 
BRANCH  15  16
HETATM   16  C   UNL     1       5.643  30.115  55.832  1.00  0.00     0.224 C 
HETATM   17  N   UNL     1       5.556  29.519  54.621  1.00  0.00    -0.327 N 
HETATM   18  H   UNL     1       5.101  30.126  53.944  1.00  0.00     0.169 HD
HETATM   19  O   UNL     1       5.329  31.314  55.922  1.00  0.00    -0.273 OA
BRANCH  17  20
HETATM   20  C   UNL     1       5.972  28.282  54.094  1.00  0.00     0.035 A 
HETATM   21  C   UNL     1       5.134  27.224  53.742  1.00  0.00     0.037 A 
HETATM   22  C   UNL     1       5.654  26.015  53.237  1.00  0.00    -0.054 A 
HETATM   23  C   UNL     1       7.045  25.859  53.097  1.00  0.00    -0.056 A 
HETATM   24  C   UNL     1       4.704  24.913  52.844  1.00  0.00     0.049 C 
HETATM   25  C   UNL     1       7.654  24.582  52.583  1.00  0.00     0.049 C 
HETATM   26  C   UNL     1       7.885  26.900  53.501  1.00  0.00     0.009 A 
HETATM   27  C   UNL     1       7.355  28.094  53.995  1.00  0.00     0.030 A 
ENDBRANCH  17  20
ENDBRANCH  15  16
ENDBRANCH   1  15
TORSDOF 3
ENDMDL
MODEL 9
REMARK VINA RESULT:      -8.8      2.794      6.569
REMARK  3 active torsions:
REMARK  status: ('A' for Active; 'I' for Inactive)
REMARK    1  A    between atoms: C_6  and  N_7 
REMARK       I    between atoms: N_7  and  C_8 
REMARK    2  A    between atoms: C_8  and  C_9 
REMARK    3  A    between atoms: C_9  and  C_10 
ROOT
HETATM    1  C   UNL     1       6.980  25.910  55.927  1.00  0.00     0.286 C 
HETATM    2  N   UNL     1       7.385  25.440  54.528  1.00  0.00    -0.056 N 
HETATM    3  H   UNL     1       6.652  25.789  53.877  1.00  0.00     0.278 HD
HETATM    4  H   UNL     1       8.262  25.891  54.240  1.00  0.00     0.278 HD
HETATM    5  C   UNL     1       7.491  23.948  54.477  1.00  0.00     0.209 C 
HETATM    6  C   UNL     1       8.580  23.506  55.482  1.00  0.00     0.115 C 
HETATM    7  N   UNL     1       8.362  24.053  56.821  1.00  0.00    -0.353 N 
HETATM    8  C   UNL     1       7.900  25.338  57.025  1.00  0.00     0.249 C 
HETATM    9  O   UNL     1       8.142  25.925  58.072  1.00  0.00    -0.271 OA
HETATM   10  C   UNL     1       7.831  23.485  53.067  1.00  0.00     0.035 C 
HETATM   11  C   UNL     1       7.965  21.961  53.040  1.00  0.00     0.002 C 
HETATM   12  C   UNL     1       8.959  21.445  54.083  1.00  0.00     0.002 C 
HETATM   13  C   UNL     1       8.676  21.980  55.490  1.00  0.00     0.027 C 
HETATM   14  H   UNL     1       8.980  23.739  57.567  1.00  0.00     0.163 HD
ENDROOT
BRANCH   1  15
HETATM   15  C   UNL     1       6.876  27.437  55.964  1.00  0.00     0.146 C 
BRANCH  15  16
HETATM   16  C   UNL     1       5.420  27.797  56.129  1.00  0.00     0.224 C 
HETATM   17  N   UNL     1       4.537  27.899  55.110  1.00  0.00    -0.327 N 
HETATM   18  H   UNL     1       3.580  27.909  55.452  1.00  0.00     0.169 HD
HETATM   19  O   UNL     1       4.991  27.890  57.291  1.00  0.00    -0.273 OA
BRANCH  17  20
HETATM   20  C   UNL     1       4.647  28.021  53.712  1.00  0.00     0.035 A 
HETATM   21  C   UNL     1       4.806  26.966  52.814  1.00  0.00     0.037 A 
HETATM   22  C   UNL     1       4.926  27.196  51.427  1.00  0.00    -0.054 A 
HETATM   23  C   UNL     1       4.901  28.514  50.935  1.00  0.00    -0.056 A 
HETATM   24  C   UNL     1       5.065  26.020  50.495  1.00  0.00     0.049 C 
HETATM   25  C   UNL     1       5.046  28.817  49.468  1.00  0.00     0.049 C 
HETATM   26  C   UNL     1       4.797  29.572  51.843  1.00  0.00     0.009 A 
HETATM   27  C   UNL     1       4.675  29.327  53.212  1.00  0.00     0.030 A 
ENDBRANCH  17  20
ENDBRANCH  15  16
ENDBRANCH   1  15
TORSDOF 3
ENDMDL
MODEL 10
REMARK VINA RESULT:      -8.8      2.096      3.027
REMARK  3 active torsions:
REMARK  status: ('A' for Active; 'I' for Inactive)
REMARK    1  A    between atoms: C_6  and  N_7 
REMARK       I    between atoms: N_7  and  C_8 
REMARK    2  A    between atoms: C_8  and  C_9 
REMARK    3  A    between atoms: C_9  and  C_10 
ROOT
HETATM    1  C   UNL     1       6.634  28.312  56.135  1.00  0.00     0.286 C 
HETATM    2  N   UNL     1       5.222  28.828  55.848  1.00  0.00    -0.056 N 
HETATM    3  H   UNL     1       5.051  28.668  54.834  1.00  0.00     0.278 HD
HETATM    4  H   UNL     1       4.526  28.261  56.349  1.00  0.00     0.278 HD
HETATM    5  C   UNL     1       5.104  30.279  56.196  1.00  0.00     0.209 C 
HETATM    6  C   UNL     1       5.392  30.439  57.707  1.00  0.00     0.115 C 
HETATM    7  N   UNL     1       6.656  29.820  58.105  1.00  0.00    -0.353 N 
HETATM    8  C   UNL     1       7.086  28.619  57.577  1.00  0.00     0.249 C 
HETATM    9  O   UNL     1       7.863  27.909  58.203  1.00  0.00    -0.271 OA
HETATM   10  C   UNL     1       3.717  30.800  55.848  1.00  0.00     0.035 C 
HETATM   11  C   UNL     1       3.605  32.276  56.238  1.00  0.00     0.002 C 
HETATM   12  C   UNL     1       3.974  32.521  57.704  1.00  0.00     0.002 C 
HETATM   13  C   UNL     1       5.329  31.919  58.084  1.00  0.00     0.027 C 
HETATM   14  H   UNL     1       6.969  29.956  59.065  1.00  0.00     0.163 HD
ENDROOT
BRANCH   1  15
HETATM   15  C   UNL     1       6.738  26.827  55.775  1.00  0.00     0.146 C 
BRANCH  15  16
HETATM   16  C   UNL     1       7.369  26.728  54.408  1.00  0.00     0.224 C 
HETATM   17  N   UNL     1       7.677  25.564  53.790  1.00  0.00    -0.327 N 
HETATM   18  H   UNL     1       7.862  25.710  52.801  1.00  0.00     0.169 HD
HETATM   19  O   UNL     1       7.504  27.785  53.770  1.00  0.00    -0.273 OA
BRANCH  17  20
HETATM   20  C   UNL     1       7.824  24.229  54.210  1.00  0.00     0.035 A 
HETATM   21  C   UNL     1       7.799  23.108  53.381  1.00  0.00     0.037 A 
HETATM   22  C   UNL     1       7.938  21.806  53.904  1.00  0.00    -0.054 A 
HETATM   23  C   UNL     1       8.089  21.625  55.291  1.00  0.00    -0.056 A 
HETATM   24  C   UNL     1       7.934  20.629  52.962  1.00  0.00     0.049 C 
HETATM   25  C   UNL     1       8.221  20.257  55.904  1.00  0.00     0.049 C 
HETATM   26  C   UNL     1       8.060  22.746  56.125  1.00  0.00     0.009 A 
HETATM   27  C   UNL     1       7.926  24.029  55.591  1.00  0.00     0.030 A 
ENDBRANCH  17  20
ENDBRANCH  15  16
ENDBRANCH   1  15
TORSDOF 3
ENDMDL
