MODEL 1
REMARK VINA RESULT:      -9.5      0.000      0.000
REMARK  8 active torsions:
REMARK  status: ('A' for Active; 'I' for Inactive)
REMARK    1  A    between atoms: C_2  and  C_3 
REMARK    2  A    between atoms: C_7  and  C_8 
REMARK       I    between atoms: C_8  and  N_9 
REMARK    3  A    between atoms: N_9  and  C_10 
REMARK    4  A    between atoms: C_10  and  C_11 
REMARK    5  A    between atoms: C_11  and  O_12 
REMARK    6  A    between atoms: C_11  and  C_13 
REMARK    7  A    between atoms: C_13  and  O_14 
REMARK    8  A    between atoms: O_14  and  C_15 
ROOT
HETATM    1  C   UNL     1       8.975  29.361  57.490  1.00  0.00     0.269 C 
HETATM    2  N   UNL     1       8.037  28.358  57.560  1.00  0.00    -0.353 N 
HETATM    3  O   UNL     1       9.869  29.367  56.652  1.00  0.00    -0.266 OA
HETATM    4  H   UNL     1       7.318  28.392  58.267  1.00  0.00     0.162 HD
ENDROOT
BRANCH   1   5
HETATM    5  C   UNL     1       8.854  30.381  58.496  1.00  0.00     0.120 A 
HETATM    6  N   UNL     1       9.647  31.495  58.487  1.00  0.00    -0.272 N 
HETATM    7  N   UNL     1       9.440  32.327  59.517  1.00  0.00    -0.174 NA
HETATM    8  H   UNL     1      10.364  31.726  57.805  1.00  0.00     0.189 HD
HETATM    9  C   UNL     1       8.437  31.767  60.209  1.00  0.00     0.089 A 
HETATM   10  C   UNL     1       8.044  30.541  59.602  1.00  0.00     0.071 A 
BRANCH   9  11
HETATM   11  C   UNL     1       7.890  32.393  61.417  1.00  0.00    -0.005 A 
HETATM   12  C   UNL     1       8.474  32.169  62.674  1.00  0.00     0.017 A 
HETATM   13  C   UNL     1       7.947  32.775  63.818  1.00  0.00     0.043 A 
HETATM   14  C   UNL     1       6.839  33.607  63.709  1.00  0.00     0.116 A 
HETATM   15  C   UNL     1       6.243  33.841  62.477  1.00  0.00     0.043 A 
HETATM   16  F   UNL     1       6.338  34.188  64.806  1.00  0.00    -0.206 F 
HETATM   17  C   UNL     1       6.766  33.232  61.332  1.00  0.00     0.017 A 
ENDBRANCH   9  11
ENDBRANCH   1   5
BRANCH   2  18
HETATM   18  C   UNL     1       7.997  27.256  56.606  1.00  0.00     0.156 C 
BRANCH  18  19
HETATM   19  C   UNL     1       8.212  25.887  57.274  1.00  0.00     0.159 C 
BRANCH  19  20
HETATM   20  O   UNL     1       7.781  25.945  58.642  1.00  0.00    -0.392 OA
HETATM   21  H   UNL     1       8.490  25.521  59.160  1.00  0.00     0.210 HD
ENDBRANCH  19  20
BRANCH  19  22
HETATM   22  C   UNL     1       7.419  24.784  56.562  1.00  0.00     0.201 C 
BRANCH  22  23
HETATM   23  O   UNL     1       8.002  24.322  55.346  1.00  0.00    -0.383 OA
BRANCH  23  24
HETATM   24  C   UNL     1       7.605  23.021  54.897  1.00  0.00     0.121 C 
HETATM   25  C   UNL     1       8.064  22.040  55.984  1.00  0.00     0.032 C 
HETATM   26  C   UNL     1       7.804  20.588  55.606  1.00  0.00     0.002 C 
HETATM   27  C   UNL     1       8.432  20.242  54.260  1.00  0.00     0.000 C 
HETATM   28  C   UNL     1       7.965  21.198  53.168  1.00  0.00     0.002 C 
HETATM   29  C   UNL     1       8.223  22.655  53.543  1.00  0.00     0.032 C 
ENDBRANCH  23  24
ENDBRANCH  22  23
ENDBRANCH  19  22
ENDBRANCH  18  19
ENDBRANCH   2  18
TORSDOF 8
ENDMDL
MODEL 2
REMARK VINA RESULT:      -9.4      4.155     10.657
REMARK  8 active torsions:
REMARK  status: ('A' for Active; 'I' for Inactive)
REMARK    1  A    between atoms: C_2  and  C_3 
REMARK    2  A    between atoms: C_7  and  C_8 
REMARK       I    between atoms: C_8  and  N_9 
REMARK    3  A    between atoms: N_9  and  C_10 
REMARK    4  A    between atoms: C_10  and  C_11 
REMARK    5  A    between atoms: C_11  and  O_12 
REMARK    6  A    between atoms: C_11  and  C_13 
REMARK    7  A    between atoms: C_13  and  O_14 
REMARK    8  A    between atoms: O_14  and  C_15 
ROOT
HETATM    1  C   UNL     1       7.528  27.700  57.320  1.00  0.00     0.269 C 
HETATM    2  N   UNL     1       8.698  28.422  57.336  1.00  0.00    -0.353 N 
HETATM    3  O   UNL     1       6.449  28.190  57.634  1.00  0.00    -0.266 OA
HETATM    4  H   UNL     1       9.565  27.979  57.070  1.00  0.00     0.162 HD
ENDROOT
BRANCH   1   5
HETATM    5  C   UNL     1       7.667  26.320  56.945  1.00  0.00     0.120 A 
HETATM    6  N   UNL     1       7.914  25.346  57.873  1.00  0.00    -0.272 N 
HETATM    7  N   UNL     1       8.060  24.117  57.358  1.00  0.00    -0.174 NA
HETATM    8  H   UNL     1       8.010  25.473  58.877  1.00  0.00     0.189 HD
HETATM    9  C   UNL     1       7.855  24.275  56.042  1.00  0.00     0.089 A 
HETATM   10  C   UNL     1       7.610  25.645  55.742  1.00  0.00     0.071 A 
BRANCH   9  11
HETATM   11  C   UNL     1       7.907  23.143  55.112  1.00  0.00    -0.005 A 
HETATM   12  C   UNL     1       7.845  21.820  55.580  1.00  0.00     0.017 A 
HETATM   13  C   UNL     1       7.889  20.748  54.683  1.00  0.00     0.043 A 
HETATM   14  C   UNL     1       7.993  20.995  53.320  1.00  0.00     0.116 A 
HETATM   15  C   UNL     1       8.058  22.295  52.834  1.00  0.00     0.043 A 
HETATM   16  F   UNL     1       8.033  19.967  52.463  1.00  0.00    -0.206 F 
HETATM   17  C   UNL     1       8.019  23.367  53.730  1.00  0.00     0.017 A 
ENDBRANCH   9  11
ENDBRANCH   1   5
BRANCH   2  18
HETATM   18  C   UNL     1       8.738  29.841  57.671  1.00  0.00     0.156 C 
BRANCH  18  19
HETATM   19  C   UNL     1      10.164  30.342  57.957  1.00  0.00     0.159 C 
BRANCH  19  20
HETATM   20  O   UNL     1      10.793  30.730  56.727  1.00  0.00    -0.392 OA
HETATM   21  H   UNL     1      11.657  31.105  56.979  1.00  0.00     0.210 HD
ENDBRANCH  19  20
BRANCH  19  22
HETATM   22  C   UNL     1      10.156  31.550  58.901  1.00  0.00     0.201 C 
BRANCH  22  23
HETATM   23  O   UNL     1       8.951  32.310  58.885  1.00  0.00    -0.383 OA
BRANCH  23  24
HETATM   24  C   UNL     1       8.357  32.599  60.157  1.00  0.00     0.121 C 
HETATM   25  C   UNL     1       9.200  31.851  61.197  1.00  0.00     0.032 C 
HETATM   26  C   UNL     1       8.634  31.975  62.606  1.00  0.00     0.002 C 
HETATM   27  C   UNL     1       7.178  31.526  62.661  1.00  0.00     0.000 C 
HETATM   28  C   UNL     1       6.326  32.280  61.646  1.00  0.00     0.002 C 
HETATM   29  C   UNL     1       6.891  32.159  60.233  1.00  0.00     0.032 C 
ENDBRANCH  23  24
ENDBRANCH  22  23
ENDBRANCH  19  22
ENDBRANCH  18  19
ENDBRANCH   2  18
TORSDOF 8
ENDMDL
MODEL 3
REMARK VINA RESULT:      -9.3      4.275     10.487
REMARK  8 active torsions:
REMARK  status: ('A' for Active; 'I' for Inactive)
REMARK    1  A    between atoms: C_2  and  C_3 
REMARK    2  A    between atoms: C_7  and  C_8 
REMARK       I    between atoms: C_8  and  N_9 
REMARK    3  A    between atoms: N_9  and  C_10 
REMARK    4  A    between atoms: C_10  and  C_11 
REMARK    5  A    between atoms: C_11  and  O_12 
REMARK    6  A    between atoms: C_11  and  C_13 
REMARK    7  A    between atoms: C_13  and  O_14 
REMARK    8  A    between atoms: O_14  and  C_15 
ROOT
HETATM    1  C   UNL     1       7.516  27.883  57.318  1.00  0.00     0.269 C 
HETATM    2  N   UNL     1       6.917  28.692  56.382  1.00  0.00    -0.353 N 
HETATM    3  O   UNL     1       7.966  28.319  58.372  1.00  0.00    -0.266 OA
HETATM    4  H   UNL     1       6.561  28.292  55.527  1.00  0.00     0.162 HD
ENDROOT
BRANCH   1   5
HETATM    5  C   UNL     1       7.613  26.496  56.954  1.00  0.00     0.120 A 
HETATM    6  N   UNL     1       7.764  25.516  57.895  1.00  0.00    -0.272 N 
HETATM    7  N   UNL     1       7.882  24.280  57.390  1.00  0.00    -0.174 NA
HETATM    8  H   UNL     1       7.811  25.641  58.902  1.00  0.00     0.189 HD
HETATM    9  C   UNL     1       7.757  24.442  56.064  1.00  0.00     0.089 A 
HETATM   10  C   UNL     1       7.591  25.820  55.750  1.00  0.00     0.071 A 
BRANCH   9  11
HETATM   11  C   UNL     1       7.807  23.305  55.140  1.00  0.00    -0.005 A 
HETATM   12  C   UNL     1       7.853  23.505  53.751  1.00  0.00     0.017 A 
HETATM   13  C   UNL     1       7.907  22.413  52.879  1.00  0.00     0.043 A 
HETATM   14  C   UNL     1       7.918  21.122  53.393  1.00  0.00     0.116 A 
HETATM   15  C   UNL     1       7.871  20.899  54.763  1.00  0.00     0.043 A 
HETATM   16  F   UNL     1       7.972  20.078  52.556  1.00  0.00    -0.206 F 
HETATM   17  C   UNL     1       7.813  21.990  55.635  1.00  0.00     0.017 A 
ENDBRANCH   9  11
ENDBRANCH   1   5
BRANCH   2  18
HETATM   18  C   UNL     1       6.715  30.121  56.596  1.00  0.00     0.156 C 
BRANCH  18  19
HETATM   19  C   UNL     1       5.398  30.430  57.326  1.00  0.00     0.159 C 
BRANCH  19  20
HETATM   20  O   UNL     1       4.914  29.243  57.971  1.00  0.00    -0.392 OA
HETATM   21  H   UNL     1       4.071  29.495  58.391  1.00  0.00     0.210 HD
ENDBRANCH  19  20
BRANCH  19  22
HETATM   22  C   UNL     1       5.588  31.519  58.390  1.00  0.00     0.201 C 
BRANCH  22  23
HETATM   23  O   UNL     1       6.939  31.921  58.596  1.00  0.00    -0.383 OA
BRANCH  23  24
HETATM   24  C   UNL     1       7.555  31.502  59.819  1.00  0.00     0.121 C 
HETATM   25  C   UNL     1       6.609  31.946  60.943  1.00  0.00     0.032 C 
HETATM   26  C   UNL     1       7.174  31.661  62.328  1.00  0.00     0.002 C 
HETATM   27  C   UNL     1       8.555  32.282  62.504  1.00  0.00     0.000 C 
HETATM   28  C   UNL     1       9.511  31.830  61.404  1.00  0.00     0.002 C 
HETATM   29  C   UNL     1       8.947  32.112  60.014  1.00  0.00     0.032 C 
ENDBRANCH  23  24
ENDBRANCH  22  23
ENDBRANCH  19  22
ENDBRANCH  18  19
ENDBRANCH   2  18
TORSDOF 8
ENDMDL
MODEL 4
REMARK VINA RESULT:      -9.2      5.564      9.199
REMARK  8 active torsions:
REMARK  status: ('A' for Active; 'I' for Inactive)
REMARK    1  A    between atoms: C_2  and  C_3 
REMARK    2  A    between atoms: C_7  and  C_8 
REMARK       I    between atoms: C_8  and  N_9 
REMARK    3  A    between atoms: N_9  and  C_10 
REMARK    4  A    between atoms: C_10  and  C_11 
REMARK    5  A    between atoms: C_11  and  O_12 
REMARK    6  A    between atoms: C_11  and  C_13 
REMARK    7  A    between atoms: C_13  and  O_14 
REMARK    8  A    between atoms: O_14  and  C_15 
ROOT
HETATM    1  C   UNL     1       7.181  27.403  57.524  1.00  0.00     0.269 C 
HETATM    2  N   UNL     1       5.993  27.908  57.052  1.00  0.00    -0.353 N 
HETATM    3  O   UNL     1       7.936  28.055  58.237  1.00  0.00    -0.266 OA
HETATM    4  H   UNL     1       5.402  27.337  56.467  1.00  0.00     0.162 HD
ENDROOT
BRANCH   1   5
HETATM    5  C   UNL     1       7.494  26.070  57.088  1.00  0.00     0.120 A 
HETATM    6  N   UNL     1       8.059  25.153  57.931  1.00  0.00    -0.272 N 
HETATM    7  N   UNL     1       8.327  23.970  57.359  1.00  0.00    -0.174 NA
HETATM    8  H   UNL     1       8.300  25.292  58.908  1.00  0.00     0.189 HD
HETATM    9  C   UNL     1       7.879  24.092  56.101  1.00  0.00     0.089 A 
HETATM   10  C   UNL     1       7.353  25.398  55.890  1.00  0.00     0.071 A 
BRANCH   9  11
HETATM   11  C   UNL     1       7.969  22.989  55.140  1.00  0.00    -0.005 A 
HETATM   12  C   UNL     1       7.925  23.230  53.757  1.00  0.00     0.017 A 
HETATM   13  C   UNL     1       8.017  22.170  52.850  1.00  0.00     0.043 A 
HETATM   14  C   UNL     1       8.157  20.870  53.321  1.00  0.00     0.116 A 
HETATM   15  C   UNL     1       8.200  20.607  54.684  1.00  0.00     0.043 A 
HETATM   16  F   UNL     1       8.247  19.858  52.450  1.00  0.00    -0.206 F 
HETATM   17  C   UNL     1       8.103  21.666  55.592  1.00  0.00     0.017 A 
ENDBRANCH   9  11
ENDBRANCH   1   5
BRANCH   2  18
HETATM   18  C   UNL     1       5.509  29.236  57.411  1.00  0.00     0.156 C 
BRANCH  18  19
HETATM   19  C   UNL     1       4.768  29.929  56.255  1.00  0.00     0.159 C 
BRANCH  19  20
HETATM   20  O   UNL     1       5.654  30.847  55.597  1.00  0.00    -0.392 OA
HETATM   21  H   UNL     1       5.800  31.574  56.232  1.00  0.00     0.210 HD
ENDBRANCH  19  20
BRANCH  19  22
HETATM   22  C   UNL     1       4.265  28.914  55.222  1.00  0.00     0.201 C 
BRANCH  22  23
HETATM   23  O   UNL     1       5.069  28.808  54.051  1.00  0.00    -0.383 OA
BRANCH  23  24
HETATM   24  C   UNL     1       4.728  27.766  53.129  1.00  0.00     0.121 C 
HETATM   25  C   UNL     1       4.995  26.446  53.864  1.00  0.00     0.032 C 
HETATM   26  C   UNL     1       4.776  25.228  52.976  1.00  0.00     0.002 C 
HETATM   27  C   UNL     1       5.601  25.316  51.698  1.00  0.00     0.000 C 
HETATM   28  C   UNL     1       5.326  26.614  50.947  1.00  0.00     0.002 C 
HETATM   29  C   UNL     1       5.545  27.838  51.834  1.00  0.00     0.032 C 
ENDBRANCH  23  24
ENDBRANCH  22  23
ENDBRANCH  19  22
ENDBRANCH  18  19
ENDBRANCH   2  18
TORSDOF 8
ENDMDL
MODEL 5
REMARK VINA RESULT:      -9.2      6.447      9.957
REMARK  8 active torsions:
REMARK  status: ('A' for Active; 'I' for Inactive)
REMARK    1  A    between atoms: C_2  and  C_3 
REMARK    2  A    between atoms: C_7  and  C_8 
REMARK       I    between atoms: C_8  and  N_9 
REMARK    3  A    between atoms: N_9  and  C_10 
REMARK    4  A    between atoms: C_10  and  C_11 
REMARK    5  A    between atoms: C_11  and  O_12 
REMARK    6  A    between atoms: C_11  and  C_13 
REMARK    7  A    between atoms: C_13  and  O_14 
REMARK    8  A    between atoms: O_14  and  C_15 
ROOT
HETATM    1  C   UNL     1       5.059  26.896  52.081  1.00  0.00     0.269 C 
HETATM    2  N   UNL     1       4.239  27.269  53.120  1.00  0.00    -0.353 N 
HETATM    3  O   UNL     1       5.032  27.453  50.989  1.00  0.00    -0.266 OA
HETATM    4  H   UNL     1       4.294  26.782  54.002  1.00  0.00     0.162 HD
ENDROOT
BRANCH   1   5
HETATM    5  C   UNL     1       5.921  25.779  52.355  1.00  0.00     0.120 A 
HETATM    6  N   UNL     1       7.042  25.538  51.610  1.00  0.00    -0.272 N 
HETATM    7  N   UNL     1       7.714  24.434  51.966  1.00  0.00    -0.174 NA
HETATM    8  H   UNL     1       7.385  26.091  50.829  1.00  0.00     0.189 HD
HETATM    9  C   UNL     1       7.039  23.950  53.019  1.00  0.00     0.089 A 
HETATM   10  C   UNL     1       5.904  24.764  53.292  1.00  0.00     0.071 A 
BRANCH   9  11
HETATM   11  C   UNL     1       7.472  22.741  53.724  1.00  0.00    -0.005 A 
HETATM   12  C   UNL     1       7.451  22.674  55.126  1.00  0.00     0.017 A 
HETATM   13  C   UNL     1       7.862  21.513  55.788  1.00  0.00     0.043 A 
HETATM   14  C   UNL     1       8.291  20.416  55.051  1.00  0.00     0.116 A 
HETATM   15  C   UNL     1       8.324  20.459  53.663  1.00  0.00     0.043 A 
HETATM   16  F   UNL     1       8.681  19.305  55.687  1.00  0.00    -0.206 F 
HETATM   17  C   UNL     1       7.918  21.621  53.001  1.00  0.00     0.017 A 
ENDBRANCH   9  11
ENDBRANCH   1   5
BRANCH   2  18
HETATM   18  C   UNL     1       3.317  28.394  53.023  1.00  0.00     0.156 C 
BRANCH  18  19
HETATM   19  C   UNL     1       3.914  29.698  53.579  1.00  0.00     0.159 C 
BRANCH  19  20
HETATM   20  O   UNL     1       2.856  30.570  54.004  1.00  0.00    -0.392 OA
HETATM   21  H   UNL     1       2.693  31.172  53.254  1.00  0.00     0.210 HD
ENDBRANCH  19  20
BRANCH  19  22
HETATM   22  C   UNL     1       4.833  29.429  54.778  1.00  0.00     0.201 C 
BRANCH  22  23
HETATM   23  O   UNL     1       4.318  28.497  55.725  1.00  0.00    -0.383 OA
BRANCH  23  24
HETATM   24  C   UNL     1       5.278  27.814  56.540  1.00  0.00     0.121 C 
HETATM   25  C   UNL     1       6.654  28.162  55.956  1.00  0.00     0.032 C 
HETATM   26  C   UNL     1       7.788  27.425  56.655  1.00  0.00     0.002 C 
HETATM   27  C   UNL     1       7.560  25.918  56.649  1.00  0.00     0.000 C 
HETATM   28  C   UNL     1       6.204  25.559  57.248  1.00  0.00     0.002 C 
HETATM   29  C   UNL     1       5.064  26.296  56.549  1.00  0.00     0.032 C 
ENDBRANCH  23  24
ENDBRANCH  22  23
ENDBRANCH  19  22
ENDBRANCH  18  19
ENDBRANCH   2  18
TORSDOF 8
ENDMDL
MODEL 6
REMARK VINA RESULT:      -9.0      2.015      2.859
REMARK  8 active torsions:
REMARK  status: ('A' for Active; 'I' for Inactive)
REMARK    1  A    between atoms: C_2  and  C_3 
REMARK    2  A    between atoms: C_7  and  C_8 
REMARK       I    between atoms: C_8  and  N_9 
REMARK    3  A    between atoms: N_9  and  C_10 
REMARK    4  A    between atoms: C_10  and  C_11 
REMARK    5  A    between atoms: C_11  and  O_12 
REMARK    6  A    between atoms: C_11  and  C_13 
REMARK    7  A    between atoms: C_13  and  O_14 
REMARK    8  A    between atoms: O_14  and  C_15 
ROOT
HETATM    1  C   UNL     1       9.005  31.137  59.094  1.00  0.00     0.269 C 
HETATM    2  N   UNL     1       8.621  29.949  58.519  1.00  0.00    -0.353 N 
HETATM    3  O   UNL     1       9.710  31.953  58.511  1.00  0.00    -0.266 OA
HETATM    4  H   UNL     1       8.040  29.306  59.035  1.00  0.00     0.162 HD
ENDROOT
BRANCH   1   5
HETATM    5  C   UNL     1       8.553  31.335  60.444  1.00  0.00     0.120 A 
HETATM    6  N   UNL     1       8.839  30.438  61.436  1.00  0.00    -0.272 N 
HETATM    7  N   UNL     1       8.309  30.746  62.628  1.00  0.00    -0.174 NA
HETATM    8  H   UNL     1       9.381  29.583  61.345  1.00  0.00     0.189 HD
HETATM    9  C   UNL     1       7.688  31.918  62.430  1.00  0.00     0.089 A 
HETATM   10  C   UNL     1       7.814  32.319  61.071  1.00  0.00     0.071 A 
BRANCH   9  11
HETATM   11  C   UNL     1       6.990  32.613  63.516  1.00  0.00    -0.005 A 
HETATM   12  C   UNL     1       7.704  33.255  64.540  1.00  0.00     0.017 A 
HETATM   13  C   UNL     1       7.027  33.920  65.567  1.00  0.00     0.043 A 
HETATM   14  C   UNL     1       5.638  33.948  65.571  1.00  0.00     0.116 A 
HETATM   15  C   UNL     1       4.910  33.319  64.570  1.00  0.00     0.043 A 
HETATM   16  F   UNL     1       4.993  34.588  66.555  1.00  0.00    -0.206 F 
HETATM   17  C   UNL     1       5.585  32.649  63.545  1.00  0.00     0.017 A 
ENDBRANCH   9  11
ENDBRANCH   1   5
BRANCH   2  18
HETATM   18  C   UNL     1       8.973  29.594  57.149  1.00  0.00     0.156 C 
BRANCH  18  19
HETATM   19  C   UNL     1       8.649  28.127  56.816  1.00  0.00     0.159 C 
BRANCH  19  20
HETATM   20  O   UNL     1       7.929  27.533  57.906  1.00  0.00    -0.392 OA
HETATM   21  H   UNL     1       7.896  28.215  58.603  1.00  0.00     0.210 HD
ENDBRANCH  19  20
BRANCH  19  22
HETATM   22  C   UNL     1       7.792  28.015  55.549  1.00  0.00     0.201 C 
BRANCH  22  23
HETATM   23  O   UNL     1       6.732  27.066  55.629  1.00  0.00    -0.383 OA
BRANCH  23  24
HETATM   24  C   UNL     1       6.652  26.103  54.572  1.00  0.00     0.121 C 
HETATM   25  C   UNL     1       6.972  24.745  55.211  1.00  0.00     0.032 C 
HETATM   26  C   UNL     1       7.028  23.618  54.190  1.00  0.00     0.002 C 
HETATM   27  C   UNL     1       8.007  23.933  53.065  1.00  0.00     0.000 C 
HETATM   28  C   UNL     1       7.684  25.271  52.407  1.00  0.00     0.002 C 
HETATM   29  C   UNL     1       7.627  26.404  53.428  1.00  0.00     0.032 C 
ENDBRANCH  23  24
ENDBRANCH  22  23
ENDBRANCH  19  22
ENDBRANCH  18  19
ENDBRANCH   2  18
TORSDOF 8
ENDMDL
MODEL 7
REMARK VINA RESULT:      -8.8      2.155      3.125
REMARK  8 active torsions:
REMARK  status: ('A' for Active; 'I' for Inactive)
REMARK    1  A    between atoms: C_2  and  C_3 
REMARK    2  A    between atoms: C_7  and  C_8 
REMARK       I    between atoms: C_8  and  N_9 
REMARK    3  A    between atoms: N_9  and  C_10 
REMARK    4  A    between atoms: C_10  and  C_11 
REMARK    5  A    between atoms: C_11  and  O_12 
REMARK    6  A    between atoms: C_11  and  C_13 
REMARK    7  A    between atoms: C_13  and  O_14 
REMARK    8  A    between atoms: O_14  and  C_15 
ROOT
HETATM    1  C   UNL     1       6.337  28.860  55.599  1.00  0.00     0.269 C 
HETATM    2  N   UNL     1       6.896  27.788  54.944  1.00  0.00    -0.353 N 
HETATM    3  O   UNL     1       5.340  29.438  55.183  1.00  0.00    -0.266 OA
HETATM    4  H   UNL     1       7.718  27.342  55.321  1.00  0.00     0.162 HD
ENDROOT
BRANCH   1   5
HETATM    5  C   UNL     1       7.032  29.279  56.786  1.00  0.00     0.120 A 
HETATM    6  N   UNL     1       8.275  28.802  57.095  1.00  0.00    -0.272 N 
HETATM    7  N   UNL     1       8.767  29.258  58.256  1.00  0.00    -0.174 NA
HETATM    8  H   UNL     1       8.827  28.144  56.552  1.00  0.00     0.189 HD
HETATM    9  C   UNL     1       7.834  30.107  58.710  1.00  0.00     0.089 A 
HETATM   10  C   UNL     1       6.726  30.145  57.817  1.00  0.00     0.071 A 
BRANCH   9  11
HETATM   11  C   UNL     1       8.006  30.843  59.966  1.00  0.00    -0.005 A 
HETATM   12  C   UNL     1       7.111  31.860  60.337  1.00  0.00     0.017 A 
HETATM   13  C   UNL     1       7.282  32.551  61.540  1.00  0.00     0.043 A 
HETATM   14  C   UNL     1       8.344  32.226  62.376  1.00  0.00     0.116 A 
HETATM   15  C   UNL     1       9.243  31.226  62.029  1.00  0.00     0.043 A 
HETATM   16  F   UNL     1       8.504  32.888  63.528  1.00  0.00    -0.206 F 
HETATM   17  C   UNL     1       9.076  30.538  60.824  1.00  0.00     0.017 A 
ENDBRANCH   9  11
ENDBRANCH   1   5
BRANCH   2  18
HETATM   18  C   UNL     1       6.310  27.218  53.736  1.00  0.00     0.156 C 
BRANCH  18  19
HETATM   19  C   UNL     1       5.372  26.036  54.034  1.00  0.00     0.159 C 
BRANCH  19  20
HETATM   20  O   UNL     1       4.218  26.111  53.185  1.00  0.00    -0.392 OA
HETATM   21  H   UNL     1       4.166  27.040  52.892  1.00  0.00     0.210 HD
ENDBRANCH  19  20
BRANCH  19  22
HETATM   22  C   UNL     1       6.068  24.691  53.790  1.00  0.00     0.201 C 
BRANCH  22  23
HETATM   23  O   UNL     1       6.645  24.100  54.950  1.00  0.00    -0.383 OA
BRANCH  23  24
HETATM   24  C   UNL     1       7.661  23.114  54.732  1.00  0.00     0.121 C 
HETATM   25  C   UNL     1       7.456  22.606  53.298  1.00  0.00     0.032 C 
HETATM   26  C   UNL     1       8.403  21.468  52.941  1.00  0.00     0.002 C 
HETATM   27  C   UNL     1       8.300  20.324  53.942  1.00  0.00     0.000 C 
HETATM   28  C   UNL     1       8.524  20.813  55.369  1.00  0.00     0.002 C 
HETATM   29  C   UNL     1       7.577  21.954  55.731  1.00  0.00     0.032 C 
ENDBRANCH  23  24
ENDBRANCH  22  23
ENDBRANCH  19  22
ENDBRANCH  18  19
ENDBRANCH   2  18
TORSDOF 8
ENDMDL
MODEL 8
REMARK VINA RESULT:      -8.8      4.316     11.010
REMARK  8 active torsions:
REMARK  status: ('A' for Active; 'I' for Inactive)
REMARK    1  A    between atoms: C_2  and  C_3 
REMARK    2  A    between atoms: C_7  and  C_8 
REMARK       I    between atoms: C_8  and  N_9 
REMARK    3  A    between atoms: N_9  and  C_10 
REMARK    4  A    between atoms: C_10  and  C_11 
REMARK    5  A    between atoms: C_11  and  O_12 
REMARK    6  A    between atoms: C_11  and  C_13 
REMARK    7  A    between atoms: C_13  and  O_14 
REMARK    8  A    between atoms: O_14  and  C_15 
ROOT
HETATM    1  C   UNL     1       5.660  27.777  55.795  1.00  0.00     0.269 C 
HETATM    2  N   UNL     1       6.786  28.496  56.118  1.00  0.00    -0.353 N 
HETATM    3  O   UNL     1       4.528  28.195  56.011  1.00  0.00    -0.266 OA
HETATM    4  H   UNL     1       7.699  28.114  55.923  1.00  0.00     0.162 HD
ENDROOT
BRANCH   1   5
HETATM    5  C   UNL     1       5.906  26.482  55.221  1.00  0.00     0.120 A 
HETATM    6  N   UNL     1       5.122  25.980  54.220  1.00  0.00    -0.272 N 
HETATM    7  N   UNL     1       5.457  24.744  53.824  1.00  0.00    -0.174 NA
HETATM    8  H   UNL     1       4.328  26.438  53.781  1.00  0.00     0.189 HD
HETATM    9  C   UNL     1       6.536  24.434  54.559  1.00  0.00     0.089 A 
HETATM   10  C   UNL     1       6.846  25.498  55.452  1.00  0.00     0.071 A 
BRANCH   9  11
HETATM   11  C   UNL     1       7.229  23.151  54.408  1.00  0.00    -0.005 A 
HETATM   12  C   UNL     1       7.581  22.383  55.529  1.00  0.00     0.017 A 
HETATM   13  C   UNL     1       8.237  21.158  55.373  1.00  0.00     0.043 A 
HETATM   14  C   UNL     1       8.539  20.697  54.097  1.00  0.00     0.116 A 
HETATM   15  C   UNL     1       8.204  21.441  52.973  1.00  0.00     0.043 A 
HETATM   16  F   UNL     1       9.165  19.523  53.950  1.00  0.00    -0.206 F 
HETATM   17  C   UNL     1       7.552  22.668  53.129  1.00  0.00     0.017 A 
ENDBRANCH   9  11
ENDBRANCH   1   5
BRANCH   2  18
HETATM   18  C   UNL     1       6.721  29.837  56.689  1.00  0.00     0.156 C 
BRANCH  18  19
HETATM   19  C   UNL     1       7.054  29.858  58.191  1.00  0.00     0.159 C 
BRANCH  19  20
HETATM   20  O   UNL     1       8.072  28.886  58.472  1.00  0.00    -0.392 OA
HETATM   21  H   UNL     1       8.760  29.363  58.972  1.00  0.00     0.210 HD
ENDBRANCH  19  20
BRANCH  19  22
HETATM   22  C   UNL     1       7.561  31.236  58.634  1.00  0.00     0.201 C 
BRANCH  22  23
HETATM   23  O   UNL     1       8.391  31.220  59.792  1.00  0.00    -0.383 OA
BRANCH  23  24
HETATM   24  C   UNL     1       7.749  31.480  61.046  1.00  0.00     0.121 C 
HETATM   25  C   UNL     1       6.699  32.564  60.768  1.00  0.00     0.032 C 
HETATM   26  C   UNL     1       5.991  33.029  62.033  1.00  0.00     0.002 C 
HETATM   27  C   UNL     1       6.987  33.495  63.089  1.00  0.00     0.000 C 
HETATM   28  C   UNL     1       8.023  32.417  63.389  1.00  0.00     0.002 C 
HETATM   29  C   UNL     1       8.735  31.948  62.123  1.00  0.00     0.032 C 
ENDBRANCH  23  24
ENDBRANCH  22  23
ENDBRANCH  19  22
ENDBRANCH  18  19
ENDBRANCH   2  18
TORSDOF 8
ENDMDL
MODEL 9
REMARK VINA RESULT:      -8.8      2.399      3.716
REMARK  8 active torsions:
REMARK  status: ('A' for Active; 'I' for Inactive)
REMARK    1  A    between atoms: C_2  and  C_3 
REMARK    2  A    between atoms: C_7  and  C_8 
REMARK       I    between atoms: C_8  and  N_9 
REMARK    3  A    between atoms: N_9  and  C_10 
REMARK    4  A    between atoms: C_10  and  C_11 
REMARK    5  A    between atoms: C_11  and  O_12 
REMARK    6  A    between atoms: C_11  and  C_13 
REMARK    7  A    between atoms: C_13  and  O_14 
REMARK    8  A    between atoms: O_14  and  C_15 
ROOT
HETATM    1  C   UNL     1       7.944  31.718  60.078  1.00  0.00     0.269 C 
HETATM    2  N   UNL     1       7.825  30.404  59.692  1.00  0.00    -0.353 N 
HETATM    3  O   UNL     1       8.687  32.507  59.506  1.00  0.00    -0.266 OA
HETATM    4  H   UNL     1       7.201  29.788  60.192  1.00  0.00     0.162 HD
ENDROOT
BRANCH   1   5
HETATM    5  C   UNL     1       7.163  32.089  61.227  1.00  0.00     0.120 A 
HETATM    6  N   UNL     1       5.806  31.930  61.254  1.00  0.00    -0.272 N 
HETATM    7  N   UNL     1       5.221  32.364  62.380  1.00  0.00    -0.174 NA
HETATM    8  H   UNL     1       5.224  31.543  60.516  1.00  0.00     0.189 HD
HETATM    9  C   UNL     1       6.237  32.784  63.148  1.00  0.00     0.089 A 
HETATM   10  C   UNL     1       7.473  32.632  62.458  1.00  0.00     0.071 A 
BRANCH   9  11
HETATM   11  C   UNL     1       6.015  33.321  64.494  1.00  0.00    -0.005 A 
HETATM   12  C   UNL     1       7.094  33.606  65.346  1.00  0.00     0.017 A 
HETATM   13  C   UNL     1       6.870  34.124  66.625  1.00  0.00     0.043 A 
HETATM   14  C   UNL     1       5.570  34.360  67.054  1.00  0.00     0.116 A 
HETATM   15  C   UNL     1       4.487  34.084  66.231  1.00  0.00     0.043 A 
HETATM   16  F   UNL     1       5.359  34.858  68.279  1.00  0.00    -0.206 F 
HETATM   17  C   UNL     1       4.709  33.562  64.953  1.00  0.00     0.017 A 
ENDBRANCH   9  11
ENDBRANCH   1   5
BRANCH   2  18
HETATM   18  C   UNL     1       8.528  29.861  58.536  1.00  0.00     0.156 C 
BRANCH  18  19
HETATM   19  C   UNL     1       7.633  28.961  57.667  1.00  0.00     0.159 C 
BRANCH  19  20
HETATM   20  O   UNL     1       7.242  29.669  56.482  1.00  0.00    -0.392 OA
HETATM   21  H   UNL     1       7.811  30.460  56.448  1.00  0.00     0.210 HD
ENDBRANCH  19  20
BRANCH  19  22
HETATM   22  C   UNL     1       8.364  27.679  57.249  1.00  0.00     0.201 C 
BRANCH  22  23
HETATM   23  O   UNL     1       8.019  26.522  58.006  1.00  0.00    -0.383 OA
BRANCH  23  24
HETATM   24  C   UNL     1       7.620  25.364  57.263  1.00  0.00     0.121 C 
HETATM   25  C   UNL     1       8.852  24.451  57.209  1.00  0.00     0.032 C 
HETATM   26  C   UNL     1       8.621  23.209  56.359  1.00  0.00     0.002 C 
HETATM   27  C   UNL     1       8.153  23.575  54.955  1.00  0.00     0.000 C 
HETATM   28  C   UNL     1       6.916  24.465  54.996  1.00  0.00     0.002 C 
HETATM   29  C   UNL     1       7.143  25.711  55.848  1.00  0.00     0.032 C 
ENDBRANCH  23  24
ENDBRANCH  22  23
ENDBRANCH  19  22
ENDBRANCH  18  19
ENDBRANCH   2  18
TORSDOF 8
ENDMDL
MODEL 10
REMARK VINA RESULT:      -8.6      4.172     10.884
REMARK  8 active torsions:
REMARK  status: ('A' for Active; 'I' for Inactive)
REMARK    1  A    between atoms: C_2  and  C_3 
REMARK    2  A    between atoms: C_7  and  C_8 
REMARK       I    between atoms: C_8  and  N_9 
REMARK    3  A    between atoms: N_9  and  C_10 
REMARK    4  A    between atoms: C_10  and  C_11 
REMARK    5  A    between atoms: C_11  and  O_12 
REMARK    6  A    between atoms: C_11  and  C_13 
REMARK    7  A    between atoms: C_13  and  O_14 
REMARK    8  A    between atoms: O_14  and  C_15 
ROOT
HETATM    1  C   UNL     1       6.338  29.141  57.208  1.00  0.00     0.269 C 
HETATM    2  N   UNL     1       7.445  29.487  57.946  1.00  0.00    -0.353 N 
HETATM    3  O   UNL     1       5.406  29.914  57.019  1.00  0.00    -0.266 OA
HETATM    4  H   UNL     1       8.190  28.820  58.078  1.00  0.00     0.162 HD
ENDROOT
BRANCH   1   5
HETATM    5  C   UNL     1       6.336  27.793  56.708  1.00  0.00     0.120 A 
HETATM    6  N   UNL     1       5.444  26.861  57.163  1.00  0.00    -0.272 N 
HETATM    7  N   UNL     1       5.601  25.641  56.629  1.00  0.00    -0.174 NA
HETATM    8  H   UNL     1       4.716  27.003  57.856  1.00  0.00     0.189 HD
HETATM    9  C   UNL     1       6.605  25.783  55.750  1.00  0.00     0.089 A 
HETATM   10  C   UNL     1       7.096  27.118  55.774  1.00  0.00     0.071 A 
BRANCH   9  11
HETATM   11  C   UNL     1       7.075  24.663  54.930  1.00  0.00    -0.005 A 
HETATM   12  C   UNL     1       7.225  23.378  55.477  1.00  0.00     0.017 A 
HETATM   13  C   UNL     1       7.669  22.316  54.683  1.00  0.00     0.043 A 
HETATM   14  C   UNL     1       7.960  22.534  53.342  1.00  0.00     0.116 A 
HETATM   15  C   UNL     1       7.822  23.796  52.779  1.00  0.00     0.043 A 
HETATM   16  F   UNL     1       8.383  21.515  52.584  1.00  0.00    -0.206 F 
HETATM   17  C   UNL     1       7.383  24.860  53.573  1.00  0.00     0.017 A 
ENDBRANCH   9  11
ENDBRANCH   1   5
BRANCH   2  18
HETATM   18  C   UNL     1       7.623  30.820  58.511  1.00  0.00     0.156 C 
BRANCH  18  19
HETATM   19  C   UNL     1       8.954  30.969  59.268  1.00  0.00     0.159 C 
BRANCH  19  20
HETATM   20  O   UNL     1       9.466  32.297  59.084  1.00  0.00    -0.392 OA
HETATM   21  H   UNL     1       9.614  32.393  58.125  1.00  0.00     0.210 HD
ENDBRANCH  19  20
BRANCH  19  22
HETATM   22  C   UNL     1       8.776  30.721  60.771  1.00  0.00     0.201 C 
BRANCH  22  23
HETATM   23  O   UNL     1       8.869  31.888  61.583  1.00  0.00    -0.383 OA
BRANCH  23  24
HETATM   24  C   UNL     1       7.719  32.215  62.372  1.00  0.00     0.121 C 
HETATM   25  C   UNL     1       6.933  33.255  61.562  1.00  0.00     0.032 C 
HETATM   26  C   UNL     1       5.721  33.787  62.316  1.00  0.00     0.002 C 
HETATM   27  C   UNL     1       6.114  34.344  63.679  1.00  0.00     0.000 C 
HETATM   28  C   UNL     1       6.877  33.311  64.501  1.00  0.00     0.002 C 
HETATM   29  C   UNL     1       8.093  32.775  63.749  1.00  0.00     0.032 C 
ENDBRANCH  23  24
ENDBRANCH  22  23
ENDBRANCH  19  22
ENDBRANCH  18  19
ENDBRANCH   2  18
TORSDOF 8
ENDMDL
