MODEL 1
REMARK VINA RESULT:     -10.8      0.000      0.000
REMARK  6 active torsions:
REMARK  status: ('A' for Active; 'I' for Inactive)
REMARK    1  A    between atoms: C_5  and  N_6 
REMARK    2  A    between atoms: C_8  and  C_9 
REMARK    3  A    between atoms: C_16  and  C_17 
REMARK    4  A    between atoms: C_17  and  N_18 
REMARK    5  A    between atoms: C_22  and  N_23 
REMARK    6  A    between atoms: C_26  and  O_27 
ROOT
HETATM    1  N   UNL     1       7.257  28.545  56.225  1.00  0.00    -0.244 N 
HETATM    2  N   UNL     1       7.735  27.318  55.923  1.00  0.00    -0.167 NA
HETATM    3  C   UNL     1       6.935  26.820  54.980  1.00  0.00     0.097 A 
HETATM    4  C   UNL     1       5.818  27.672  54.757  1.00  0.00     0.016 A 
HETATM    5  C   UNL     1       6.091  28.790  55.525  1.00  0.00     0.130 A 
ENDROOT
BRANCH   4   6
HETATM    6  C   UNL     1       4.639  27.445  53.889  1.00  0.00     0.277 C 
BRANCH   6   7
HETATM    7  N   UNL     1       4.561  28.365  52.650  1.00  0.00    -0.067 N 
HETATM    8  H   UNL     1       4.956  29.261  52.985  1.00  0.00     0.280 HD
HETATM    9  C   UNL     1       5.429  27.877  51.524  1.00  0.00     0.237 C 
HETATM   10  C   UNL     1       5.288  28.761  50.303  1.00  0.00     0.061 C 
HETATM   11  C   UNL     1       3.852  28.939  49.819  1.00  0.00     0.191 C 
HETATM   12  C   UNL     1       2.943  29.359  50.977  1.00  0.00     0.061 C 
HETATM   13  C   UNL     1       3.118  28.584  52.281  1.00  0.00     0.237 C 
BRANCH  11  14
HETATM   14  N   UNL     1       3.312  27.784  48.975  1.00  0.00    -0.064 N 
HETATM   15  H   UNL     1       2.505  27.408  49.520  1.00  0.00     0.280 HD
HETATM   16  C   UNL     1       2.562  28.246  47.703  1.00  0.00     0.266 C 
HETATM   17  C   UNL     1       1.634  27.106  47.274  1.00  0.00     0.144 C 
HETATM   18  C   UNL     1       2.459  25.874  46.916  1.00  0.00     0.035 C 
HETATM   19  C   UNL     1       3.323  25.433  48.095  1.00  0.00     0.030 C 
HETATM   20  C   UNL     1       4.155  26.565  48.692  1.00  0.00     0.235 C 
BRANCH  17  21
HETATM   21  O   UNL     1       0.824  26.805  48.417  1.00  0.00    -0.394 OA
HETATM   22  H   UNL     1       1.266  26.078  48.904  1.00  0.00     0.210 HD
ENDBRANCH  17  21
ENDBRANCH  11  14
ENDBRANCH   6   7
ENDBRANCH   4   6
BRANCH   3  23
HETATM   23  C   UNL     1       7.234  25.536  54.354  1.00  0.00    -0.005 A 
HETATM   24  C   UNL     1       7.048  24.344  55.068  1.00  0.00     0.017 A 
HETATM   25  C   UNL     1       7.326  23.115  54.465  1.00  0.00     0.043 A 
HETATM   26  C   UNL     1       7.797  23.082  53.157  1.00  0.00     0.116 A 
HETATM   27  F   UNL     1       8.057  21.905  52.579  1.00  0.00    -0.206 F 
HETATM   28  C   UNL     1       8.010  24.256  52.444  1.00  0.00     0.043 A 
HETATM   29  C   UNL     1       7.735  25.487  53.043  1.00  0.00     0.017 A 
ENDBRANCH   3  23
BRANCH   1  30
HETATM   30  C   UNL     1       7.888  29.376  57.190  1.00  0.00     0.058 A 
HETATM   31  C   UNL     1       7.103  30.059  58.128  1.00  0.00     0.032 A 
HETATM   32  C   UNL     1       7.702  30.893  59.077  1.00  0.00     0.009 A 
HETATM   33  C   UNL     1       9.088  31.062  59.098  1.00  0.00    -0.062 A 
HETATM   34  C   UNL     1       9.743  31.943  60.124  1.00  0.00     0.048 C 
HETATM   35  C   UNL     1       9.873  30.372  58.168  1.00  0.00     0.009 A 
HETATM   36  C   UNL     1       9.280  29.533  57.218  1.00  0.00     0.032 A 
ENDBRANCH   1  30
TORSDOF 6
ENDMDL
MODEL 2
REMARK VINA RESULT:     -10.3      4.366      9.781
REMARK  6 active torsions:
REMARK  status: ('A' for Active; 'I' for Inactive)
REMARK    1  A    between atoms: C_5  and  N_6 
REMARK    2  A    between atoms: C_8  and  C_9 
REMARK    3  A    between atoms: C_16  and  C_17 
REMARK    4  A    between atoms: C_17  and  N_18 
REMARK    5  A    between atoms: C_22  and  N_23 
REMARK    6  A    between atoms: C_26  and  O_27 
ROOT
HETATM    1  N   UNL     1       6.478  25.185  54.927  1.00  0.00    -0.244 N 
HETATM    2  N   UNL     1       5.748  25.949  54.086  1.00  0.00    -0.167 NA
HETATM    3  C   UNL     1       5.404  27.043  54.768  1.00  0.00     0.097 A 
HETATM    4  C   UNL     1       5.790  26.936  56.132  1.00  0.00     0.016 A 
HETATM    5  C   UNL     1       6.525  25.764  56.181  1.00  0.00     0.130 A 
ENDROOT
BRANCH   4   6
HETATM    6  C   UNL     1       5.503  27.863  57.252  1.00  0.00     0.277 C 
BRANCH   6   7
HETATM    7  N   UNL     1       6.372  29.141  57.270  1.00  0.00    -0.067 N 
HETATM    8  H   UNL     1       6.489  29.372  56.269  1.00  0.00     0.280 HD
HETATM    9  C   UNL     1       5.670  30.297  57.927  1.00  0.00     0.237 C 
HETATM   10  C   UNL     1       6.565  31.517  57.987  1.00  0.00     0.061 C 
HETATM   11  C   UNL     1       7.914  31.274  58.657  1.00  0.00     0.191 C 
HETATM   12  C   UNL     1       8.603  30.049  58.049  1.00  0.00     0.061 C 
HETATM   13  C   UNL     1       7.724  28.816  57.849  1.00  0.00     0.237 C 
BRANCH  11  14
HETATM   14  N   UNL     1       7.884  31.291  60.185  1.00  0.00    -0.064 N 
HETATM   15  H   UNL     1       7.779  30.290  60.463  1.00  0.00     0.280 HD
HETATM   16  C   UNL     1       9.259  31.588  60.828  1.00  0.00     0.266 C 
HETATM   17  C   UNL     1       9.228  31.045  62.259  1.00  0.00     0.144 C 
HETATM   18  C   UNL     1       8.161  31.777  63.066  1.00  0.00     0.035 C 
HETATM   19  C   UNL     1       6.786  31.630  62.418  1.00  0.00     0.030 C 
HETATM   20  C   UNL     1       6.776  31.991  60.935  1.00  0.00     0.235 C 
BRANCH  17  21
HETATM   21  O   UNL     1       8.860  29.665  62.151  1.00  0.00    -0.394 OA
HETATM   22  H   UNL     1       7.904  29.600  62.359  1.00  0.00     0.210 HD
ENDBRANCH  17  21
ENDBRANCH  11  14
ENDBRANCH   6   7
ENDBRANCH   4   6
BRANCH   3  23
HETATM   23  C   UNL     1       4.688  28.132  54.112  1.00  0.00    -0.005 A 
HETATM   24  C   UNL     1       3.764  27.856  53.095  1.00  0.00     0.017 A 
HETATM   25  C   UNL     1       3.071  28.898  52.475  1.00  0.00     0.043 A 
HETATM   26  C   UNL     1       3.312  30.211  52.864  1.00  0.00     0.116 A 
HETATM   27  F   UNL     1       2.644  31.208  52.274  1.00  0.00    -0.206 F 
HETATM   28  C   UNL     1       4.243  30.504  53.855  1.00  0.00     0.043 A 
HETATM   29  C   UNL     1       4.939  29.465  54.476  1.00  0.00     0.017 A 
ENDBRANCH   3  23
BRANCH   1  30
HETATM   30  C   UNL     1       7.028  23.940  54.519  1.00  0.00     0.058 A 
HETATM   31  C   UNL     1       7.318  22.966  55.484  1.00  0.00     0.032 A 
HETATM   32  C   UNL     1       7.872  21.740  55.105  1.00  0.00     0.009 A 
HETATM   33  C   UNL     1       8.152  21.472  53.763  1.00  0.00    -0.062 A 
HETATM   34  C   UNL     1       8.732  20.151  53.344  1.00  0.00     0.048 C 
HETATM   35  C   UNL     1       7.853  22.440  52.798  1.00  0.00     0.009 A 
HETATM   36  C   UNL     1       7.293  23.668  53.170  1.00  0.00     0.032 A 
ENDBRANCH   1  30
TORSDOF 6
ENDMDL
MODEL 3
REMARK VINA RESULT:     -10.0      2.335      5.727
REMARK  6 active torsions:
REMARK  status: ('A' for Active; 'I' for Inactive)
REMARK    1  A    between atoms: C_5  and  N_6 
REMARK    2  A    between atoms: C_8  and  C_9 
REMARK    3  A    between atoms: C_16  and  C_17 
REMARK    4  A    between atoms: C_17  and  N_18 
REMARK    5  A    between atoms: C_22  and  N_23 
REMARK    6  A    between atoms: C_26  and  O_27 
ROOT
HETATM    1  N   UNL     1       6.555  25.425  54.671  1.00  0.00    -0.244 N 
HETATM    2  N   UNL     1       7.235  26.275  55.472  1.00  0.00    -0.167 NA
HETATM    3  C   UNL     1       6.480  27.367  55.596  1.00  0.00     0.097 A 
HETATM    4  C   UNL     1       5.344  27.301  54.743  1.00  0.00     0.016 A 
HETATM    5  C   UNL     1       5.395  26.022  54.216  1.00  0.00     0.130 A 
ENDROOT
BRANCH   4   6
HETATM    6  C   UNL     1       4.319  28.339  54.483  1.00  0.00     0.277 C 
BRANCH   6   7
HETATM    7  N   UNL     1       4.511  29.120  53.163  1.00  0.00    -0.067 N 
HETATM    8  H   UNL     1       4.944  30.009  53.466  1.00  0.00     0.280 HD
HETATM    9  C   UNL     1       5.474  28.437  52.232  1.00  0.00     0.237 C 
HETATM   10  C   UNL     1       5.596  29.189  50.924  1.00  0.00     0.061 C 
HETATM   11  C   UNL     1       4.268  29.437  50.215  1.00  0.00     0.191 C 
HETATM   12  C   UNL     1       3.253  30.059  51.178  1.00  0.00     0.061 C 
HETATM   13  C   UNL     1       3.163  29.422  52.562  1.00  0.00     0.237 C 
BRANCH  11  14
HETATM   14  N   UNL     1       3.736  28.247  49.416  1.00  0.00    -0.064 N 
HETATM   15  H   UNL     1       2.921  27.895  49.968  1.00  0.00     0.280 HD
HETATM   16  C   UNL     1       3.001  28.653  48.117  1.00  0.00     0.266 C 
HETATM   17  C   UNL     1       2.077  27.497  47.727  1.00  0.00     0.144 C 
HETATM   18  C   UNL     1       2.904  26.251  47.432  1.00  0.00     0.035 C 
HETATM   19  C   UNL     1       3.754  25.859  48.639  1.00  0.00     0.030 C 
HETATM   20  C   UNL     1       4.581  27.016  49.196  1.00  0.00     0.235 C 
BRANCH  17  21
HETATM   21  O   UNL     1       1.253  27.246  48.872  1.00  0.00    -0.394 OA
HETATM   22  H   UNL     1       1.357  28.010  49.479  1.00  0.00     0.210 HD
ENDBRANCH  17  21
ENDBRANCH  11  14
ENDBRANCH   6   7
ENDBRANCH   4   6
BRANCH   3  23
HETATM   23  C   UNL     1       6.883  28.451  56.486  1.00  0.00    -0.005 A 
HETATM   24  C   UNL     1       8.226  28.594  56.859  1.00  0.00     0.017 A 
HETATM   25  C   UNL     1       8.612  29.638  57.703  1.00  0.00     0.043 A 
HETATM   26  C   UNL     1       7.654  30.526  58.180  1.00  0.00     0.116 A 
HETATM   27  F   UNL     1       8.026  31.529  58.984  1.00  0.00    -0.206 F 
HETATM   28  C   UNL     1       6.314  30.384  57.839  1.00  0.00     0.043 A 
HETATM   29  C   UNL     1       5.924  29.341  56.996  1.00  0.00     0.017 A 
ENDBRANCH   3  23
BRANCH   1  30
HETATM   30  C   UNL     1       7.065  24.141  54.340  1.00  0.00     0.058 A 
HETATM   31  C   UNL     1       7.253  23.193  55.355  1.00  0.00     0.032 A 
HETATM   32  C   UNL     1       7.766  21.928  55.052  1.00  0.00     0.009 A 
HETATM   33  C   UNL     1       8.106  21.595  53.739  1.00  0.00    -0.062 A 
HETATM   34  C   UNL     1       8.642  20.233  53.401  1.00  0.00     0.048 C 
HETATM   35  C   UNL     1       7.908  22.539  52.724  1.00  0.00     0.009 A 
HETATM   36  C   UNL     1       7.391  23.805  53.019  1.00  0.00     0.032 A 
ENDBRANCH   1  30
TORSDOF 6
ENDMDL
MODEL 4
REMARK VINA RESULT:      -9.9      2.914      9.029
REMARK  6 active torsions:
REMARK  status: ('A' for Active; 'I' for Inactive)
REMARK    1  A    between atoms: C_5  and  N_6 
REMARK    2  A    between atoms: C_8  and  C_9 
REMARK    3  A    between atoms: C_16  and  C_17 
REMARK    4  A    between atoms: C_17  and  N_18 
REMARK    5  A    between atoms: C_22  and  N_23 
REMARK    6  A    between atoms: C_26  and  O_27 
ROOT
HETATM    1  N   UNL     1       4.232  27.196  50.489  1.00  0.00    -0.244 N 
HETATM    2  N   UNL     1       4.889  26.062  50.818  1.00  0.00    -0.167 NA
HETATM    3  C   UNL     1       5.643  26.354  51.879  1.00  0.00     0.097 A 
HETATM    4  C   UNL     1       5.597  27.745  52.170  1.00  0.00     0.016 A 
HETATM    5  C   UNL     1       4.640  28.238  51.300  1.00  0.00     0.130 A 
ENDROOT
BRANCH   4   6
HETATM    6  C   UNL     1       6.369  28.505  53.181  1.00  0.00     0.277 C 
BRANCH   6   7
HETATM    7  N   UNL     1       6.464  27.825  54.566  1.00  0.00    -0.067 N 
HETATM    8  H   UNL     1       6.316  26.823  54.357  1.00  0.00     0.280 HD
HETATM    9  C   UNL     1       7.829  27.968  55.178  1.00  0.00     0.237 C 
HETATM   10  C   UNL     1       7.877  27.348  56.558  1.00  0.00     0.061 C 
HETATM   11  C   UNL     1       6.815  27.872  57.519  1.00  0.00     0.191 C 
HETATM   12  C   UNL     1       5.427  27.806  56.875  1.00  0.00     0.061 C 
HETATM   13  C   UNL     1       5.332  28.307  55.436  1.00  0.00     0.237 C 
BRANCH  11  14
HETATM   14  N   UNL     1       7.147  29.214  58.173  1.00  0.00    -0.064 N 
HETATM   15  H   UNL     1       6.978  29.065  59.193  1.00  0.00     0.280 HD
HETATM   16  C   UNL     1       8.662  29.523  58.213  1.00  0.00     0.266 C 
HETATM   17  C   UNL     1       8.896  30.547  59.327  1.00  0.00     0.144 C 
HETATM   18  C   UNL     1       8.157  31.841  59.003  1.00  0.00     0.035 C 
HETATM   19  C   UNL     1       6.661  31.589  58.826  1.00  0.00     0.030 C 
HETATM   20  C   UNL     1       6.351  30.455  57.852  1.00  0.00     0.235 C 
BRANCH  17  21
HETATM   21  O   UNL     1       8.332  29.976  60.513  1.00  0.00    -0.394 OA
HETATM   22  H   UNL     1       8.716  30.454  61.278  1.00  0.00     0.210 HD
ENDBRANCH  17  21
ENDBRANCH  11  14
ENDBRANCH   6   7
ENDBRANCH   4   6
BRANCH   3  23
HETATM   23  C   UNL     1       6.410  25.312  52.552  1.00  0.00    -0.005 A 
HETATM   24  C   UNL     1       7.600  24.836  51.986  1.00  0.00     0.017 A 
HETATM   25  C   UNL     1       8.339  23.845  52.636  1.00  0.00     0.043 A 
HETATM   26  C   UNL     1       7.882  23.327  53.842  1.00  0.00     0.116 A 
HETATM   27  F   UNL     1       8.594  22.382  54.468  1.00  0.00    -0.206 F 
HETATM   28  C   UNL     1       6.692  23.771  54.406  1.00  0.00     0.043 A 
HETATM   29  C   UNL     1       5.949  24.760  53.759  1.00  0.00     0.017 A 
ENDBRANCH   3  23
BRANCH   1  30
HETATM   30  C   UNL     1       3.317  27.242  49.403  1.00  0.00     0.058 A 
HETATM   31  C   UNL     1       2.335  28.242  49.372  1.00  0.00     0.032 A 
HETATM   32  C   UNL     1       1.416  28.297  48.320  1.00  0.00     0.009 A 
HETATM   33  C   UNL     1       1.457  27.352  47.291  1.00  0.00    -0.062 A 
HETATM   34  C   UNL     1       0.485  27.412  46.149  1.00  0.00     0.048 C 
HETATM   35  C   UNL     1       2.444  26.360  47.317  1.00  0.00     0.009 A 
HETATM   36  C   UNL     1       3.370  26.302  48.365  1.00  0.00     0.032 A 
ENDBRANCH   1  30
TORSDOF 6
ENDMDL
MODEL 5
REMARK VINA RESULT:      -9.4      2.561      7.719
REMARK  6 active torsions:
REMARK  status: ('A' for Active; 'I' for Inactive)
REMARK    1  A    between atoms: C_5  and  N_6 
REMARK    2  A    between atoms: C_8  and  C_9 
REMARK    3  A    between atoms: C_16  and  C_17 
REMARK    4  A    between atoms: C_17  and  N_18 
REMARK    5  A    between atoms: C_22  and  N_23 
REMARK    6  A    between atoms: C_26  and  O_27 
ROOT
HETATM    1  N   UNL     1       5.319  26.772  51.333  1.00  0.00    -0.244 N 
HETATM    2  N   UNL     1       5.719  25.521  51.649  1.00  0.00    -0.167 NA
HETATM    3  C   UNL     1       6.533  25.636  52.699  1.00  0.00     0.097 A 
HETATM    4  C   UNL     1       6.795  27.002  52.994  1.00  0.00     0.016 A 
HETATM    5  C   UNL     1       5.955  27.696  52.140  1.00  0.00     0.130 A 
ENDROOT
BRANCH   4   6
HETATM    6  C   UNL     1       7.727  27.571  53.995  1.00  0.00     0.277 C 
BRANCH   6   7
HETATM    7  N   UNL     1       7.102  27.835  55.384  1.00  0.00    -0.067 N 
HETATM    8  H   UNL     1       7.489  27.078  55.974  1.00  0.00     0.280 HD
HETATM    9  C   UNL     1       7.550  29.144  55.970  1.00  0.00     0.237 C 
HETATM   10  C   UNL     1       6.876  29.406  57.300  1.00  0.00     0.061 C 
HETATM   11  C   UNL     1       5.352  29.345  57.256  1.00  0.00     0.191 C 
HETATM   12  C   UNL     1       4.885  28.050  56.586  1.00  0.00     0.061 C 
HETATM   13  C   UNL     1       5.608  27.662  55.299  1.00  0.00     0.237 C 
BRANCH  11  14
HETATM   14  N   UNL     1       4.675  30.611  56.729  1.00  0.00    -0.064 N 
HETATM   15  H   UNL     1       4.828  30.586  55.696  1.00  0.00     0.280 HD
HETATM   16  C   UNL     1       3.130  30.543  56.756  1.00  0.00     0.266 C 
HETATM   17  C   UNL     1       2.604  31.560  55.740  1.00  0.00     0.144 C 
HETATM   18  C   UNL     1       3.024  32.967  56.154  1.00  0.00     0.035 C 
HETATM   19  C   UNL     1       4.542  33.075  56.267  1.00  0.00     0.030 C 
HETATM   20  C   UNL     1       5.163  31.981  57.132  1.00  0.00     0.235 C 
BRANCH  17  21
HETATM   21  O   UNL     1       3.234  31.237  54.495  1.00  0.00    -0.394 OA
HETATM   22  H   UNL     1       3.942  30.586  54.686  1.00  0.00     0.210 HD
ENDBRANCH  17  21
ENDBRANCH  11  14
ENDBRANCH   6   7
ENDBRANCH   4   6
BRANCH   3  23
HETATM   23  C   UNL     1       7.067  24.449  53.359  1.00  0.00    -0.005 A 
HETATM   24  C   UNL     1       6.770  24.198  54.705  1.00  0.00     0.017 A 
HETATM   25  C   UNL     1       7.273  23.057  55.334  1.00  0.00     0.043 A 
HETATM   26  C   UNL     1       8.078  22.177  54.618  1.00  0.00     0.116 A 
HETATM   27  F   UNL     1       8.555  21.081  55.219  1.00  0.00    -0.206 F 
HETATM   28  C   UNL     1       8.402  22.423  53.289  1.00  0.00     0.043 A 
HETATM   29  C   UNL     1       7.902  23.564  52.658  1.00  0.00     0.017 A 
ENDBRANCH   3  23
BRANCH   1  30
HETATM   30  C   UNL     1       4.419  27.021  50.262  1.00  0.00     0.058 A 
HETATM   31  C   UNL     1       4.231  26.039  49.279  1.00  0.00     0.032 A 
HETATM   32  C   UNL     1       3.361  26.268  48.209  1.00  0.00     0.009 A 
HETATM   33  C   UNL     1       2.675  27.481  48.100  1.00  0.00    -0.062 A 
HETATM   34  C   UNL     1       1.725  27.731  46.964  1.00  0.00     0.048 C 
HETATM   35  C   UNL     1       2.855  28.457  49.086  1.00  0.00     0.009 A 
HETATM   36  C   UNL     1       3.721  28.232  50.163  1.00  0.00     0.032 A 
ENDBRANCH   1  30
TORSDOF 6
ENDMDL
MODEL 6
REMARK VINA RESULT:      -9.3      4.322      7.138
REMARK  6 active torsions:
REMARK  status: ('A' for Active; 'I' for Inactive)
REMARK    1  A    between atoms: C_5  and  N_6 
REMARK    2  A    between atoms: C_8  and  C_9 
REMARK    3  A    between atoms: C_16  and  C_17 
REMARK    4  A    between atoms: C_17  and  N_18 
REMARK    5  A    between atoms: C_22  and  N_23 
REMARK    6  A    between atoms: C_26  and  O_27 
ROOT
HETATM    1  N   UNL     1       6.639  31.835  59.977  1.00  0.00    -0.244 N 
HETATM    2  N   UNL     1       5.692  32.307  59.138  1.00  0.00    -0.167 NA
HETATM    3  C   UNL     1       5.755  31.561  58.034  1.00  0.00     0.097 A 
HETATM    4  C   UNL     1       6.863  30.671  58.084  1.00  0.00     0.016 A 
HETATM    5  C   UNL     1       7.365  30.833  59.363  1.00  0.00     0.130 A 
ENDROOT
BRANCH   4   6
HETATM    6  C   UNL     1       7.365  29.758  57.030  1.00  0.00     0.277 C 
BRANCH   6   7
HETATM    7  N   UNL     1       7.067  28.261  57.278  1.00  0.00    -0.067 N 
HETATM    8  H   UNL     1       6.818  28.224  58.281  1.00  0.00     0.280 HD
HETATM    9  C   UNL     1       5.879  27.780  56.494  1.00  0.00     0.237 C 
HETATM   10  C   UNL     1       5.647  26.299  56.706  1.00  0.00     0.061 C 
HETATM   11  C   UNL     1       6.861  25.424  56.408  1.00  0.00     0.191 C 
HETATM   12  C   UNL     1       8.098  25.954  57.139  1.00  0.00     0.061 C 
HETATM   13  C   UNL     1       8.326  27.462  57.065  1.00  0.00     0.237 C 
BRANCH  11  14
HETATM   14  N   UNL     1       7.082  25.119  54.926  1.00  0.00    -0.064 N 
HETATM   15  H   UNL     1       6.165  24.753  54.587  1.00  0.00     0.280 HD
HETATM   16  C   UNL     1       7.189  26.385  54.044  1.00  0.00     0.266 C 
HETATM   17  C   UNL     1       6.854  25.976  52.607  1.00  0.00     0.144 C 
HETATM   18  C   UNL     1       7.876  24.962  52.105  1.00  0.00     0.035 C 
HETATM   19  C   UNL     1       7.914  23.730  53.007  1.00  0.00     0.030 C 
HETATM   20  C   UNL     1       8.074  24.069  54.487  1.00  0.00     0.235 C 
BRANCH  17  21
HETATM   21  O   UNL     1       5.568  25.347  52.664  1.00  0.00    -0.394 OA
HETATM   22  H   UNL     1       5.707  24.427  52.977  1.00  0.00     0.210 HD
ENDBRANCH  17  21
ENDBRANCH  11  14
ENDBRANCH   6   7
ENDBRANCH   4   6
BRANCH   3  23
HETATM   23  C   UNL     1       4.790  31.747  56.956  1.00  0.00    -0.005 A 
HETATM   24  C   UNL     1       3.702  30.872  56.826  1.00  0.00     0.017 A 
HETATM   25  C   UNL     1       2.773  31.055  55.799  1.00  0.00     0.043 A 
HETATM   26  C   UNL     1       2.940  32.104  54.902  1.00  0.00     0.116 A 
HETATM   27  F   UNL     1       2.046  32.283  53.922  1.00  0.00    -0.206 F 
HETATM   28  C   UNL     1       4.026  32.966  55.002  1.00  0.00     0.043 A 
HETATM   29  C   UNL     1       4.957  32.785  56.026  1.00  0.00     0.017 A 
ENDBRANCH   3  23
BRANCH   1  30
HETATM   30  C   UNL     1       6.838  32.392  61.269  1.00  0.00     0.058 A 
HETATM   31  C   UNL     1       7.807  31.837  62.116  1.00  0.00     0.032 A 
HETATM   32  C   UNL     1       8.011  32.361  63.396  1.00  0.00     0.009 A 
HETATM   33  C   UNL     1       7.246  33.438  63.851  1.00  0.00    -0.062 A 
HETATM   34  C   UNL     1       7.467  34.018  65.219  1.00  0.00     0.048 C 
HETATM   35  C   UNL     1       6.285  33.998  63.002  1.00  0.00     0.009 A 
HETATM   36  C   UNL     1       6.080  33.481  61.718  1.00  0.00     0.032 A 
ENDBRANCH   1  30
TORSDOF 6
ENDMDL
MODEL 7
REMARK VINA RESULT:      -9.3      3.462      7.979
REMARK  6 active torsions:
REMARK  status: ('A' for Active; 'I' for Inactive)
REMARK    1  A    between atoms: C_5  and  N_6 
REMARK    2  A    between atoms: C_8  and  C_9 
REMARK    3  A    between atoms: C_16  and  C_17 
REMARK    4  A    between atoms: C_17  and  N_18 
REMARK    5  A    between atoms: C_22  and  N_23 
REMARK    6  A    between atoms: C_26  and  O_27 
ROOT
HETATM    1  N   UNL     1       6.212  24.971  53.484  1.00  0.00    -0.244 N 
HETATM    2  N   UNL     1       6.186  25.281  52.170  1.00  0.00    -0.167 NA
HETATM    3  C   UNL     1       5.441  26.380  52.052  1.00  0.00     0.097 A 
HETATM    4  C   UNL     1       4.839  26.723  53.294  1.00  0.00     0.016 A 
HETATM    5  C   UNL     1       5.404  25.837  54.196  1.00  0.00     0.130 A 
ENDROOT
BRANCH   4   6
HETATM    6  C   UNL     1       3.854  27.792  53.583  1.00  0.00     0.277 C 
BRANCH   6   7
HETATM    7  N   UNL     1       4.051  28.502  54.941  1.00  0.00    -0.067 N 
HETATM    8  H   UNL     1       3.087  28.619  55.298  1.00  0.00     0.280 HD
HETATM    9  C   UNL     1       4.802  27.650  55.926  1.00  0.00     0.237 C 
HETATM   10  C   UNL     1       5.035  28.392  57.225  1.00  0.00     0.061 C 
HETATM   11  C   UNL     1       5.729  29.741  57.062  1.00  0.00     0.191 C 
HETATM   12  C   UNL     1       5.019  30.587  56.002  1.00  0.00     0.061 C 
HETATM   13  C   UNL     1       4.646  29.866  54.709  1.00  0.00     0.237 C 
BRANCH  11  14
HETATM   14  N   UNL     1       7.248  29.665  56.900  1.00  0.00    -0.064 N 
HETATM   15  H   UNL     1       7.564  30.660  56.869  1.00  0.00     0.280 HD
HETATM   16  C   UNL     1       7.984  29.208  58.180  1.00  0.00     0.266 C 
HETATM   17  C   UNL     1       9.433  29.693  58.079  1.00  0.00     0.144 C 
HETATM   18  C   UNL     1      10.114  29.039  56.881  1.00  0.00     0.035 C 
HETATM   19  C   UNL     1       9.365  29.348  55.588  1.00  0.00     0.030 C 
HETATM   20  C   UNL     1       7.870  29.050  55.670  1.00  0.00     0.235 C 
BRANCH  17  21
HETATM   21  O   UNL     1       9.362  31.106  57.856  1.00  0.00    -0.394 OA
HETATM   22  H   UNL     1      10.201  31.496  58.183  1.00  0.00     0.210 HD
ENDBRANCH  17  21
ENDBRANCH  11  14
ENDBRANCH   6   7
ENDBRANCH   4   6
BRANCH   3  23
HETATM   23  C   UNL     1       5.292  27.042  50.761  1.00  0.00    -0.005 A 
HETATM   24  C   UNL     1       4.783  26.336  49.662  1.00  0.00     0.017 A 
HETATM   25  C   UNL     1       4.632  26.972  48.428  1.00  0.00     0.043 A 
HETATM   26  C   UNL     1       4.999  28.307  48.294  1.00  0.00     0.116 A 
HETATM   27  F   UNL     1       4.848  28.918  47.113  1.00  0.00    -0.206 F 
HETATM   28  C   UNL     1       5.527  29.015  49.367  1.00  0.00     0.043 A 
HETATM   29  C   UNL     1       5.681  28.382  50.602  1.00  0.00     0.017 A 
ENDBRANCH   3  23
BRANCH   1  30
HETATM   30  C   UNL     1       6.940  23.854  53.975  1.00  0.00     0.058 A 
HETATM   31  C   UNL     1       7.533  22.966  53.067  1.00  0.00     0.032 A 
HETATM   32  C   UNL     1       8.242  21.853  53.528  1.00  0.00     0.009 A 
HETATM   33  C   UNL     1       8.363  21.606  54.898  1.00  0.00    -0.062 A 
HETATM   34  C   UNL     1       9.136  20.422  55.404  1.00  0.00     0.048 C 
HETATM   35  C   UNL     1       7.779  22.498  55.805  1.00  0.00     0.009 A 
HETATM   36  C   UNL     1       7.072  23.617  55.350  1.00  0.00     0.032 A 
ENDBRANCH   1  30
TORSDOF 6
ENDMDL
MODEL 8
REMARK VINA RESULT:      -9.3      4.977      8.331
REMARK  6 active torsions:
REMARK  status: ('A' for Active; 'I' for Inactive)
REMARK    1  A    between atoms: C_5  and  N_6 
REMARK    2  A    between atoms: C_8  and  C_9 
REMARK    3  A    between atoms: C_16  and  C_17 
REMARK    4  A    between atoms: C_17  and  N_18 
REMARK    5  A    between atoms: C_22  and  N_23 
REMARK    6  A    between atoms: C_26  and  O_27 
ROOT
HETATM    1  N   UNL     1       7.627  25.819  55.952  1.00  0.00    -0.244 N 
HETATM    2  N   UNL     1       8.437  26.593  56.707  1.00  0.00    -0.167 NA
HETATM    3  C   UNL     1       8.048  27.854  56.512  1.00  0.00     0.097 A 
HETATM    4  C   UNL     1       7.057  27.930  55.495  1.00  0.00     0.016 A 
HETATM    5  C   UNL     1       6.772  26.607  55.206  1.00  0.00     0.130 A 
ENDROOT
BRANCH   4   6
HETATM    6  C   UNL     1       6.442  29.135  54.890  1.00  0.00     0.277 C 
BRANCH   6   7
HETATM    7  N   UNL     1       5.037  29.485  55.431  1.00  0.00    -0.067 N 
HETATM    8  H   UNL     1       4.485  28.629  55.250  1.00  0.00     0.280 HD
HETATM    9  C   UNL     1       5.042  29.719  56.916  1.00  0.00     0.237 C 
HETATM   10  C   UNL     1       3.668  30.119  57.410  1.00  0.00     0.061 C 
HETATM   11  C   UNL     1       3.069  31.324  56.691  1.00  0.00     0.191 C 
HETATM   12  C   UNL     1       3.132  31.131  55.174  1.00  0.00     0.061 C 
HETATM   13  C   UNL     1       4.457  30.612  54.619  1.00  0.00     0.237 C 
BRANCH  11  14
HETATM   14  N   UNL     1       3.577  32.681  57.180  1.00  0.00    -0.064 N 
HETATM   15  H   UNL     1       4.584  32.706  56.902  1.00  0.00     0.280 HD
HETATM   16  C   UNL     1       3.057  33.873  56.344  1.00  0.00     0.266 C 
HETATM   17  C   UNL     1       4.024  35.042  56.553  1.00  0.00     0.144 C 
HETATM   18  C   UNL     1       4.023  35.457  58.021  1.00  0.00     0.035 C 
HETATM   19  C   UNL     1       4.411  34.286  58.921  1.00  0.00     0.030 C 
HETATM   20  C   UNL     1       3.601  33.021  58.650  1.00  0.00     0.235 C 
BRANCH  17  21
HETATM   21  O   UNL     1       5.324  34.546  56.213  1.00  0.00    -0.394 OA
HETATM   22  H   UNL     1       5.827  34.447  57.050  1.00  0.00     0.210 HD
ENDBRANCH  17  21
ENDBRANCH  11  14
ENDBRANCH   6   7
ENDBRANCH   4   6
BRANCH   3  23
HETATM   23  C   UNL     1       8.658  28.944  57.266  1.00  0.00    -0.005 A 
HETATM   24  C   UNL     1       8.063  29.402  58.449  1.00  0.00     0.017 A 
HETATM   25  C   UNL     1       8.652  30.440  59.175  1.00  0.00     0.043 A 
HETATM   26  C   UNL     1       9.826  31.022  58.711  1.00  0.00     0.116 A 
HETATM   27  F   UNL     1      10.394  32.011  59.410  1.00  0.00    -0.206 F 
HETATM   28  C   UNL     1      10.417  30.595  57.527  1.00  0.00     0.043 A 
HETATM   29  C   UNL     1       9.830  29.560  56.798  1.00  0.00     0.017 A 
ENDBRANCH   3  23
BRANCH   1  30
HETATM   30  C   UNL     1       7.750  24.404  55.934  1.00  0.00     0.058 A 
HETATM   31  C   UNL     1       8.245  23.742  57.066  1.00  0.00     0.032 A 
HETATM   32  C   UNL     1       8.386  22.351  57.065  1.00  0.00     0.009 A 
HETATM   33  C   UNL     1       8.044  21.603  55.935  1.00  0.00    -0.062 A 
HETATM   34  C   UNL     1       8.177  20.107  55.930  1.00  0.00     0.048 C 
HETATM   35  C   UNL     1       7.540  22.264  54.809  1.00  0.00     0.009 A 
HETATM   36  C   UNL     1       7.392  23.655  54.805  1.00  0.00     0.032 A 
ENDBRANCH   1  30
TORSDOF 6
ENDMDL
MODEL 9
REMARK VINA RESULT:      -9.3      5.156      8.631
REMARK  6 active torsions:
REMARK  status: ('A' for Active; 'I' for Inactive)
REMARK    1  A    between atoms: C_5  and  N_6 
REMARK    2  A    between atoms: C_8  and  C_9 
REMARK    3  A    between atoms: C_16  and  C_17 
REMARK    4  A    between atoms: C_17  and  N_18 
REMARK    5  A    between atoms: C_22  and  N_23 
REMARK    6  A    between atoms: C_26  and  O_27 
ROOT
HETATM    1  N   UNL     1       7.032  26.180  55.911  1.00  0.00    -0.244 N 
HETATM    2  N   UNL     1       8.036  27.026  56.229  1.00  0.00    -0.167 NA
HETATM    3  C   UNL     1       7.484  28.035  56.904  1.00  0.00     0.097 A 
HETATM    4  C   UNL     1       6.065  27.929  56.909  1.00  0.00     0.016 A 
HETATM    5  C   UNL     1       5.819  26.702  56.318  1.00  0.00     0.130 A 
ENDROOT
BRANCH   4   6
HETATM    6  C   UNL     1       5.067  28.887  57.438  1.00  0.00     0.277 C 
BRANCH   6   7
HETATM    7  N   UNL     1       4.579  29.942  56.418  1.00  0.00    -0.067 N 
HETATM    8  H   UNL     1       4.703  29.473  55.504  1.00  0.00     0.280 HD
HETATM    9  C   UNL     1       3.117  30.253  56.578  1.00  0.00     0.237 C 
HETATM   10  C   UNL     1       2.680  31.331  55.609  1.00  0.00     0.061 C 
HETATM   11  C   UNL     1       3.501  32.615  55.684  1.00  0.00     0.191 C 
HETATM   12  C   UNL     1       4.997  32.301  55.604  1.00  0.00     0.061 C 
HETATM   13  C   UNL     1       5.487  31.142  56.469  1.00  0.00     0.237 C 
BRANCH  11  14
HETATM   14  N   UNL     1       3.111  33.559  56.822  1.00  0.00    -0.064 N 
HETATM   15  H   UNL     1       2.479  32.996  57.434  1.00  0.00     0.280 HD
HETATM   16  C   UNL     1       4.259  33.825  57.825  1.00  0.00     0.266 C 
HETATM   17  C   UNL     1       3.626  34.287  59.140  1.00  0.00     0.144 C 
HETATM   18  C   UNL     1       2.876  35.597  58.921  1.00  0.00     0.035 C 
HETATM   19  C   UNL     1       1.801  35.440  57.847  1.00  0.00     0.030 C 
HETATM   20  C   UNL     1       2.325  34.819  56.554  1.00  0.00     0.235 C 
BRANCH  17  21
HETATM   21  O   UNL     1       2.684  33.271  59.505  1.00  0.00    -0.394 OA
HETATM   22  H   UNL     1       2.979  32.436  59.082  1.00  0.00     0.210 HD
ENDBRANCH  17  21
ENDBRANCH  11  14
ENDBRANCH   6   7
ENDBRANCH   4   6
BRANCH   3  23
HETATM   23  C   UNL     1       8.315  29.083  57.485  1.00  0.00    -0.005 A 
HETATM   24  C   UNL     1       9.452  29.539  56.804  1.00  0.00     0.017 A 
HETATM   25  C   UNL     1      10.243  30.549  57.356  1.00  0.00     0.043 A 
HETATM   26  C   UNL     1       9.902  31.091  58.591  1.00  0.00     0.116 A 
HETATM   27  F   UNL     1      10.657  32.062  59.116  1.00  0.00    -0.206 F 
HETATM   28  C   UNL     1       8.791  30.633  59.291  1.00  0.00     0.043 A 
HETATM   29  C   UNL     1       7.999  29.623  58.743  1.00  0.00     0.017 A 
ENDBRANCH   3  23
BRANCH   1  30
HETATM   30  C   UNL     1       7.268  24.974  55.198  1.00  0.00     0.058 A 
HETATM   31  C   UNL     1       7.293  23.757  55.893  1.00  0.00     0.032 A 
HETATM   32  C   UNL     1       7.538  22.560  55.213  1.00  0.00     0.009 A 
HETATM   33  C   UNL     1       7.768  22.561  53.835  1.00  0.00    -0.062 A 
HETATM   34  C   UNL     1       8.015  21.279  53.093  1.00  0.00     0.048 C 
HETATM   35  C   UNL     1       7.733  23.775  53.140  1.00  0.00     0.009 A 
HETATM   36  C   UNL     1       7.484  24.976  53.814  1.00  0.00     0.032 A 
ENDBRANCH   1  30
TORSDOF 6
ENDMDL
MODEL 10
REMARK VINA RESULT:      -9.2      4.078      6.896
REMARK  6 active torsions:
REMARK  status: ('A' for Active; 'I' for Inactive)
REMARK    1  A    between atoms: C_5  and  N_6 
REMARK    2  A    between atoms: C_8  and  C_9 
REMARK    3  A    between atoms: C_16  and  C_17 
REMARK    4  A    between atoms: C_17  and  N_18 
REMARK    5  A    between atoms: C_22  and  N_23 
REMARK    6  A    between atoms: C_26  and  O_27 
ROOT
HETATM    1  N   UNL     1       6.643  32.565  61.340  1.00  0.00    -0.244 N 
HETATM    2  N   UNL     1       7.705  31.836  60.933  1.00  0.00    -0.167 NA
HETATM    3  C   UNL     1       7.580  31.686  59.613  1.00  0.00     0.097 A 
HETATM    4  C   UNL     1       6.335  32.200  59.157  1.00  0.00     0.016 A 
HETATM    5  C   UNL     1       5.793  32.806  60.278  1.00  0.00     0.130 A 
ENDROOT
BRANCH   4   6
HETATM    6  C   UNL     1       5.748  32.134  57.799  1.00  0.00     0.277 C 
BRANCH   6   7
HETATM    7  N   UNL     1       4.877  30.885  57.532  1.00  0.00    -0.067 N 
HETATM    8  H   UNL     1       4.366  30.749  58.421  1.00  0.00     0.280 HD
HETATM    9  C   UNL     1       3.858  31.122  56.452  1.00  0.00     0.237 C 
HETATM   10  C   UNL     1       3.062  29.867  56.168  1.00  0.00     0.061 C 
HETATM   11  C   UNL     1       3.912  28.646  55.828  1.00  0.00     0.191 C 
HETATM   12  C   UNL     1       5.005  28.443  56.881  1.00  0.00     0.061 C 
HETATM   13  C   UNL     1       5.770  29.695  57.303  1.00  0.00     0.237 C 
BRANCH  11  14
HETATM   14  N   UNL     1       4.406  28.591  54.382  1.00  0.00    -0.064 N 
HETATM   15  H   UNL     1       5.191  29.278  54.341  1.00  0.00     0.280 HD
HETATM   16  C   UNL     1       5.185  27.299  54.044  1.00  0.00     0.266 C 
HETATM   17  C   UNL     1       6.065  27.594  52.826  1.00  0.00     0.144 C 
HETATM   18  C   UNL     1       5.188  27.945  51.629  1.00  0.00     0.035 C 
HETATM   19  C   UNL     1       4.295  29.145  51.936  1.00  0.00     0.030 C 
HETATM   20  C   UNL     1       3.511  28.997  53.237  1.00  0.00     0.235 C 
BRANCH  17  21
HETATM   21  O   UNL     1       6.852  28.739  53.175  1.00  0.00    -0.394 OA
HETATM   22  H   UNL     1       6.997  28.709  54.145  1.00  0.00     0.210 HD
ENDBRANCH  17  21
ENDBRANCH  11  14
ENDBRANCH   6   7
ENDBRANCH   4   6
BRANCH   3  23
HETATM   23  C   UNL     1       8.625  31.026  58.839  1.00  0.00    -0.005 A 
HETATM   24  C   UNL     1       8.430  29.724  58.358  1.00  0.00     0.017 A 
HETATM   25  C   UNL     1       9.427  29.096  57.609  1.00  0.00     0.043 A 
HETATM   26  C   UNL     1      10.618  29.765  57.353  1.00  0.00     0.116 A 
HETATM   27  F   UNL     1      11.571  29.165  56.630  1.00  0.00    -0.206 F 
HETATM   28  C   UNL     1      10.838  31.048  57.843  1.00  0.00     0.043 A 
HETATM   29  C   UNL     1       9.845  31.678  58.594  1.00  0.00     0.017 A 
ENDBRANCH   3  23
BRANCH   1  30
HETATM   30  C   UNL     1       6.465  32.932  62.701  1.00  0.00     0.058 A 
HETATM   31  C   UNL     1       5.174  33.187  63.182  1.00  0.00     0.032 A 
HETATM   32  C   UNL     1       4.978  33.562  64.515  1.00  0.00     0.009 A 
HETATM   33  C   UNL     1       6.066  33.696  65.381  1.00  0.00    -0.062 A 
HETATM   34  C   UNL     1       5.865  34.084  66.819  1.00  0.00     0.048 C 
HETATM   35  C   UNL     1       7.355  33.432  64.903  1.00  0.00     0.009 A 
HETATM   36  C   UNL     1       7.557  33.051  63.572  1.00  0.00     0.032 A 
ENDBRANCH   1  30
TORSDOF 6
ENDMDL
