MODEL 1
REMARK VINA RESULT:     -10.0      0.000      0.000
REMARK  7 active torsions:
REMARK  status: ('A' for Active; 'I' for Inactive)
REMARK    1  A    between atoms: C_2  and  C_3 
REMARK    2  A    between atoms: C_8  and  N_9 
REMARK    3  A    between atoms: N_9  and  C_10 
REMARK    4  A    between atoms: C_10  and  C_11 
REMARK       I    between atoms: C_11  and  N_12 
REMARK    5  A    between atoms: N_12  and  C_13 
REMARK    6  A    between atoms: C_24  and  N_25 
REMARK    7  A    between atoms: N_25  and  C_26 
ROOT
HETATM    1  N   UNL     1       5.069  25.407  54.676  1.00  0.00    -0.282 NA
HETATM    2  H   UNL     1       4.252  24.824  54.482  1.00  0.00     0.128 HD
ENDROOT
BRANCH   1   3
HETATM    3  C   UNL     1       6.146  24.838  53.939  1.00  0.00     0.036 A 
HETATM    4  C   UNL     1       6.771  23.633  54.289  1.00  0.00     0.042 A 
HETATM    5  C   UNL     1       7.813  23.102  53.513  1.00  0.00     0.049 A 
HETATM    6  C   UNL     1       8.220  23.792  52.368  1.00  0.00     0.018 A 
HETATM    7  C   UNL     1       7.604  24.993  52.005  1.00  0.00     0.032 A 
HETATM    8  C   UNL     1       6.561  25.530  52.762  1.00  0.00     0.049 A 
BRANCH   5   9
HETATM    9  C   UNL     1       8.464  21.803  53.919  1.00  0.00     0.417 C 
HETATM   10  F   UNL     1       9.694  21.962  54.482  1.00  0.00    -0.166 F 
HETATM   11  F   UNL     1       7.725  21.107  54.825  1.00  0.00    -0.166 F 
HETATM   12  F   UNL     1       8.644  20.965  52.861  1.00  0.00    -0.166 F 
ENDBRANCH   5   9
BRANCH   8  13
HETATM   13  N   UNL     1       5.967  26.765  52.487  1.00  0.00    -0.384 N 
HETATM   14  H   UNL     1       5.371  27.040  53.266  1.00  0.00     0.160 HD
BRANCH  13  15
HETATM   15  C   UNL     1       5.459  27.213  51.188  1.00  0.00     0.081 C 
HETATM   16  C   UNL     1       4.546  28.441  51.268  1.00  0.00     0.025 C 
HETATM   17  C   UNL     1       4.096  28.888  49.877  1.00  0.00     0.002 C 
HETATM   18  C   UNL     1       3.457  27.740  49.098  1.00  0.00     0.000 C 
HETATM   19  C   UNL     1       4.390  26.535  49.002  1.00  0.00     0.002 C 
HETATM   20  C   UNL     1       4.850  26.062  50.380  1.00  0.00     0.025 C 
ENDBRANCH  13  15
ENDBRANCH   8  13
ENDBRANCH   1   3
BRANCH   1  21
HETATM   21  C   UNL     1       5.201  25.598  56.139  1.00  0.00     0.195 C 
BRANCH  21  22
HETATM   22  C   UNL     1       5.674  27.010  56.528  1.00  0.00     0.235 C 
HETATM   23  N   UNL     1       7.047  27.098  56.659  1.00  0.00    -0.326 N 
HETATM   24  H   UNL     1       7.527  26.210  56.520  1.00  0.00     0.169 HD
HETATM   25  O   UNL     1       4.865  27.926  56.655  1.00  0.00    -0.272 OA
BRANCH  23  26
HETATM   26  C   UNL     1       7.818  28.196  57.076  1.00  0.00     0.037 A 
HETATM   27  C   UNL     1       7.588  28.889  58.271  1.00  0.00     0.061 A 
HETATM   28  C   UNL     1       8.444  29.925  58.566  1.00  0.00     0.065 A 
HETATM   29  C   UNL     1       9.491  30.294  57.727  1.00  0.00     0.063 A 
HETATM   30  N   UNL     1       8.471  30.765  59.676  1.00  0.00    -0.306 N 
HETATM   31  N   UNL     1      10.160  31.361  58.315  1.00  0.00    -0.307 N 
HETATM   32  C   UNL     1       9.740  29.644  56.545  1.00  0.00     0.034 A 
HETATM   33  C   UNL     1       9.537  31.664  59.535  1.00  0.00     0.325 A 
HETATM   34  H   UNL     1      10.964  31.850  57.962  1.00  0.00     0.170 HD
HETATM   35  O   UNL     1       9.864  32.537  60.319  1.00  0.00    -0.247 OA
HETATM   36  C   UNL     1       8.889  28.578  56.225  1.00  0.00     0.032 A 
HETATM   37  H   UNL     1       7.849  30.745  60.467  1.00  0.00     0.170 HD
ENDBRANCH  23  26
ENDBRANCH  21  22
ENDBRANCH   1  21
TORSDOF 7
ENDMDL
MODEL 2
REMARK VINA RESULT:      -9.9      3.164      8.498
REMARK  7 active torsions:
REMARK  status: ('A' for Active; 'I' for Inactive)
REMARK    1  A    between atoms: C_2  and  C_3 
REMARK    2  A    between atoms: C_8  and  N_9 
REMARK    3  A    between atoms: N_9  and  C_10 
REMARK    4  A    between atoms: C_10  and  C_11 
REMARK       I    between atoms: C_11  and  N_12 
REMARK    5  A    between atoms: N_12  and  C_13 
REMARK    6  A    between atoms: C_24  and  N_25 
REMARK    7  A    between atoms: N_25  and  C_26 
ROOT
HETATM    1  N   UNL     1       7.372  26.045  53.634  1.00  0.00    -0.282 NA
HETATM    2  H   UNL     1       8.122  26.739  53.677  1.00  0.00     0.128 HD
ENDROOT
BRANCH   1   3
HETATM    3  C   UNL     1       7.605  25.141  54.708  1.00  0.00     0.036 A 
HETATM    4  C   UNL     1       7.730  23.755  54.539  1.00  0.00     0.042 A 
HETATM    5  C   UNL     1       7.985  22.910  55.631  1.00  0.00     0.049 A 
HETATM    6  C   UNL     1       8.123  23.473  56.903  1.00  0.00     0.018 A 
HETATM    7  C   UNL     1       8.003  24.853  57.085  1.00  0.00     0.032 A 
HETATM    8  C   UNL     1       7.757  25.708  56.009  1.00  0.00     0.049 A 
BRANCH   5   9
HETATM    9  C   UNL     1       8.113  21.423  55.414  1.00  0.00     0.417 C 
HETATM   10  F   UNL     1       7.418  20.678  56.318  1.00  0.00    -0.166 F 
HETATM   11  F   UNL     1       7.670  21.032  54.187  1.00  0.00    -0.166 F 
HETATM   12  F   UNL     1       9.405  20.999  55.496  1.00  0.00    -0.166 F 
ENDBRANCH   5   9
BRANCH   8  13
HETATM   13  N   UNL     1       7.552  27.084  56.150  1.00  0.00    -0.384 N 
HETATM   14  H   UNL     1       7.353  27.495  55.239  1.00  0.00     0.160 HD
BRANCH  13  15
HETATM   15  C   UNL     1       8.286  27.984  57.042  1.00  0.00     0.081 C 
HETATM   16  C   UNL     1       7.386  28.855  57.924  1.00  0.00     0.025 C 
HETATM   17  C   UNL     1       8.213  29.729  58.867  1.00  0.00     0.002 C 
HETATM   18  C   UNL     1       9.250  30.552  58.105  1.00  0.00     0.000 C 
HETATM   19  C   UNL     1      10.158  29.667  57.254  1.00  0.00     0.002 C 
HETATM   20  C   UNL     1       9.356  28.787  56.296  1.00  0.00     0.025 C 
ENDBRANCH  13  15
ENDBRANCH   8  13
ENDBRANCH   1   3
BRANCH   1  21
HETATM   21  C   UNL     1       7.261  25.527  52.250  1.00  0.00     0.195 C 
BRANCH  21  22
HETATM   22  C   UNL     1       5.844  25.650  51.666  1.00  0.00     0.235 C 
HETATM   23  N   UNL     1       5.772  26.549  50.618  1.00  0.00    -0.326 N 
HETATM   24  H   UNL     1       6.654  27.020  50.424  1.00  0.00     0.169 HD
HETATM   25  O   UNL     1       4.925  24.963  52.106  1.00  0.00    -0.272 OA
BRANCH  23  26
HETATM   26  C   UNL     1       4.638  26.973  49.905  1.00  0.00     0.037 A 
HETATM   27  C   UNL     1       4.144  26.306  48.777  1.00  0.00     0.061 A 
HETATM   28  C   UNL     1       3.005  26.818  48.198  1.00  0.00     0.065 A 
HETATM   29  C   UNL     1       2.361  27.952  48.686  1.00  0.00     0.063 A 
HETATM   30  N   UNL     1       2.287  26.360  47.098  1.00  0.00    -0.306 N 
HETATM   31  N   UNL     1       1.251  28.194  47.887  1.00  0.00    -0.307 N 
HETATM   32  C   UNL     1       2.822  28.635  49.783  1.00  0.00     0.034 A 
HETATM   33  C   UNL     1       1.189  27.206  46.893  1.00  0.00     0.325 A 
HETATM   34  H   UNL     1       0.578  28.935  47.982  1.00  0.00     0.170 HD
HETATM   35  O   UNL     1       0.341  27.105  46.024  1.00  0.00    -0.247 OA
HETATM   36  C   UNL     1       3.975  28.129  50.397  1.00  0.00     0.032 A 
HETATM   37  H   UNL     1       2.491  25.552  46.533  1.00  0.00     0.170 HD
ENDBRANCH  23  26
ENDBRANCH  21  22
ENDBRANCH   1  21
TORSDOF 7
ENDMDL
MODEL 3
REMARK VINA RESULT:      -9.9      4.205      9.128
REMARK  7 active torsions:
REMARK  status: ('A' for Active; 'I' for Inactive)
REMARK    1  A    between atoms: C_2  and  C_3 
REMARK    2  A    between atoms: C_8  and  N_9 
REMARK    3  A    between atoms: N_9  and  C_10 
REMARK    4  A    between atoms: C_10  and  C_11 
REMARK       I    between atoms: C_11  and  N_12 
REMARK    5  A    between atoms: N_12  and  C_13 
REMARK    6  A    between atoms: C_24  and  N_25 
REMARK    7  A    between atoms: N_25  and  C_26 
ROOT
HETATM    1  N   UNL     1       7.293  27.499  53.554  1.00  0.00    -0.282 NA
HETATM    2  H   UNL     1       7.272  26.532  53.222  1.00  0.00     0.128 HD
ENDROOT
BRANCH   1   3
HETATM    3  C   UNL     1       7.444  27.431  54.967  1.00  0.00     0.036 A 
HETATM    4  C   UNL     1       7.912  28.497  55.747  1.00  0.00     0.042 A 
HETATM    5  C   UNL     1       8.018  28.386  57.143  1.00  0.00     0.049 A 
HETATM    6  C   UNL     1       7.640  27.187  57.755  1.00  0.00     0.018 A 
HETATM    7  C   UNL     1       7.169  26.117  56.990  1.00  0.00     0.032 A 
HETATM    8  C   UNL     1       7.050  26.214  55.602  1.00  0.00     0.049 A 
BRANCH   5   9
HETATM    9  C   UNL     1       8.527  29.552  57.952  1.00  0.00     0.417 C 
HETATM   10  F   UNL     1       8.059  30.758  57.526  1.00  0.00    -0.166 F 
HETATM   11  F   UNL     1       8.190  29.464  59.268  1.00  0.00    -0.166 F 
HETATM   12  F   UNL     1       9.885  29.648  57.920  1.00  0.00    -0.166 F 
ENDBRANCH   5   9
BRANCH   8  13
HETATM   13  N   UNL     1       6.660  25.148  54.786  1.00  0.00    -0.384 N 
HETATM   14  H   UNL     1       5.667  24.962  54.917  1.00  0.00     0.160 HD
BRANCH  13  15
HETATM   15  C   UNL     1       7.440  23.941  54.503  1.00  0.00     0.081 C 
HETATM   16  C   UNL     1       7.216  23.371  53.099  1.00  0.00     0.025 C 
HETATM   17  C   UNL     1       8.099  22.148  52.851  1.00  0.00     0.002 C 
HETATM   18  C   UNL     1       7.916  21.093  53.940  1.00  0.00     0.000 C 
HETATM   19  C   UNL     1       8.171  21.669  55.331  1.00  0.00     0.002 C 
HETATM   20  C   UNL     1       7.296  22.890  55.609  1.00  0.00     0.025 C 
ENDBRANCH  13  15
ENDBRANCH   8  13
ENDBRANCH   1   3
BRANCH   1  21
HETATM   21  C   UNL     1       6.152  28.243  52.973  1.00  0.00     0.195 C 
BRANCH  21  22
HETATM   22  C   UNL     1       5.305  27.400  52.005  1.00  0.00     0.235 C 
HETATM   23  N   UNL     1       5.015  28.065  50.828  1.00  0.00    -0.326 N 
HETATM   24  H   UNL     1       5.369  29.020  50.802  1.00  0.00     0.169 HD
HETATM   25  O   UNL     1       4.987  26.249  52.294  1.00  0.00    -0.272 OA
BRANCH  23  26
HETATM   26  C   UNL     1       4.206  27.641  49.760  1.00  0.00     0.037 A 
HETATM   27  C   UNL     1       2.961  28.209  49.464  1.00  0.00     0.061 A 
HETATM   28  C   UNL     1       2.294  27.714  48.367  1.00  0.00     0.065 A 
HETATM   29  C   UNL     1       2.807  26.688  47.578  1.00  0.00     0.063 A 
HETATM   30  N   UNL     1       1.068  28.093  47.829  1.00  0.00    -0.306 N 
HETATM   31  N   UNL     1       1.898  26.433  46.559  1.00  0.00    -0.307 N 
HETATM   32  C   UNL     1       4.019  26.102  47.844  1.00  0.00     0.034 A 
HETATM   33  C   UNL     1       0.808  27.305  46.699  1.00  0.00     0.325 A 
HETATM   34  H   UNL     1       1.979  25.754  45.821  1.00  0.00     0.170 HD
HETATM   35  O   UNL     1      -0.170  27.366  45.976  1.00  0.00    -0.247 OA
HETATM   36  C   UNL     1       4.723  26.595  48.950  1.00  0.00     0.032 A 
HETATM   37  H   UNL     1       0.454  28.817  48.166  1.00  0.00     0.170 HD
ENDBRANCH  23  26
ENDBRANCH  21  22
ENDBRANCH   1  21
TORSDOF 7
ENDMDL
MODEL 4
REMARK VINA RESULT:      -9.9      4.927      7.581
REMARK  7 active torsions:
REMARK  status: ('A' for Active; 'I' for Inactive)
REMARK    1  A    between atoms: C_2  and  C_3 
REMARK    2  A    between atoms: C_8  and  N_9 
REMARK    3  A    between atoms: N_9  and  C_10 
REMARK    4  A    between atoms: C_10  and  C_11 
REMARK       I    between atoms: C_11  and  N_12 
REMARK    5  A    between atoms: N_12  and  C_13 
REMARK    6  A    between atoms: C_24  and  N_25 
REMARK    7  A    between atoms: N_25  and  C_26 
ROOT
HETATM    1  N   UNL     1       8.037  29.001  58.581  1.00  0.00    -0.282 NA
HETATM    2  H   UNL     1       8.578  28.158  58.374  1.00  0.00     0.128 HD
ENDROOT
BRANCH   1   3
HETATM    3  C   UNL     1       6.840  28.900  57.818  1.00  0.00     0.036 A 
HETATM    4  C   UNL     1       5.832  29.874  57.829  1.00  0.00     0.042 A 
HETATM    5  C   UNL     1       4.680  29.739  57.038  1.00  0.00     0.049 A 
HETATM    6  C   UNL     1       4.552  28.611  56.222  1.00  0.00     0.018 A 
HETATM    7  C   UNL     1       5.550  27.634  56.198  1.00  0.00     0.032 A 
HETATM    8  C   UNL     1       6.704  27.758  56.974  1.00  0.00     0.049 A 
BRANCH   5   9
HETATM    9  C   UNL     1       3.615  30.806  57.075  1.00  0.00     0.417 C 
HETATM   10  F   UNL     1       4.035  32.014  56.608  1.00  0.00    -0.166 F 
HETATM   11  F   UNL     1       2.520  30.479  56.335  1.00  0.00    -0.166 F 
HETATM   12  F   UNL     1       3.158  31.033  58.337  1.00  0.00    -0.166 F 
ENDBRANCH   5   9
BRANCH   8  13
HETATM   13  N   UNL     1       7.693  26.772  57.046  1.00  0.00    -0.384 N 
HETATM   14  H   UNL     1       8.608  27.192  56.886  1.00  0.00     0.160 HD
BRANCH  13  15
HETATM   15  C   UNL     1       7.591  25.402  56.537  1.00  0.00     0.081 C 
HETATM   16  C   UNL     1       8.563  24.420  57.199  1.00  0.00     0.025 C 
HETATM   17  C   UNL     1       8.367  23.002  56.663  1.00  0.00     0.002 C 
HETATM   18  C   UNL     1       8.450  22.961  55.139  1.00  0.00     0.000 C 
HETATM   19  C   UNL     1       7.456  23.923  54.493  1.00  0.00     0.002 C 
HETATM   20  C   UNL     1       7.635  25.351  55.006  1.00  0.00     0.025 C 
ENDBRANCH  13  15
ENDBRANCH   8  13
ENDBRANCH   1   3
BRANCH   1  21
HETATM   21  C   UNL     1       8.905  30.192  58.431  1.00  0.00     0.195 C 
BRANCH  21  22
HETATM   22  C   UNL     1       8.611  31.293  59.463  1.00  0.00     0.235 C 
HETATM   23  N   UNL     1       7.978  30.813  60.594  1.00  0.00    -0.326 N 
HETATM   24  H   UNL     1       7.768  29.817  60.551  1.00  0.00     0.169 HD
HETATM   25  O   UNL     1       8.963  32.452  59.257  1.00  0.00    -0.272 OA
BRANCH  23  26
HETATM   26  C   UNL     1       7.490  31.534  61.697  1.00  0.00     0.037 A 
HETATM   27  C   UNL     1       6.126  31.715  61.957  1.00  0.00     0.061 A 
HETATM   28  C   UNL     1       5.795  32.417  63.093  1.00  0.00     0.065 A 
HETATM   29  C   UNL     1       6.753  32.943  63.955  1.00  0.00     0.063 A 
HETATM   30  N   UNL     1       4.540  32.729  63.608  1.00  0.00    -0.306 N 
HETATM   31  N   UNL     1       6.091  33.580  64.997  1.00  0.00    -0.307 N 
HETATM   32  C   UNL     1       8.098  32.792  63.727  1.00  0.00     0.034 A 
HETATM   33  C   UNL     1       4.708  33.452  64.797  1.00  0.00     0.325 A 
HETATM   34  H   UNL     1       6.500  34.054  65.784  1.00  0.00     0.170 HD
HETATM   35  O   UNL     1       3.828  33.883  65.520  1.00  0.00    -0.247 OA
HETATM   36  C   UNL     1       8.462  32.073  62.582  1.00  0.00     0.032 A 
HETATM   37  H   UNL     1       3.645  32.479  63.221  1.00  0.00     0.170 HD
ENDBRANCH  23  26
ENDBRANCH  21  22
ENDBRANCH   1  21
TORSDOF 7
ENDMDL
MODEL 5
REMARK VINA RESULT:      -9.8      4.235      9.382
REMARK  7 active torsions:
REMARK  status: ('A' for Active; 'I' for Inactive)
REMARK    1  A    between atoms: C_2  and  C_3 
REMARK    2  A    between atoms: C_8  and  N_9 
REMARK    3  A    between atoms: N_9  and  C_10 
REMARK    4  A    between atoms: C_10  and  C_11 
REMARK       I    between atoms: C_11  and  N_12 
REMARK    5  A    between atoms: N_12  and  C_13 
REMARK    6  A    between atoms: C_24  and  N_25 
REMARK    7  A    between atoms: N_25  and  C_26 
ROOT
HETATM    1  N   UNL     1       5.943  30.443  58.618  1.00  0.00    -0.282 NA
HETATM    2  H   UNL     1       5.482  31.109  59.242  1.00  0.00     0.128 HD
ENDROOT
BRANCH   1   3
HETATM    3  C   UNL     1       7.331  30.755  58.662  1.00  0.00     0.036 A 
HETATM    4  C   UNL     1       8.286  30.151  57.832  1.00  0.00     0.042 A 
HETATM    5  C   UNL     1       9.640  30.514  57.898  1.00  0.00     0.049 A 
HETATM    6  C   UNL     1      10.031  31.502  58.806  1.00  0.00     0.018 A 
HETATM    7  C   UNL     1       9.089  32.115  59.637  1.00  0.00     0.032 A 
HETATM    8  C   UNL     1       7.737  31.771  59.578  1.00  0.00     0.049 A 
BRANCH   5   9
HETATM    9  C   UNL     1      10.642  29.843  56.992  1.00  0.00     0.417 C 
HETATM   10  F   UNL     1      10.564  28.483  57.004  1.00  0.00    -0.166 F 
HETATM   11  F   UNL     1      10.501  30.214  55.690  1.00  0.00    -0.166 F 
HETATM   12  F   UNL     1      11.926  30.145  57.330  1.00  0.00    -0.166 F 
ENDBRANCH   5   9
BRANCH   8  13
HETATM   13  N   UNL     1       6.771  32.297  60.441  1.00  0.00    -0.384 N 
HETATM   14  H   UNL     1       5.990  32.664  59.898  1.00  0.00     0.160 HD
BRANCH  13  15
HETATM   15  C   UNL     1       7.024  33.053  61.670  1.00  0.00     0.081 C 
HETATM   16  C   UNL     1       7.492  32.188  62.845  1.00  0.00     0.025 C 
HETATM   17  C   UNL     1       7.790  33.043  64.077  1.00  0.00     0.002 C 
HETATM   18  C   UNL     1       6.603  33.929  64.446  1.00  0.00     0.000 C 
HETATM   19  C   UNL     1       6.167  34.806  63.274  1.00  0.00     0.002 C 
HETATM   20  C   UNL     1       5.855  33.975  62.030  1.00  0.00     0.025 C 
ENDBRANCH  13  15
ENDBRANCH   8  13
ENDBRANCH   1   3
BRANCH   1  21
HETATM   21  C   UNL     1       5.237  30.420  57.316  1.00  0.00     0.195 C 
BRANCH  21  22
HETATM   22  C   UNL     1       5.610  29.210  56.443  1.00  0.00     0.235 C 
HETATM   23  N   UNL     1       5.731  28.041  57.171  1.00  0.00    -0.326 N 
HETATM   24  H   UNL     1       5.598  28.169  58.173  1.00  0.00     0.169 HD
HETATM   25  O   UNL     1       5.733  29.332  55.227  1.00  0.00    -0.272 OA
BRANCH  23  26
HETATM   26  C   UNL     1       6.134  26.770  56.726  1.00  0.00     0.037 A 
HETATM   27  C   UNL     1       7.077  25.982  57.397  1.00  0.00     0.061 A 
HETATM   28  C   UNL     1       7.349  24.744  56.861  1.00  0.00     0.065 A 
HETATM   29  C   UNL     1       6.738  24.279  55.700  1.00  0.00     0.063 A 
HETATM   30  N   UNL     1       8.212  23.751  57.316  1.00  0.00    -0.306 N 
HETATM   31  N   UNL     1       7.225  23.004  55.438  1.00  0.00    -0.307 N 
HETATM   32  C   UNL     1       5.817  25.027  55.012  1.00  0.00     0.034 A 
HETATM   33  C   UNL     1       8.143  22.659  56.441  1.00  0.00     0.325 A 
HETATM   34  H   UNL     1       6.975  22.397  54.676  1.00  0.00     0.170 HD
HETATM   35  O   UNL     1       8.757  21.611  56.532  1.00  0.00    -0.247 OA
HETATM   36  C   UNL     1       5.514  26.288  55.542  1.00  0.00     0.032 A 
HETATM   37  H   UNL     1       8.791  23.780  58.139  1.00  0.00     0.170 HD
ENDBRANCH  23  26
ENDBRANCH  21  22
ENDBRANCH   1  21
TORSDOF 7
ENDMDL
MODEL 6
REMARK VINA RESULT:      -9.7      2.808      8.123
REMARK  7 active torsions:
REMARK  status: ('A' for Active; 'I' for Inactive)
REMARK    1  A    between atoms: C_2  and  C_3 
REMARK    2  A    between atoms: C_8  and  N_9 
REMARK    3  A    between atoms: N_9  and  C_10 
REMARK    4  A    between atoms: C_10  and  C_11 
REMARK       I    between atoms: C_11  and  N_12 
REMARK    5  A    between atoms: N_12  and  C_13 
REMARK    6  A    between atoms: C_24  and  N_25 
REMARK    7  A    between atoms: N_25  and  C_26 
ROOT
HETATM    1  N   UNL     1       7.135  28.002  54.654  1.00  0.00    -0.282 NA
HETATM    2  H   UNL     1       7.347  27.852  53.665  1.00  0.00     0.128 HD
ENDROOT
BRANCH   1   3
HETATM    3  C   UNL     1       7.410  26.770  55.310  1.00  0.00     0.036 A 
HETATM    4  C   UNL     1       7.439  25.533  54.651  1.00  0.00     0.042 A 
HETATM    5  C   UNL     1       7.741  24.348  55.341  1.00  0.00     0.049 A 
HETATM    6  C   UNL     1       8.024  24.416  56.708  1.00  0.00     0.018 A 
HETATM    7  C   UNL     1       8.002  25.643  57.377  1.00  0.00     0.032 A 
HETATM    8  C   UNL     1       7.711  26.831  56.704  1.00  0.00     0.049 A 
BRANCH   5   9
HETATM    9  C   UNL     1       7.763  23.034  54.601  1.00  0.00     0.417 C 
HETATM   10  F   UNL     1       8.998  22.682  54.147  1.00  0.00    -0.166 F 
HETATM   11  F   UNL     1       7.335  21.993  55.368  1.00  0.00    -0.166 F 
HETATM   12  F   UNL     1       6.953  23.047  53.505  1.00  0.00    -0.166 F 
ENDBRANCH   5   9
BRANCH   8  13
HETATM   13  N   UNL     1       7.599  28.070  57.342  1.00  0.00    -0.384 N 
HETATM   14  H   UNL     1       6.844  28.607  56.917  1.00  0.00     0.160 HD
BRANCH  13  15
HETATM   15  C   UNL     1       8.705  28.906  57.814  1.00  0.00     0.081 C 
HETATM   16  C   UNL     1       8.259  30.238  58.428  1.00  0.00     0.025 C 
HETATM   17  C   UNL     1       9.455  31.034  58.949  1.00  0.00     0.002 C 
HETATM   18  C   UNL     1      10.518  31.221  57.869  1.00  0.00     0.000 C 
HETATM   19  C   UNL     1      10.973  29.885  57.288  1.00  0.00     0.002 C 
HETATM   20  C   UNL     1       9.798  29.069  56.753  1.00  0.00     0.025 C 
ENDBRANCH  13  15
ENDBRANCH   8  13
ENDBRANCH   1   3
BRANCH   1  21
HETATM   21  C   UNL     1       5.795  28.618  54.781  1.00  0.00     0.195 C 
BRANCH  21  22
HETATM   22  C   UNL     1       4.923  28.445  53.526  1.00  0.00     0.235 C 
HETATM   23  N   UNL     1       5.638  27.981  52.437  1.00  0.00    -0.326 N 
HETATM   24  H   UNL     1       6.633  27.867  52.622  1.00  0.00     0.169 HD
HETATM   25  O   UNL     1       3.717  28.677  53.566  1.00  0.00    -0.272 OA
BRANCH  23  26
HETATM   26  C   UNL     1       5.194  27.784  51.119  1.00  0.00     0.037 A 
HETATM   27  C   UNL     1       4.592  26.599  50.677  1.00  0.00     0.061 A 
HETATM   28  C   UNL     1       4.179  26.560  49.365  1.00  0.00     0.065 A 
HETATM   29  C   UNL     1       4.350  27.632  48.494  1.00  0.00     0.063 A 
HETATM   30  N   UNL     1       3.541  25.540  48.666  1.00  0.00    -0.306 N 
HETATM   31  N   UNL     1       3.822  27.273  47.260  1.00  0.00    -0.307 N 
HETATM   32  C   UNL     1       4.943  28.804  48.889  1.00  0.00     0.034 A 
HETATM   33  C   UNL     1       3.309  25.970  47.353  1.00  0.00     0.325 A 
HETATM   34  H   UNL     1       3.785  27.829  46.423  1.00  0.00     0.170 HD
HETATM   35  O   UNL     1       2.765  25.340  46.464  1.00  0.00    -0.247 OA
HETATM   36  C   UNL     1       5.365  28.873  50.224  1.00  0.00     0.032 A 
HETATM   37  H   UNL     1       3.268  24.639  49.022  1.00  0.00     0.170 HD
ENDBRANCH  23  26
ENDBRANCH  21  22
ENDBRANCH   1  21
TORSDOF 7
ENDMDL
MODEL 7
REMARK VINA RESULT:      -9.6      4.232      9.126
REMARK  7 active torsions:
REMARK  status: ('A' for Active; 'I' for Inactive)
REMARK    1  A    between atoms: C_2  and  C_3 
REMARK    2  A    between atoms: C_8  and  N_9 
REMARK    3  A    between atoms: N_9  and  C_10 
REMARK    4  A    between atoms: C_10  and  C_11 
REMARK       I    between atoms: C_11  and  N_12 
REMARK    5  A    between atoms: N_12  and  C_13 
REMARK    6  A    between atoms: C_24  and  N_25 
REMARK    7  A    between atoms: N_25  and  C_26 
ROOT
HETATM    1  N   UNL     1       6.656  25.513  53.608  1.00  0.00    -0.282 NA
HETATM    2  H   UNL     1       5.653  25.339  53.704  1.00  0.00     0.128 HD
ENDROOT
BRANCH   1   3
HETATM    3  C   UNL     1       7.126  25.852  54.907  1.00  0.00     0.036 A 
HETATM    4  C   UNL     1       7.487  27.153  55.284  1.00  0.00     0.042 A 
HETATM    5  C   UNL     1       7.921  27.438  56.589  1.00  0.00     0.049 A 
HETATM    6  C   UNL     1       7.984  26.399  57.521  1.00  0.00     0.018 A 
HETATM    7  C   UNL     1       7.625  25.098  57.160  1.00  0.00     0.032 A 
HETATM    8  C   UNL     1       7.183  24.799  55.869  1.00  0.00     0.049 A 
BRANCH   5   9
HETATM    9  C   UNL     1       8.302  28.849  56.960  1.00  0.00     0.417 C 
HETATM   10  F   UNL     1       9.624  29.123  56.780  1.00  0.00    -0.166 F 
HETATM   11  F   UNL     1       7.625  29.783  56.238  1.00  0.00    -0.166 F 
HETATM   12  F   UNL     1       8.040  29.126  58.268  1.00  0.00    -0.166 F 
ENDBRANCH   5   9
BRANCH   8  13
HETATM   13  N   UNL     1       6.888  23.503  55.437  1.00  0.00    -0.384 N 
HETATM   14  H   UNL     1       6.099  23.136  55.967  1.00  0.00     0.160 HD
BRANCH  13  15
HETATM   15  C   UNL     1       7.859  22.472  55.062  1.00  0.00     0.081 C 
HETATM   16  C   UNL     1       7.757  22.027  53.598  1.00  0.00     0.025 C 
HETATM   17  C   UNL     1       8.831  20.993  53.259  1.00  0.00     0.002 C 
HETATM   18  C   UNL     1       8.799  19.813  54.227  1.00  0.00     0.000 C 
HETATM   19  C   UNL     1       8.930  20.269  55.678  1.00  0.00     0.002 C 
HETATM   20  C   UNL     1       7.864  21.299  56.047  1.00  0.00     0.025 C 
ENDBRANCH  13  15
ENDBRANCH   8  13
ENDBRANCH   1   3
BRANCH   1  21
HETATM   21  C   UNL     1       6.886  26.443  52.478  1.00  0.00     0.195 C 
BRANCH  21  22
HETATM   22  C   UNL     1       5.593  26.857  51.756  1.00  0.00     0.235 C 
HETATM   23  N   UNL     1       5.715  26.832  50.380  1.00  0.00    -0.326 N 
HETATM   24  H   UNL     1       6.650  26.585  50.058  1.00  0.00     0.169 HD
HETATM   25  O   UNL     1       4.581  27.132  52.397  1.00  0.00    -0.272 OA
BRANCH  23  26
HETATM   26  C   UNL     1       4.776  27.221  49.410  1.00  0.00     0.037 A 
HETATM   27  C   UNL     1       3.612  26.494  49.130  1.00  0.00     0.061 A 
HETATM   28  C   UNL     1       2.767  27.013  48.176  1.00  0.00     0.065 A 
HETATM   29  C   UNL     1       3.039  28.199  47.498  1.00  0.00     0.063 A 
HETATM   30  N   UNL     1       1.547  26.529  47.713  1.00  0.00    -0.306 N 
HETATM   31  N   UNL     1       1.993  28.442  46.618  1.00  0.00    -0.307 N 
HETATM   32  C   UNL     1       4.174  28.931  47.740  1.00  0.00     0.034 A 
HETATM   33  C   UNL     1       1.050  27.410  46.743  1.00  0.00     0.325 A 
HETATM   34  H   UNL     1       1.888  29.221  45.990  1.00  0.00     0.170 HD
HETATM   35  O   UNL     1       0.004  27.305  46.129  1.00  0.00    -0.247 OA
HETATM   36  C   UNL     1       5.046  28.429  48.715  1.00  0.00     0.032 A 
HETATM   37  H   UNL     1       1.071  25.695  48.015  1.00  0.00     0.170 HD
ENDBRANCH  23  26
ENDBRANCH  21  22
ENDBRANCH   1  21
TORSDOF 7
ENDMDL
MODEL 8
REMARK VINA RESULT:      -9.5      3.295      8.336
REMARK  7 active torsions:
REMARK  status: ('A' for Active; 'I' for Inactive)
REMARK    1  A    between atoms: C_2  and  C_3 
REMARK    2  A    between atoms: C_8  and  N_9 
REMARK    3  A    between atoms: N_9  and  C_10 
REMARK    4  A    between atoms: C_10  and  C_11 
REMARK       I    between atoms: C_11  and  N_12 
REMARK    5  A    between atoms: N_12  and  C_13 
REMARK    6  A    between atoms: C_24  and  N_25 
REMARK    7  A    between atoms: N_25  and  C_26 
ROOT
HETATM    1  N   UNL     1       5.757  24.856  53.017  1.00  0.00    -0.282 NA
HETATM    2  H   UNL     1       5.353  25.530  53.672  1.00  0.00     0.128 HD
ENDROOT
BRANCH   1   3
HETATM    3  C   UNL     1       6.587  23.999  53.792  1.00  0.00     0.036 A 
HETATM    4  C   UNL     1       7.205  22.850  53.279  1.00  0.00     0.042 A 
HETATM    5  C   UNL     1       8.037  22.052  54.081  1.00  0.00     0.049 A 
HETATM    6  C   UNL     1       8.251  22.425  55.411  1.00  0.00     0.018 A 
HETATM    7  C   UNL     1       7.644  23.569  55.935  1.00  0.00     0.032 A 
HETATM    8  C   UNL     1       6.821  24.377  55.148  1.00  0.00     0.049 A 
BRANCH   5   9
HETATM    9  C   UNL     1       8.685  20.822  53.497  1.00  0.00     0.417 C 
HETATM   10  F   UNL     1       8.932  19.847  54.416  1.00  0.00    -0.166 F 
HETATM   11  F   UNL     1       7.927  20.240  52.528  1.00  0.00    -0.166 F 
HETATM   12  F   UNL     1       9.885  21.099  52.916  1.00  0.00    -0.166 F 
ENDBRANCH   5   9
BRANCH   8  13
HETATM   13  N   UNL     1       6.129  25.486  55.646  1.00  0.00    -0.384 N 
HETATM   14  H   UNL     1       5.228  25.566  55.176  1.00  0.00     0.160 HD
BRANCH  13  15
HETATM   15  C   UNL     1       6.709  26.782  56.003  1.00  0.00     0.081 C 
HETATM   16  C   UNL     1       7.613  27.378  54.918  1.00  0.00     0.025 C 
HETATM   17  C   UNL     1       8.141  28.752  55.331  1.00  0.00     0.002 C 
HETATM   18  C   UNL     1       8.827  28.703  56.694  1.00  0.00     0.000 C 
HETATM   19  C   UNL     1       7.905  28.135  57.770  1.00  0.00     0.002 C 
HETATM   20  C   UNL     1       7.368  26.757  57.387  1.00  0.00     0.025 C 
ENDBRANCH  13  15
ENDBRANCH   8  13
ENDBRANCH   1   3
BRANCH   1  21
HETATM   21  C   UNL     1       6.328  25.579  51.857  1.00  0.00     0.195 C 
BRANCH  21  22
HETATM   22  C   UNL     1       5.358  26.602  51.240  1.00  0.00     0.235 C 
HETATM   23  N   UNL     1       5.051  26.321  49.922  1.00  0.00    -0.326 N 
HETATM   24  H   UNL     1       5.545  25.510  49.552  1.00  0.00     0.169 HD
HETATM   25  O   UNL     1       4.911  27.525  51.916  1.00  0.00    -0.272 OA
BRANCH  23  26
HETATM   26  C   UNL     1       4.272  27.072  49.026  1.00  0.00     0.037 A 
HETATM   27  C   UNL     1       2.939  26.768  48.722  1.00  0.00     0.061 A 
HETATM   28  C   UNL     1       2.290  27.611  47.850  1.00  0.00     0.065 A 
HETATM   29  C   UNL     1       2.910  28.716  47.274  1.00  0.00     0.063 A 
HETATM   30  N   UNL     1       0.977  27.571  47.388  1.00  0.00    -0.306 N 
HETATM   31  N   UNL     1       1.985  29.353  46.457  1.00  0.00    -0.307 N 
HETATM   32  C   UNL     1       4.217  29.039  47.542  1.00  0.00     0.034 A 
HETATM   33  C   UNL     1       0.771  28.652  46.521  1.00  0.00     0.325 A 
HETATM   34  H   UNL     1       2.121  30.184  45.908  1.00  0.00     0.170 HD
HETATM   35  O   UNL     1      -0.260  28.934  45.937  1.00  0.00    -0.247 OA
HETATM   36  C   UNL     1       4.898  28.201  48.435  1.00  0.00     0.032 A 
HETATM   37  H   UNL     1       0.269  26.897  47.630  1.00  0.00     0.170 HD
ENDBRANCH  23  26
ENDBRANCH  21  22
ENDBRANCH   1  21
TORSDOF 7
ENDMDL
MODEL 9
REMARK VINA RESULT:      -9.5      4.204      8.181
REMARK  7 active torsions:
REMARK  status: ('A' for Active; 'I' for Inactive)
REMARK    1  A    between atoms: C_2  and  C_3 
REMARK    2  A    between atoms: C_8  and  N_9 
REMARK    3  A    between atoms: N_9  and  C_10 
REMARK    4  A    between atoms: C_10  and  C_11 
REMARK       I    between atoms: C_11  and  N_12 
REMARK    5  A    between atoms: N_12  and  C_13 
REMARK    6  A    between atoms: C_24  and  N_25 
REMARK    7  A    between atoms: N_25  and  C_26 
ROOT
HETATM    1  N   UNL     1       4.534  28.396  56.395  1.00  0.00    -0.282 NA
HETATM    2  H   UNL     1       4.041  27.965  57.180  1.00  0.00     0.128 HD
ENDROOT
BRANCH   1   3
HETATM    3  C   UNL     1       5.892  28.524  56.801  1.00  0.00     0.036 A 
HETATM    4  C   UNL     1       6.338  29.491  57.712  1.00  0.00     0.042 A 
HETATM    5  C   UNL     1       7.686  29.557  58.100  1.00  0.00     0.049 A 
HETATM    6  C   UNL     1       8.588  28.633  57.567  1.00  0.00     0.018 A 
HETATM    7  C   UNL     1       8.157  27.661  56.660  1.00  0.00     0.032 A 
HETATM    8  C   UNL     1       6.818  27.576  56.271  1.00  0.00     0.049 A 
BRANCH   5   9
HETATM    9  C   UNL     1       8.133  30.612  59.082  1.00  0.00     0.417 C 
HETATM   10  F   UNL     1       8.743  30.104  60.188  1.00  0.00    -0.166 F 
HETATM   11  F   UNL     1       9.016  31.493  58.538  1.00  0.00    -0.166 F 
HETATM   12  F   UNL     1       7.093  31.361  59.541  1.00  0.00    -0.166 F 
ENDBRANCH   5   9
BRANCH   8  13
HETATM   13  N   UNL     1       6.352  26.675  55.309  1.00  0.00    -0.384 N 
HETATM   14  H   UNL     1       5.425  26.343  55.572  1.00  0.00     0.160 HD
BRANCH  13  15
HETATM   15  C   UNL     1       7.148  25.666  54.607  1.00  0.00     0.081 C 
HETATM   16  C   UNL     1       7.173  25.843  53.085  1.00  0.00     0.025 C 
HETATM   17  C   UNL     1       8.064  24.793  52.420  1.00  0.00     0.002 C 
HETATM   18  C   UNL     1       7.667  23.378  52.833  1.00  0.00     0.000 C 
HETATM   19  C   UNL     1       7.676  23.209  54.351  1.00  0.00     0.002 C 
HETATM   20  C   UNL     1       6.786  24.242  55.041  1.00  0.00     0.025 C 
ENDBRANCH  13  15
ENDBRANCH   8  13
ENDBRANCH   1   3
BRANCH   1  21
HETATM   21  C   UNL     1       3.788  29.592  55.942  1.00  0.00     0.195 C 
BRANCH  21  22
HETATM   22  C   UNL     1       3.888  29.835  54.427  1.00  0.00     0.235 C 
HETATM   23  N   UNL     1       3.571  28.715  53.682  1.00  0.00    -0.326 N 
HETATM   24  H   UNL     1       3.363  27.894  54.249  1.00  0.00     0.169 HD
HETATM   25  O   UNL     1       4.187  30.944  53.991  1.00  0.00    -0.272 OA
BRANCH  23  26
HETATM   26  C   UNL     1       3.631  28.544  52.289  1.00  0.00     0.037 A 
HETATM   27  C   UNL     1       4.603  27.765  51.649  1.00  0.00     0.061 A 
HETATM   28  C   UNL     1       4.518  27.663  50.279  1.00  0.00     0.065 A 
HETATM   29  C   UNL     1       3.528  28.304  49.539  1.00  0.00     0.063 A 
HETATM   30  N   UNL     1       5.319  26.951  49.391  1.00  0.00    -0.306 N 
HETATM   31  N   UNL     1       3.721  27.992  48.199  1.00  0.00    -0.307 N 
HETATM   32  C   UNL     1       2.566  29.083  50.132  1.00  0.00     0.034 A 
HETATM   33  C   UNL     1       4.834  27.144  48.091  1.00  0.00     0.325 A 
HETATM   34  H   UNL     1       3.170  28.294  47.414  1.00  0.00     0.170 HD
HETATM   35  O   UNL     1       5.285  26.668  47.065  1.00  0.00    -0.247 OA
HETATM   36  C   UNL     1       2.624  29.195  51.527  1.00  0.00     0.032 A 
HETATM   37  H   UNL     1       6.114  26.376  49.618  1.00  0.00     0.170 HD
ENDBRANCH  23  26
ENDBRANCH  21  22
ENDBRANCH   1  21
TORSDOF 7
ENDMDL
MODEL 10
REMARK VINA RESULT:      -9.4      6.052     11.397
REMARK  7 active torsions:
REMARK  status: ('A' for Active; 'I' for Inactive)
REMARK    1  A    between atoms: C_2  and  C_3 
REMARK    2  A    between atoms: C_8  and  N_9 
REMARK    3  A    between atoms: N_9  and  C_10 
REMARK    4  A    between atoms: C_10  and  C_11 
REMARK       I    between atoms: C_11  and  N_12 
REMARK    5  A    between atoms: N_12  and  C_13 
REMARK    6  A    between atoms: C_24  and  N_25 
REMARK    7  A    between atoms: N_25  and  C_26 
ROOT
HETATM    1  N   UNL     1       4.533  32.033  61.409  1.00  0.00    -0.282 NA
HETATM    2  H   UNL     1       3.901  32.531  62.039  1.00  0.00     0.128 HD
ENDROOT
BRANCH   1   3
HETATM    3  C   UNL     1       5.833  32.154  61.974  1.00  0.00     0.036 A 
HETATM    4  C   UNL     1       7.013  31.894  61.262  1.00  0.00     0.042 A 
HETATM    5  C   UNL     1       8.273  32.054  61.860  1.00  0.00     0.049 A 
HETATM    6  C   UNL     1       8.340  32.489  63.186  1.00  0.00     0.018 A 
HETATM    7  C   UNL     1       7.173  32.755  63.907  1.00  0.00     0.032 A 
HETATM    8  C   UNL     1       5.912  32.608  63.325  1.00  0.00     0.049 A 
BRANCH   5   9
HETATM    9  C   UNL     1       9.522  31.764  61.066  1.00  0.00     0.417 C 
HETATM   10  F   UNL     1      10.668  32.161  61.686  1.00  0.00    -0.166 F 
HETATM   11  F   UNL     1       9.679  30.438  60.801  1.00  0.00    -0.166 F 
HETATM   12  F   UNL     1       9.519  32.388  59.855  1.00  0.00    -0.166 F 
ENDBRANCH   5   9
BRANCH   8  13
HETATM   13  N   UNL     1       4.715  32.785  64.025  1.00  0.00    -0.384 N 
HETATM   14  H   UNL     1       3.961  32.300  63.542  1.00  0.00     0.160 HD
BRANCH  13  15
HETATM   15  C   UNL     1       4.276  34.010  64.697  1.00  0.00     0.081 C 
HETATM   16  C   UNL     1       4.762  35.297  64.020  1.00  0.00     0.025 C 
HETATM   17  C   UNL     1       4.225  36.535  64.737  1.00  0.00     0.002 C 
HETATM   18  C   UNL     1       4.551  36.506  66.229  1.00  0.00     0.000 C 
HETATM   19  C   UNL     1       4.035  35.232  66.894  1.00  0.00     0.002 C 
HETATM   20  C   UNL     1       4.563  33.977  66.202  1.00  0.00     0.025 C 
ENDBRANCH  13  15
ENDBRANCH   8  13
ENDBRANCH   1   3
BRANCH   1  21
HETATM   21  C   UNL     1       4.292  32.479  60.017  1.00  0.00     0.195 C 
BRANCH  21  22
HETATM   22  C   UNL     1       3.876  31.337  59.075  1.00  0.00     0.235 C 
HETATM   23  N   UNL     1       4.930  30.851  58.324  1.00  0.00    -0.326 N 
HETATM   24  H   UNL     1       5.805  31.350  58.479  1.00  0.00     0.169 HD
HETATM   25  O   UNL     1       2.720  30.923  59.069  1.00  0.00    -0.272 OA
BRANCH  23  26
HETATM   26  C   UNL     1       4.908  29.875  57.313  1.00  0.00     0.037 A 
HETATM   27  C   UNL     1       5.609  28.666  57.393  1.00  0.00     0.061 A 
HETATM   28  C   UNL     1       5.468  27.792  56.340  1.00  0.00     0.065 A 
HETATM   29  C   UNL     1       4.679  28.077  55.230  1.00  0.00     0.063 A 
HETATM   30  N   UNL     1       6.020  26.527  56.157  1.00  0.00    -0.306 N 
HETATM   31  N   UNL     1       4.746  26.994  54.363  1.00  0.00    -0.307 N 
HETATM   32  C   UNL     1       3.985  29.255  55.113  1.00  0.00     0.034 A 
HETATM   33  C   UNL     1       5.577  26.015  54.930  1.00  0.00     0.325 A 
HETATM   34  H   UNL     1       4.283  26.888  53.476  1.00  0.00     0.170 HD
HETATM   35  O   UNL     1       5.854  24.932  54.448  1.00  0.00    -0.247 OA
HETATM   36  C   UNL     1       4.104  30.159  56.177  1.00  0.00     0.032 A 
HETATM   37  H   UNL     1       6.628  26.033  56.789  1.00  0.00     0.170 HD
ENDBRANCH  23  26
ENDBRANCH  21  22
ENDBRANCH   1  21
TORSDOF 7
ENDMDL
