MODEL 1
REMARK VINA RESULT:      -9.0      0.000      0.000
REMARK  11 active torsions:
REMARK  status: ('A' for Active; 'I' for Inactive)
REMARK    1  A    between atoms: C_4  and  C_5 
REMARK    2  A    between atoms: C_5  and  N_6 
REMARK    3  A    between atoms: C_7  and  S_8 
REMARK    4  A    between atoms: C_9  and  C_10 
REMARK       I    between atoms: C_10  and  N_11 
REMARK    5  A    between atoms: N_11  and  C_12 
REMARK    6  A    between atoms: C_15  and  O_16 
REMARK    7  A    between atoms: O_16  and  C_17 
REMARK    8  A    between atoms: C_27  and  C_28 
REMARK       I    between atoms: C_28  and  N_29 
REMARK    9  A    between atoms: N_29  and  C_30 
REMARK   10  A    between atoms: C_30  and  C_31 
REMARK   11  A    between atoms: C_31  and  O_32 
ROOT
HETATM    1  N   UNL     1       5.101  30.347  56.215  1.00  0.00    -0.321 N 
HETATM    2  C   UNL     1       5.321  29.379  55.214  1.00  0.00     0.104 A 
HETATM    3  C   UNL     1       6.531  28.736  55.483  1.00  0.00     0.142 A 
HETATM    4  N   UNL     1       6.986  29.370  56.645  1.00  0.00    -0.301 N 
HETATM    5  C   UNL     1       6.130  30.294  57.068  1.00  0.00     0.116 A 
HETATM    6  C   UNL     1       8.237  29.069  57.394  1.00  0.00     0.100 A 
HETATM    7  C   UNL     1       8.443  29.822  58.546  1.00  0.00     0.035 A 
HETATM    8  C   UNL     1       7.519  30.792  58.948  1.00  0.00     0.036 A 
HETATM    9  C   UNL     1       6.354  31.038  58.215  1.00  0.00     0.066 A 
ENDROOT
BRANCH   3  10
HETATM   10  C   UNL     1       7.251  27.673  54.785  1.00  0.00     0.276 C 
HETATM   11  N   UNL     1       6.939  26.402  55.246  1.00  0.00    -0.322 N 
HETATM   12  H   UNL     1       6.233  26.303  55.967  1.00  0.00     0.169 HD
HETATM   13  O   UNL     1       8.081  27.878  53.899  1.00  0.00    -0.266 OA
BRANCH  11  14
HETATM   14  C   UNL     1       7.479  25.166  54.817  1.00  0.00     0.035 A 
HETATM   15  C   UNL     1       7.303  24.620  53.546  1.00  0.00     0.032 A 
HETATM   16  C   UNL     1       7.884  23.388  53.219  1.00  0.00     0.039 A 
HETATM   17  C   UNL     1       8.645  22.678  54.149  1.00  0.00     0.075 A 
HETATM   18  C   UNL     1       8.825  23.221  55.418  1.00  0.00     0.039 A 
HETATM   19  C   UNL     1       8.248  24.454  55.747  1.00  0.00     0.032 A 
BRANCH  17  20
HETATM   20  O   UNL     1       9.145  21.494  53.693  1.00  0.00    -0.290 OA
BRANCH  20  21
HETATM   21  C   UNL     1       8.318  20.338  53.766  1.00  0.00     0.505 C 
HETATM   22  F   UNL     1       7.493  20.432  54.837  1.00  0.00    -0.184 F 
HETATM   23  F   UNL     1       7.555  20.247  52.651  1.00  0.00    -0.184 F 
ENDBRANCH  20  21
ENDBRANCH  17  20
ENDBRANCH  11  14
ENDBRANCH   3  10
BRANCH   2  24
HETATM   24  S   UNL     1       4.253  29.063  53.850  1.00  0.00    -0.123 SA
HETATM   25  H   UNL     1       3.084  29.526  54.311  1.00  0.00     0.108 HD
ENDBRANCH   2  24
BRANCH   1  26
HETATM   26  C   UNL     1       3.959  31.261  56.348  1.00  0.00     0.177 C 
BRANCH  26  27
HETATM   27  C   UNL     1       4.328  32.614  55.825  1.00  0.00     0.001 A 
HETATM   28  S   UNL     1       4.325  32.926  54.137  1.00  0.00    -0.105 SA
HETATM   29  C   UNL     1       4.799  34.550  54.367  1.00  0.00     0.050 A 
HETATM   30  C   UNL     1       4.977  34.852  55.698  1.00  0.00     0.008 A 
HETATM   31  C   UNL     1       4.714  33.733  56.540  1.00  0.00     0.017 A 
ENDBRANCH  26  27
ENDBRANCH   1  26
BRANCH   8  32
HETATM   32  C   UNL     1       7.681  31.555  60.206  1.00  0.00     0.251 C 
HETATM   33  N   UNL     1       6.996  31.113  61.311  1.00  0.00    -0.355 N 
HETATM   34  H   UNL     1       6.479  30.245  61.290  1.00  0.00     0.162 HD
HETATM   35  O   UNL     1       8.446  32.513  60.215  1.00  0.00    -0.268 OA
BRANCH  33  36
HETATM   36  C   UNL     1       7.036  31.823  62.590  1.00  0.00     0.148 C 
BRANCH  36  37
HETATM   37  C   UNL     1       5.651  32.097  63.189  1.00  0.00     0.183 C 
BRANCH  37  38
HETATM   38  O   UNL     1       4.832  30.932  63.203  1.00  0.00    -0.399 OA
HETATM   39  H   UNL     1       4.528  30.790  64.124  1.00  0.00     0.209 HD
ENDBRANCH  37  38
ENDBRANCH  36  37
ENDBRANCH  33  36
ENDBRANCH   8  32
TORSDOF 11
ENDMDL
MODEL 2
REMARK VINA RESULT:      -8.8      5.318      8.873
REMARK  11 active torsions:
REMARK  status: ('A' for Active; 'I' for Inactive)
REMARK    1  A    between atoms: C_4  and  C_5 
REMARK    2  A    between atoms: C_5  and  N_6 
REMARK    3  A    between atoms: C_7  and  S_8 
REMARK    4  A    between atoms: C_9  and  C_10 
REMARK       I    between atoms: C_10  and  N_11 
REMARK    5  A    between atoms: N_11  and  C_12 
REMARK    6  A    between atoms: C_15  and  O_16 
REMARK    7  A    between atoms: O_16  and  C_17 
REMARK    8  A    between atoms: C_27  and  C_28 
REMARK       I    between atoms: C_28  and  N_29 
REMARK    9  A    between atoms: N_29  and  C_30 
REMARK   10  A    between atoms: C_30  and  C_31 
REMARK   11  A    between atoms: C_31  and  O_32 
ROOT
HETATM    1  N   UNL     1       6.048  27.247  55.113  1.00  0.00    -0.321 N 
HETATM    2  C   UNL     1       5.446  28.169  54.233  1.00  0.00     0.104 A 
HETATM    3  C   UNL     1       5.631  27.714  52.925  1.00  0.00     0.142 A 
HETATM    4  N   UNL     1       6.355  26.528  53.093  1.00  0.00    -0.301 N 
HETATM    5  C   UNL     1       6.574  26.262  54.376  1.00  0.00     0.116 A 
HETATM    6  C   UNL     1       6.817  25.605  52.019  1.00  0.00     0.100 A 
HETATM    7  C   UNL     1       7.491  24.468  52.453  1.00  0.00     0.035 A 
HETATM    8  C   UNL     1       7.707  24.234  53.814  1.00  0.00     0.036 A 
HETATM    9  C   UNL     1       7.251  25.126  54.789  1.00  0.00     0.066 A 
ENDROOT
BRANCH   3  10
HETATM   10  C   UNL     1       5.233  28.265  51.632  1.00  0.00     0.276 C 
HETATM   11  N   UNL     1       4.032  27.752  51.160  1.00  0.00    -0.322 N 
HETATM   12  H   UNL     1       3.518  27.099  51.742  1.00  0.00     0.169 HD
HETATM   13  O   UNL     1       5.908  29.076  50.999  1.00  0.00    -0.266 OA
BRANCH  11  14
HETATM   14  C   UNL     1       3.386  28.042  49.935  1.00  0.00     0.035 A 
HETATM   15  C   UNL     1       3.748  27.508  48.700  1.00  0.00     0.032 A 
HETATM   16  C   UNL     1       3.040  27.858  47.543  1.00  0.00     0.039 A 
HETATM   17  C   UNL     1       1.963  28.746  47.596  1.00  0.00     0.075 A 
HETATM   18  C   UNL     1       1.598  29.279  48.827  1.00  0.00     0.039 A 
HETATM   19  C   UNL     1       2.302  28.928  49.986  1.00  0.00     0.032 A 
BRANCH  17  20
HETATM   20  O   UNL     1       1.372  28.997  46.392  1.00  0.00    -0.290 OA
BRANCH  20  21
HETATM   21  C   UNL     1       0.058  28.499  46.167  1.00  0.00     0.505 C 
HETATM   22  F   UNL     1      -0.109  27.329  46.831  1.00  0.00    -0.184 F 
HETATM   23  F   UNL     1      -0.856  29.383  46.633  1.00  0.00    -0.184 F 
ENDBRANCH  20  21
ENDBRANCH  17  20
ENDBRANCH  11  14
ENDBRANCH   3  10
BRANCH   2  24
HETATM   24  S   UNL     1       4.625  29.650  54.715  1.00  0.00    -0.123 SA
HETATM   25  H   UNL     1       3.343  29.264  54.700  1.00  0.00     0.108 HD
ENDBRANCH   2  24
BRANCH   1  26
HETATM   26  C   UNL     1       6.103  27.306  56.580  1.00  0.00     0.177 C 
BRANCH  26  27
HETATM   27  C   UNL     1       7.222  28.202  57.010  1.00  0.00     0.001 A 
HETATM   28  S   UNL     1       6.891  29.715  57.750  1.00  0.00    -0.105 SA
HETATM   29  C   UNL     1       8.552  30.068  57.931  1.00  0.00     0.050 A 
HETATM   30  C   UNL     1       9.349  29.068  57.422  1.00  0.00     0.008 A 
HETATM   31  C   UNL     1       8.583  27.995  56.882  1.00  0.00     0.017 A 
ENDBRANCH  26  27
ENDBRANCH   1  26
BRANCH   8  32
HETATM   32  C   UNL     1       8.358  22.998  54.304  1.00  0.00     0.251 C 
HETATM   33  N   UNL     1       8.116  22.623  55.602  1.00  0.00    -0.355 N 
HETATM   34  H   UNL     1       7.443  23.117  56.170  1.00  0.00     0.162 HD
HETATM   35  O   UNL     1       9.043  22.349  53.521  1.00  0.00    -0.268 OA
BRANCH  33  36
HETATM   36  C   UNL     1       8.753  21.452  56.207  1.00  0.00     0.148 C 
BRANCH  36  37
HETATM   37  C   UNL     1       8.136  20.117  55.770  1.00  0.00     0.183 C 
BRANCH  37  38
HETATM   38  O   UNL     1       8.881  19.498  54.726  1.00  0.00    -0.399 OA
HETATM   39  H   UNL     1       9.079  20.183  54.053  1.00  0.00     0.209 HD
ENDBRANCH  37  38
ENDBRANCH  36  37
ENDBRANCH  33  36
ENDBRANCH   8  32
TORSDOF 11
ENDMDL
MODEL 3
REMARK VINA RESULT:      -8.3      5.008      8.121
REMARK  11 active torsions:
REMARK  status: ('A' for Active; 'I' for Inactive)
REMARK    1  A    between atoms: C_4  and  C_5 
REMARK    2  A    between atoms: C_5  and  N_6 
REMARK    3  A    between atoms: C_7  and  S_8 
REMARK    4  A    between atoms: C_9  and  C_10 
REMARK       I    between atoms: C_10  and  N_11 
REMARK    5  A    between atoms: N_11  and  C_12 
REMARK    6  A    between atoms: C_15  and  O_16 
REMARK    7  A    between atoms: O_16  and  C_17 
REMARK    8  A    between atoms: C_27  and  C_28 
REMARK       I    between atoms: C_28  and  N_29 
REMARK    9  A    between atoms: N_29  and  C_30 
REMARK   10  A    between atoms: C_30  and  C_31 
REMARK   11  A    between atoms: C_31  and  O_32 
ROOT
HETATM    1  N   UNL     1       3.994  29.226  52.272  1.00  0.00    -0.321 N 
HETATM    2  C   UNL     1       4.937  28.782  53.220  1.00  0.00     0.104 A 
HETATM    3  C   UNL     1       5.580  27.654  52.705  1.00  0.00     0.142 A 
HETATM    4  N   UNL     1       4.972  27.474  51.458  1.00  0.00    -0.301 N 
HETATM    5  C   UNL     1       4.062  28.410  51.214  1.00  0.00     0.116 A 
HETATM    6  C   UNL     1       5.284  26.416  50.457  1.00  0.00     0.100 A 
HETATM    7  C   UNL     1       4.557  26.476  49.272  1.00  0.00     0.035 A 
HETATM    8  C   UNL     1       3.601  27.475  49.064  1.00  0.00     0.036 A 
HETATM    9  C   UNL     1       3.344  28.452  50.030  1.00  0.00     0.066 A 
ENDROOT
BRANCH   3  10
HETATM   10  C   UNL     1       6.623  26.788  53.250  1.00  0.00     0.276 C 
HETATM   11  N   UNL     1       6.182  25.500  53.523  1.00  0.00    -0.322 N 
HETATM   12  H   UNL     1       5.226  25.251  53.291  1.00  0.00     0.169 HD
HETATM   13  O   UNL     1       7.772  27.164  53.480  1.00  0.00    -0.266 OA
BRANCH  11  14
HETATM   14  C   UNL     1       6.919  24.431  54.085  1.00  0.00     0.035 A 
HETATM   15  C   UNL     1       7.283  24.336  55.428  1.00  0.00     0.032 A 
HETATM   16  C   UNL     1       8.013  23.232  55.886  1.00  0.00     0.039 A 
HETATM   17  C   UNL     1       8.395  22.207  55.018  1.00  0.00     0.075 A 
HETATM   18  C   UNL     1       8.032  22.298  53.679  1.00  0.00     0.039 A 
HETATM   19  C   UNL     1       7.300  23.399  53.218  1.00  0.00     0.032 A 
BRANCH  17  20
HETATM   20  O   UNL     1       9.104  21.199  55.604  1.00  0.00    -0.290 OA
BRANCH  20  21
HETATM   21  C   UNL     1       8.423  20.321  56.492  1.00  0.00     0.505 C 
HETATM   22  F   UNL     1       8.439  20.835  57.746  1.00  0.00    -0.184 F 
HETATM   23  F   UNL     1       7.132  20.187  56.107  1.00  0.00    -0.184 F 
ENDBRANCH  20  21
ENDBRANCH  17  20
ENDBRANCH  11  14
ENDBRANCH   3  10
BRANCH   2  24
HETATM   24  S   UNL     1       5.225  29.519  54.793  1.00  0.00    -0.123 SA
HETATM   25  H   UNL     1       5.170  28.455  55.604  1.00  0.00     0.108 HD
ENDBRANCH   2  24
BRANCH   1  26
HETATM   26  C   UNL     1       3.088  30.379  52.375  1.00  0.00     0.177 C 
BRANCH  26  27
HETATM   27  C   UNL     1       3.853  31.646  52.153  1.00  0.00     0.001 A 
HETATM   28  S   UNL     1       3.828  32.896  53.329  1.00  0.00    -0.105 SA
HETATM   29  C   UNL     1       4.867  33.884  52.401  1.00  0.00     0.050 A 
HETATM   30  C   UNL     1       5.215  33.290  51.210  1.00  0.00     0.008 A 
HETATM   31  C   UNL     1       4.623  32.003  51.060  1.00  0.00     0.017 A 
ENDBRANCH  26  27
ENDBRANCH   1  26
BRANCH   8  32
HETATM   32  C   UNL     1       2.867  27.603  47.784  1.00  0.00     0.251 C 
HETATM   33  N   UNL     1       1.858  28.531  47.720  1.00  0.00    -0.355 N 
HETATM   34  H   UNL     1       1.689  29.170  48.484  1.00  0.00     0.162 HD
HETATM   35  O   UNL     1       3.219  26.909  46.837  1.00  0.00    -0.268 OA
BRANCH  33  36
HETATM   36  C   UNL     1       1.029  28.701  46.526  1.00  0.00     0.148 C 
BRANCH  36  37
HETATM   37  C   UNL     1      -0.041  27.615  46.356  1.00  0.00     0.183 C 
BRANCH  37  38
HETATM   38  O   UNL     1       0.096  26.914  45.123  1.00  0.00    -0.399 OA
HETATM   39  H   UNL     1      -0.568  27.275  44.499  1.00  0.00     0.209 HD
ENDBRANCH  37  38
ENDBRANCH  36  37
ENDBRANCH  33  36
ENDBRANCH   8  32
TORSDOF 11
ENDMDL
MODEL 4
REMARK VINA RESULT:      -8.2      1.747      2.219
REMARK  11 active torsions:
REMARK  status: ('A' for Active; 'I' for Inactive)
REMARK    1  A    between atoms: C_4  and  C_5 
REMARK    2  A    between atoms: C_5  and  N_6 
REMARK    3  A    between atoms: C_7  and  S_8 
REMARK    4  A    between atoms: C_9  and  C_10 
REMARK       I    between atoms: C_10  and  N_11 
REMARK    5  A    between atoms: N_11  and  C_12 
REMARK    6  A    between atoms: C_15  and  O_16 
REMARK    7  A    between atoms: O_16  and  C_17 
REMARK    8  A    between atoms: C_27  and  C_28 
REMARK       I    between atoms: C_28  and  N_29 
REMARK    9  A    between atoms: N_29  and  C_30 
REMARK   10  A    between atoms: C_30  and  C_31 
REMARK   11  A    between atoms: C_31  and  O_32 
ROOT
HETATM    1  N   UNL     1       5.493  30.806  56.354  1.00  0.00    -0.321 N 
HETATM    2  C   UNL     1       5.443  29.762  55.409  1.00  0.00     0.104 A 
HETATM    3  C   UNL     1       6.550  28.935  55.609  1.00  0.00     0.142 A 
HETATM    4  N   UNL     1       7.222  29.542  56.675  1.00  0.00    -0.301 N 
HETATM    5  C   UNL     1       6.582  30.622  57.109  1.00  0.00     0.116 A 
HETATM    6  C   UNL     1       8.476  29.070  57.325  1.00  0.00     0.100 A 
HETATM    7  C   UNL     1       8.924  29.838  58.396  1.00  0.00     0.035 A 
HETATM    8  C   UNL     1       8.222  30.973  58.811  1.00  0.00     0.036 A 
HETATM    9  C   UNL     1       7.045  31.377  58.175  1.00  0.00     0.066 A 
ENDROOT
BRANCH   3  10
HETATM   10  C   UNL     1       7.006  27.727  54.925  1.00  0.00     0.276 C 
HETATM   11  N   UNL     1       6.499  26.557  55.475  1.00  0.00    -0.322 N 
HETATM   12  H   UNL     1       5.842  26.624  56.246  1.00  0.00     0.169 HD
HETATM   13  O   UNL     1       7.789  27.734  53.976  1.00  0.00    -0.266 OA
BRANCH  11  14
HETATM   14  C   UNL     1       6.766  25.225  55.080  1.00  0.00     0.035 A 
HETATM   15  C   UNL     1       6.568  24.722  53.795  1.00  0.00     0.032 A 
HETATM   16  C   UNL     1       6.869  23.385  53.505  1.00  0.00     0.039 A 
HETATM   17  C   UNL     1       7.366  22.527  54.487  1.00  0.00     0.075 A 
HETATM   18  C   UNL     1       7.566  23.025  55.770  1.00  0.00     0.039 A 
HETATM   19  C   UNL     1       7.270  24.363  56.062  1.00  0.00     0.032 A 
BRANCH  17  20
HETATM   20  O   UNL     1       7.608  21.253  54.061  1.00  0.00    -0.290 OA
BRANCH  20  21
HETATM   21  C   UNL     1       8.928  20.917  53.651  1.00  0.00     0.505 C 
HETATM   22  F   UNL     1       8.888  20.272  52.460  1.00  0.00    -0.184 F 
HETATM   23  F   UNL     1       9.663  22.044  53.496  1.00  0.00    -0.184 F 
ENDBRANCH  20  21
ENDBRANCH  17  20
ENDBRANCH  11  14
ENDBRANCH   3  10
BRANCH   2  24
HETATM   24  S   UNL     1       4.201  29.563  54.176  1.00  0.00    -0.123 SA
HETATM   25  H   UNL     1       4.937  29.266  53.098  1.00  0.00     0.108 HD
ENDBRANCH   2  24
BRANCH   1  26
HETATM   26  C   UNL     1       4.539  31.911  56.527  1.00  0.00     0.177 C 
BRANCH  26  27
HETATM   27  C   UNL     1       3.999  31.901  57.923  1.00  0.00     0.001 A 
HETATM   28  S   UNL     1       3.975  33.340  58.858  1.00  0.00    -0.105 SA
HETATM   29  C   UNL     1       3.257  32.545  60.188  1.00  0.00     0.050 A 
HETATM   30  C   UNL     1       3.055  31.207  59.940  1.00  0.00     0.008 A 
HETATM   31  C   UNL     1       3.490  30.831  58.637  1.00  0.00     0.017 A 
ENDBRANCH  26  27
ENDBRANCH   1  26
BRANCH   8  32
HETATM   32  C   UNL     1       8.639  31.765  59.992  1.00  0.00     0.251 C 
HETATM   33  N   UNL     1       8.349  31.255  61.233  1.00  0.00    -0.355 N 
HETATM   34  H   UNL     1       7.954  30.331  61.337  1.00  0.00     0.162 HD
HETATM   35  O   UNL     1       9.256  32.807  59.808  1.00  0.00    -0.268 OA
BRANCH  33  36
HETATM   36  C   UNL     1       8.662  31.979  62.466  1.00  0.00     0.148 C 
BRANCH  36  37
HETATM   37  C   UNL     1       7.441  32.630  63.128  1.00  0.00     0.183 C 
BRANCH  37  38
HETATM   38  O   UNL     1       7.748  33.165  64.412  1.00  0.00    -0.399 OA
HETATM   39  H   UNL     1       8.718  33.299  64.456  1.00  0.00     0.209 HD
ENDBRANCH  37  38
ENDBRANCH  36  37
ENDBRANCH  33  36
ENDBRANCH   8  32
TORSDOF 11
ENDMDL
MODEL 5
REMARK VINA RESULT:      -8.1      1.588      2.117
REMARK  11 active torsions:
REMARK  status: ('A' for Active; 'I' for Inactive)
REMARK    1  A    between atoms: C_4  and  C_5 
REMARK    2  A    between atoms: C_5  and  N_6 
REMARK    3  A    between atoms: C_7  and  S_8 
REMARK    4  A    between atoms: C_9  and  C_10 
REMARK       I    between atoms: C_10  and  N_11 
REMARK    5  A    between atoms: N_11  and  C_12 
REMARK    6  A    between atoms: C_15  and  O_16 
REMARK    7  A    between atoms: O_16  and  C_17 
REMARK    8  A    between atoms: C_27  and  C_28 
REMARK       I    between atoms: C_28  and  N_29 
REMARK    9  A    between atoms: N_29  and  C_30 
REMARK   10  A    between atoms: C_30  and  C_31 
REMARK   11  A    between atoms: C_31  and  O_32 
ROOT
HETATM    1  N   UNL     1       4.414  30.092  54.553  1.00  0.00    -0.321 N 
HETATM    2  C   UNL     1       4.943  28.993  53.846  1.00  0.00     0.104 A 
HETATM    3  C   UNL     1       6.043  28.503  54.554  1.00  0.00     0.142 A 
HETATM    4  N   UNL     1       6.123  29.355  55.661  1.00  0.00    -0.301 N 
HETATM    5  C   UNL     1       5.154  30.264  55.654  1.00  0.00     0.116 A 
HETATM    6  C   UNL     1       7.113  29.285  56.772  1.00  0.00     0.100 A 
HETATM    7  C   UNL     1       6.954  30.233  57.778  1.00  0.00     0.035 A 
HETATM    8  C   UNL     1       5.925  31.177  57.723  1.00  0.00     0.036 A 
HETATM    9  C   UNL     1       5.014  31.203  56.663  1.00  0.00     0.066 A 
ENDROOT
BRANCH   3  10
HETATM   10  C   UNL     1       6.966  27.402  54.289  1.00  0.00     0.276 C 
HETATM   11  N   UNL     1       6.533  26.186  54.800  1.00  0.00    -0.322 N 
HETATM   12  H   UNL     1       5.628  26.142  55.257  1.00  0.00     0.169 HD
HETATM   13  O   UNL     1       8.040  27.537  53.704  1.00  0.00    -0.266 OA
BRANCH  11  14
HETATM   14  C   UNL     1       7.199  24.938  54.753  1.00  0.00     0.035 A 
HETATM   15  C   UNL     1       8.080  24.470  55.726  1.00  0.00     0.032 A 
HETATM   16  C   UNL     1       8.687  23.215  55.586  1.00  0.00     0.039 A 
HETATM   17  C   UNL     1       8.430  22.408  54.476  1.00  0.00     0.075 A 
HETATM   18  C   UNL     1       7.549  22.871  53.504  1.00  0.00     0.039 A 
HETATM   19  C   UNL     1       6.938  24.124  53.643  1.00  0.00     0.032 A 
BRANCH  17  20
HETATM   20  O   UNL     1       9.094  21.216  54.472  1.00  0.00    -0.290 OA
BRANCH  20  21
HETATM   21  C   UNL     1       8.639  20.186  55.342  1.00  0.00     0.505 C 
HETATM   22  F   UNL     1       9.381  20.182  56.476  1.00  0.00    -0.184 F 
HETATM   23  F   UNL     1       7.347  20.409  55.683  1.00  0.00    -0.184 F 
ENDBRANCH  20  21
ENDBRANCH  17  20
ENDBRANCH  11  14
ENDBRANCH   3  10
BRANCH   2  24
HETATM   24  S   UNL     1       4.324  28.370  52.320  1.00  0.00    -0.123 SA
HETATM   25  H   UNL     1       3.320  27.588  52.735  1.00  0.00     0.108 HD
ENDBRANCH   2  24
BRANCH   1  26
HETATM   26  C   UNL     1       3.254  30.919  54.194  1.00  0.00     0.177 C 
BRANCH  26  27
HETATM   27  C   UNL     1       3.701  32.092  53.377  1.00  0.00     0.001 A 
HETATM   28  S   UNL     1       3.782  33.658  54.074  1.00  0.00    -0.105 SA
HETATM   29  C   UNL     1       4.345  34.351  52.619  1.00  0.00     0.050 A 
HETATM   30  C   UNL     1       4.453  33.419  51.612  1.00  0.00     0.008 A 
HETATM   31  C   UNL     1       4.073  32.117  52.045  1.00  0.00     0.017 A 
ENDBRANCH  26  27
ENDBRANCH   1  26
BRANCH   8  32
HETATM   32  C   UNL     1       5.693  32.149  58.816  1.00  0.00     0.251 C 
HETATM   33  N   UNL     1       5.457  31.648  60.072  1.00  0.00    -0.355 N 
HETATM   34  H   UNL     1       5.536  30.658  60.262  1.00  0.00     0.162 HD
HETATM   35  O   UNL     1       5.765  33.345  58.560  1.00  0.00    -0.268 OA
BRANCH  33  36
HETATM   36  C   UNL     1       5.158  32.513  61.214  1.00  0.00     0.148 C 
BRANCH  36  37
HETATM   37  C   UNL     1       5.805  32.052  62.526  1.00  0.00     0.183 C 
BRANCH  37  38
HETATM   38  O   UNL     1       4.841  31.594  63.469  1.00  0.00    -0.399 OA
HETATM   39  H   UNL     1       5.316  31.084  64.159  1.00  0.00     0.209 HD
ENDBRANCH  37  38
ENDBRANCH  36  37
ENDBRANCH  33  36
ENDBRANCH   8  32
TORSDOF 11
ENDMDL
MODEL 6
REMARK VINA RESULT:      -7.9      4.389      5.867
REMARK  11 active torsions:
REMARK  status: ('A' for Active; 'I' for Inactive)
REMARK    1  A    between atoms: C_4  and  C_5 
REMARK    2  A    between atoms: C_5  and  N_6 
REMARK    3  A    between atoms: C_7  and  S_8 
REMARK    4  A    between atoms: C_9  and  C_10 
REMARK       I    between atoms: C_10  and  N_11 
REMARK    5  A    between atoms: N_11  and  C_12 
REMARK    6  A    between atoms: C_15  and  O_16 
REMARK    7  A    between atoms: O_16  and  C_17 
REMARK    8  A    between atoms: C_27  and  C_28 
REMARK       I    between atoms: C_28  and  N_29 
REMARK    9  A    between atoms: N_29  and  C_30 
REMARK   10  A    between atoms: C_30  and  C_31 
REMARK   11  A    between atoms: C_31  and  O_32 
ROOT
HETATM    1  N   UNL     1       6.472  28.843  56.827  1.00  0.00    -0.321 N 
HETATM    2  C   UNL     1       6.217  27.965  55.754  1.00  0.00     0.104 A 
HETATM    3  C   UNL     1       5.271  28.558  54.915  1.00  0.00     0.142 A 
HETATM    4  N   UNL     1       4.996  29.777  55.546  1.00  0.00    -0.301 N 
HETATM    5  C   UNL     1       5.719  29.934  56.649  1.00  0.00     0.116 A 
HETATM    6  C   UNL     1       4.059  30.834  55.074  1.00  0.00     0.100 A 
HETATM    7  C   UNL     1       3.992  31.975  55.869  1.00  0.00     0.035 A 
HETATM    8  C   UNL     1       4.765  32.092  57.028  1.00  0.00     0.036 A 
HETATM    9  C   UNL     1       5.636  31.075  57.430  1.00  0.00     0.066 A 
ENDROOT
BRANCH   3  10
HETATM   10  C   UNL     1       4.637  28.105  53.679  1.00  0.00     0.276 C 
HETATM   11  N   UNL     1       5.522  27.998  52.614  1.00  0.00    -0.322 N 
HETATM   12  H   UNL     1       6.505  28.186  52.775  1.00  0.00     0.169 HD
HETATM   13  O   UNL     1       3.433  27.874  53.574  1.00  0.00    -0.266 OA
BRANCH  11  14
HETATM   14  C   UNL     1       5.232  27.625  51.280  1.00  0.00     0.035 A 
HETATM   15  C   UNL     1       5.039  26.314  50.845  1.00  0.00     0.032 A 
HETATM   16  C   UNL     1       4.753  26.051  49.499  1.00  0.00     0.039 A 
HETATM   17  C   UNL     1       4.658  27.084  48.565  1.00  0.00     0.075 A 
HETATM   18  C   UNL     1       4.848  28.393  48.996  1.00  0.00     0.039 A 
HETATM   19  C   UNL     1       5.130  28.660  50.342  1.00  0.00     0.032 A 
BRANCH  17  20
HETATM   20  O   UNL     1       4.379  26.679  47.293  1.00  0.00    -0.290 OA
BRANCH  20  21
HETATM   21  C   UNL     1       3.049  26.274  46.989  1.00  0.00     0.505 C 
HETATM   22  F   UNL     1       2.973  24.921  46.977  1.00  0.00    -0.184 F 
HETATM   23  F   UNL     1       2.199  26.737  47.936  1.00  0.00    -0.184 F 
ENDBRANCH  20  21
ENDBRANCH  17  20
ENDBRANCH  11  14
ENDBRANCH   3  10
BRANCH   2  24
HETATM   24  S   UNL     1       6.957  26.382  55.535  1.00  0.00    -0.123 SA
HETATM   25  H   UNL     1       6.055  25.580  56.114  1.00  0.00     0.108 HD
ENDBRANCH   2  24
BRANCH   1  26
HETATM   26  C   UNL     1       7.397  28.645  57.951  1.00  0.00     0.177 C 
BRANCH  26  27
HETATM   27  C   UNL     1       8.714  29.284  57.642  1.00  0.00     0.001 A 
HETATM   28  S   UNL     1       9.196  30.721  58.449  1.00  0.00    -0.105 SA
HETATM   29  C   UNL     1      10.684  30.773  57.612  1.00  0.00     0.050 A 
HETATM   30  C   UNL     1      10.811  29.732  56.721  1.00  0.00     0.008 A 
HETATM   31  C   UNL     1       9.671  28.878  56.730  1.00  0.00     0.017 A 
ENDBRANCH  26  27
ENDBRANCH   1  26
BRANCH   8  32
HETATM   32  C   UNL     1       4.764  33.324  57.850  1.00  0.00     0.251 C 
HETATM   33  N   UNL     1       4.356  33.217  59.156  1.00  0.00    -0.355 N 
HETATM   34  H   UNL     1       4.159  32.315  59.568  1.00  0.00     0.162 HD
HETATM   35  O   UNL     1       5.164  34.365  57.342  1.00  0.00    -0.268 OA
BRANCH  33  36
HETATM   36  C   UNL     1       4.260  34.378  60.041  1.00  0.00     0.148 C 
BRANCH  36  37
HETATM   37  C   UNL     1       2.960  34.431  60.853  1.00  0.00     0.183 C 
BRANCH  37  38
HETATM   38  O   UNL     1       2.021  33.448  60.428  1.00  0.00    -0.399 OA
HETATM   39  H   UNL     1       1.546  33.125  61.223  1.00  0.00     0.209 HD
ENDBRANCH  37  38
ENDBRANCH  36  37
ENDBRANCH  33  36
ENDBRANCH   8  32
TORSDOF 11
ENDMDL
MODEL 7
REMARK VINA RESULT:      -7.8      5.167      9.671
REMARK  11 active torsions:
REMARK  status: ('A' for Active; 'I' for Inactive)
REMARK    1  A    between atoms: C_4  and  C_5 
REMARK    2  A    between atoms: C_5  and  N_6 
REMARK    3  A    between atoms: C_7  and  S_8 
REMARK    4  A    between atoms: C_9  and  C_10 
REMARK       I    between atoms: C_10  and  N_11 
REMARK    5  A    between atoms: N_11  and  C_12 
REMARK    6  A    between atoms: C_15  and  O_16 
REMARK    7  A    between atoms: O_16  and  C_17 
REMARK    8  A    between atoms: C_27  and  C_28 
REMARK       I    between atoms: C_28  and  N_29 
REMARK    9  A    between atoms: N_29  and  C_30 
REMARK   10  A    between atoms: C_30  and  C_31 
REMARK   11  A    between atoms: C_31  and  O_32 
ROOT
HETATM    1  N   UNL     1       4.515  30.424  56.511  1.00  0.00    -0.321 N 
HETATM    2  C   UNL     1       4.793  31.422  57.467  1.00  0.00     0.104 A 
HETATM    3  C   UNL     1       5.969  31.074  58.135  1.00  0.00     0.142 A 
HETATM    4  N   UNL     1       6.335  29.861  57.542  1.00  0.00    -0.301 N 
HETATM    5  C   UNL     1       5.485  29.505  56.584  1.00  0.00     0.116 A 
HETATM    6  C   UNL     1       7.535  29.037  57.860  1.00  0.00     0.100 A 
HETATM    7  C   UNL     1       7.690  27.884  57.097  1.00  0.00     0.035 A 
HETATM    8  C   UNL     1       6.764  27.545  56.105  1.00  0.00     0.036 A 
HETATM    9  C   UNL     1       5.654  28.351  55.838  1.00  0.00     0.066 A 
ENDROOT
BRANCH   3  10
HETATM   10  C   UNL     1       6.711  31.724  59.214  1.00  0.00     0.276 C 
HETATM   11  N   UNL     1       6.037  31.719  60.427  1.00  0.00    -0.322 N 
HETATM   12  H   UNL     1       5.142  31.246  60.487  1.00  0.00     0.169 HD
HETATM   13  O   UNL     1       7.810  32.257  59.061  1.00  0.00    -0.266 OA
BRANCH  11  14
HETATM   14  C   UNL     1       6.453  32.290  61.653  1.00  0.00     0.035 A 
HETATM   15  C   UNL     1       7.531  31.840  62.414  1.00  0.00     0.032 A 
HETATM   16  C   UNL     1       7.863  32.480  63.616  1.00  0.00     0.039 A 
HETATM   17  C   UNL     1       7.128  33.572  64.081  1.00  0.00     0.075 A 
HETATM   18  C   UNL     1       6.053  34.024  63.323  1.00  0.00     0.039 A 
HETATM   19  C   UNL     1       5.720  33.389  62.119  1.00  0.00     0.032 A 
BRANCH  17  20
HETATM   20  O   UNL     1       7.564  34.089  65.266  1.00  0.00    -0.290 OA
BRANCH  20  21
HETATM   21  C   UNL     1       6.705  34.006  66.397  1.00  0.00     0.505 C 
HETATM   22  F   UNL     1       7.414  34.230  67.530  1.00  0.00    -0.184 F 
HETATM   23  F   UNL     1       5.737  34.950  66.311  1.00  0.00    -0.184 F 
ENDBRANCH  20  21
ENDBRANCH  17  20
ENDBRANCH  11  14
ENDBRANCH   3  10
BRANCH   2  24
HETATM   24  S   UNL     1       3.804  32.846  57.770  1.00  0.00    -0.123 SA
HETATM   25  H   UNL     1       2.685  32.544  57.101  1.00  0.00     0.108 HD
ENDBRANCH   2  24
BRANCH   1  26
HETATM   26  C   UNL     1       3.385  30.366  55.573  1.00  0.00     0.177 C 
BRANCH  26  27
HETATM   27  C   UNL     1       3.751  31.052  54.295  1.00  0.00     0.001 A 
HETATM   28  S   UNL     1       3.991  30.146  52.857  1.00  0.00    -0.105 SA
HETATM   29  C   UNL     1       4.328  31.551  51.946  1.00  0.00     0.050 A 
HETATM   30  C   UNL     1       4.280  32.689  52.718  1.00  0.00     0.008 A 
HETATM   31  C   UNL     1       3.957  32.403  54.075  1.00  0.00     0.017 A 
ENDBRANCH  26  27
ENDBRANCH   1  26
BRANCH   8  32
HETATM   32  C   UNL     1       6.947  26.362  55.234  1.00  0.00     0.251 C 
HETATM   33  N   UNL     1       6.453  26.432  53.955  1.00  0.00    -0.355 N 
HETATM   34  H   UNL     1       6.068  27.293  53.592  1.00  0.00     0.162 HD
HETATM   35  O   UNL     1       7.562  25.399  55.677  1.00  0.00    -0.268 OA
BRANCH  33  36
HETATM   36  C   UNL     1       6.526  25.302  53.028  1.00  0.00     0.148 C 
BRANCH  36  37
HETATM   37  C   UNL     1       5.154  24.784  52.576  1.00  0.00     0.183 C 
BRANCH  37  38
HETATM   38  O   UNL     1       4.083  25.470  53.217  1.00  0.00    -0.399 OA
HETATM   39  H   UNL     1       4.233  25.420  54.184  1.00  0.00     0.209 HD
ENDBRANCH  37  38
ENDBRANCH  36  37
ENDBRANCH  33  36
ENDBRANCH   8  32
TORSDOF 11
ENDMDL
MODEL 8
REMARK VINA RESULT:      -7.7      3.381      5.154
REMARK  11 active torsions:
REMARK  status: ('A' for Active; 'I' for Inactive)
REMARK    1  A    between atoms: C_4  and  C_5 
REMARK    2  A    between atoms: C_5  and  N_6 
REMARK    3  A    between atoms: C_7  and  S_8 
REMARK    4  A    between atoms: C_9  and  C_10 
REMARK       I    between atoms: C_10  and  N_11 
REMARK    5  A    between atoms: N_11  and  C_12 
REMARK    6  A    between atoms: C_15  and  O_16 
REMARK    7  A    between atoms: O_16  and  C_17 
REMARK    8  A    between atoms: C_27  and  C_28 
REMARK       I    between atoms: C_28  and  N_29 
REMARK    9  A    between atoms: N_29  and  C_30 
REMARK   10  A    between atoms: C_30  and  C_31 
REMARK   11  A    between atoms: C_31  and  O_32 
ROOT
HETATM    1  N   UNL     1       6.440  31.708  58.386  1.00  0.00    -0.321 N 
HETATM    2  C   UNL     1       7.376  30.659  58.284  1.00  0.00     0.104 A 
HETATM    3  C   UNL     1       6.993  29.830  57.227  1.00  0.00     0.142 A 
HETATM    4  N   UNL     1       5.823  30.431  56.750  1.00  0.00    -0.301 N 
HETATM    5  C   UNL     1       5.525  31.535  57.426  1.00  0.00     0.116 A 
HETATM    6  C   UNL     1       4.987  29.973  55.604  1.00  0.00     0.100 A 
HETATM    7  C   UNL     1       3.886  30.771  55.308  1.00  0.00     0.035 A 
HETATM    8  C   UNL     1       3.607  31.920  56.054  1.00  0.00     0.036 A 
HETATM    9  C   UNL     1       4.422  32.315  57.119  1.00  0.00     0.066 A 
ENDROOT
BRANCH   3  10
HETATM   10  C   UNL     1       7.576  28.606  56.681  1.00  0.00     0.276 C 
HETATM   11  N   UNL     1       6.980  27.449  57.164  1.00  0.00    -0.322 N 
HETATM   12  H   UNL     1       6.189  27.533  57.794  1.00  0.00     0.169 HD
HETATM   13  O   UNL     1       8.525  28.592  55.898  1.00  0.00    -0.266 OA
BRANCH  11  14
HETATM   14  C   UNL     1       7.324  26.108  56.871  1.00  0.00     0.035 A 
HETATM   15  C   UNL     1       6.662  25.302  55.945  1.00  0.00     0.032 A 
HETATM   16  C   UNL     1       7.085  23.985  55.725  1.00  0.00     0.039 A 
HETATM   17  C   UNL     1       8.168  23.447  56.424  1.00  0.00     0.075 A 
HETATM   18  C   UNL     1       8.831  24.249  57.347  1.00  0.00     0.039 A 
HETATM   19  C   UNL     1       8.413  25.568  57.567  1.00  0.00     0.032 A 
BRANCH  17  20
HETATM   20  O   UNL     1       8.462  22.153  56.110  1.00  0.00    -0.290 OA
BRANCH  20  21
HETATM   21  C   UNL     1       7.804  21.561  54.996  1.00  0.00     0.505 C 
HETATM   22  F   UNL     1       8.646  21.519  53.935  1.00  0.00    -0.184 F 
HETATM   23  F   UNL     1       7.442  20.290  55.297  1.00  0.00    -0.184 F 
ENDBRANCH  20  21
ENDBRANCH  17  20
ENDBRANCH  11  14
ENDBRANCH   3  10
BRANCH   2  24
HETATM   24  S   UNL     1       8.772  30.433  59.332  1.00  0.00    -0.123 SA
HETATM   25  H   UNL     1       8.192  30.032  60.471  1.00  0.00     0.108 HD
ENDBRANCH   2  24
BRANCH   1  26
HETATM   26  C   UNL     1       6.436  32.820  59.347  1.00  0.00     0.177 C 
BRANCH  26  27
HETATM   27  C   UNL     1       5.733  32.404  60.601  1.00  0.00     0.001 A 
HETATM   28  S   UNL     1       6.629  31.984  62.003  1.00  0.00    -0.105 SA
HETATM   29  C   UNL     1       5.209  31.679  62.902  1.00  0.00     0.050 A 
HETATM   30  C   UNL     1       4.073  31.873  62.152  1.00  0.00     0.008 A 
HETATM   31  C   UNL     1       4.373  32.282  60.821  1.00  0.00     0.017 A 
ENDBRANCH  26  27
ENDBRANCH   1  26
BRANCH   8  32
HETATM   32  C   UNL     1       2.484  32.823  55.713  1.00  0.00     0.251 C 
HETATM   33  N   UNL     1       2.752  34.166  55.622  1.00  0.00    -0.355 N 
HETATM   34  H   UNL     1       3.699  34.513  55.690  1.00  0.00     0.162 HD
HETATM   35  O   UNL     1       1.385  32.328  55.486  1.00  0.00    -0.268 OA
BRANCH  33  36
HETATM   36  C   UNL     1       1.708  35.154  55.349  1.00  0.00     0.148 C 
BRANCH  36  37
HETATM   37  C   UNL     1       0.876  35.532  56.581  1.00  0.00     0.183 C 
BRANCH  37  38
HETATM   38  O   UNL     1      -0.300  34.738  56.700  1.00  0.00    -0.399 OA
HETATM   39  H   UNL     1      -0.108  33.859  56.312  1.00  0.00     0.209 HD
ENDBRANCH  37  38
ENDBRANCH  36  37
ENDBRANCH  33  36
ENDBRANCH   8  32
TORSDOF 11
ENDMDL
MODEL 9
REMARK VINA RESULT:      -7.6      7.937     10.784
REMARK  11 active torsions:
REMARK  status: ('A' for Active; 'I' for Inactive)
REMARK    1  A    between atoms: C_4  and  C_5 
REMARK    2  A    between atoms: C_5  and  N_6 
REMARK    3  A    between atoms: C_7  and  S_8 
REMARK    4  A    between atoms: C_9  and  C_10 
REMARK       I    between atoms: C_10  and  N_11 
REMARK    5  A    between atoms: N_11  and  C_12 
REMARK    6  A    between atoms: C_15  and  O_16 
REMARK    7  A    between atoms: O_16  and  C_17 
REMARK    8  A    between atoms: C_27  and  C_28 
REMARK       I    between atoms: C_28  and  N_29 
REMARK    9  A    between atoms: N_29  and  C_30 
REMARK   10  A    between atoms: C_30  and  C_31 
REMARK   11  A    between atoms: C_31  and  O_32 
ROOT
HETATM    1  N   UNL     1       3.117  30.071  48.473  1.00  0.00    -0.321 N 
HETATM    2  C   UNL     1       4.108  29.394  49.211  1.00  0.00     0.104 A 
HETATM    3  C   UNL     1       3.877  28.021  49.101  1.00  0.00     0.142 A 
HETATM    4  N   UNL     1       2.734  27.947  48.298  1.00  0.00    -0.301 N 
HETATM    5  C   UNL     1       2.315  29.151  47.925  1.00  0.00     0.116 A 
HETATM    6  C   UNL     1       2.045  26.708  47.839  1.00  0.00     0.100 A 
HETATM    7  C   UNL     1       0.942  26.906  47.013  1.00  0.00     0.035 A 
HETATM    8  C   UNL     1       0.532  28.194  46.655  1.00  0.00     0.036 A 
HETATM    9  C   UNL     1       1.212  29.328  47.106  1.00  0.00     0.066 A 
ENDROOT
BRANCH   3  10
HETATM   10  C   UNL     1       4.573  26.863  49.659  1.00  0.00     0.276 C 
HETATM   11  N   UNL     1       4.813  26.969  51.023  1.00  0.00    -0.322 N 
HETATM   12  H   UNL     1       4.463  27.782  51.519  1.00  0.00     0.169 HD
HETATM   13  O   UNL     1       4.944  25.902  48.988  1.00  0.00    -0.266 OA
BRANCH  11  14
HETATM   14  C   UNL     1       5.490  26.050  51.859  1.00  0.00     0.035 A 
HETATM   15  C   UNL     1       6.798  25.609  51.660  1.00  0.00     0.032 A 
HETATM   16  C   UNL     1       7.379  24.698  52.550  1.00  0.00     0.039 A 
HETATM   17  C   UNL     1       6.671  24.207  53.649  1.00  0.00     0.075 A 
HETATM   18  C   UNL     1       5.367  24.647  53.851  1.00  0.00     0.039 A 
HETATM   19  C   UNL     1       4.783  25.561  52.965  1.00  0.00     0.032 A 
BRANCH  17  20
HETATM   20  O   UNL     1       7.362  23.325  54.425  1.00  0.00    -0.290 OA
BRANCH  20  21
HETATM   21  C   UNL     1       8.233  22.400  53.786  1.00  0.00     0.505 C 
HETATM   22  F   UNL     1       9.040  21.818  54.706  1.00  0.00    -0.184 F 
HETATM   23  F   UNL     1       7.509  21.426  53.183  1.00  0.00    -0.184 F 
ENDBRANCH  20  21
ENDBRANCH  17  20
ENDBRANCH  11  14
ENDBRANCH   3  10
BRANCH   2  24
HETATM   24  S   UNL     1       5.398  30.164  50.129  1.00  0.00    -0.123 SA
HETATM   25  H   UNL     1       5.038  31.452  50.072  1.00  0.00     0.108 HD
ENDBRANCH   2  24
BRANCH   1  26
HETATM   26  C   UNL     1       2.959  31.521  48.296  1.00  0.00     0.177 C 
BRANCH  26  27
HETATM   27  C   UNL     1       3.905  32.009  47.243  1.00  0.00     0.001 A 
HETATM   28  S   UNL     1       5.084  33.199  47.616  1.00  0.00    -0.105 SA
HETATM   29  C   UNL     1       5.702  33.184  46.024  1.00  0.00     0.050 A 
HETATM   30  C   UNL     1       5.017  32.307  45.214  1.00  0.00     0.008 A 
HETATM   31  C   UNL     1       3.974  31.636  45.913  1.00  0.00     0.017 A 
ENDBRANCH  26  27
ENDBRANCH   1  26
BRANCH   8  32
HETATM   32  C   UNL     1      -0.594  28.426  45.721  1.00  0.00     0.251 C 
HETATM   33  N   UNL     1      -0.335  29.146  44.581  1.00  0.00    -0.355 N 
HETATM   34  H   UNL     1       0.607  29.422  44.342  1.00  0.00     0.162 HD
HETATM   35  O   UNL     1      -1.684  27.933  45.985  1.00  0.00    -0.268 OA
BRANCH  33  36
HETATM   36  C   UNL     1      -1.383  29.485  43.618  1.00  0.00     0.148 C 
BRANCH  36  37
HETATM   37  C   UNL     1      -1.473  28.515  42.433  1.00  0.00     0.183 C 
BRANCH  37  38
HETATM   38  O   UNL     1      -1.875  27.209  42.837  1.00  0.00    -0.399 OA
HETATM   39  H   UNL     1      -2.852  27.211  42.923  1.00  0.00     0.209 HD
ENDBRANCH  37  38
ENDBRANCH  36  37
ENDBRANCH  33  36
ENDBRANCH   8  32
TORSDOF 11
ENDMDL
MODEL 10
REMARK VINA RESULT:      -7.6      5.113     10.238
REMARK  11 active torsions:
REMARK  status: ('A' for Active; 'I' for Inactive)
REMARK    1  A    between atoms: C_4  and  C_5 
REMARK    2  A    between atoms: C_5  and  N_6 
REMARK    3  A    between atoms: C_7  and  S_8 
REMARK    4  A    between atoms: C_9  and  C_10 
REMARK       I    between atoms: C_10  and  N_11 
REMARK    5  A    between atoms: N_11  and  C_12 
REMARK    6  A    between atoms: C_15  and  O_16 
REMARK    7  A    between atoms: O_16  and  C_17 
REMARK    8  A    between atoms: C_27  and  C_28 
REMARK       I    between atoms: C_28  and  N_29 
REMARK    9  A    between atoms: N_29  and  C_30 
REMARK   10  A    between atoms: C_30  and  C_31 
REMARK   11  A    between atoms: C_31  and  O_32 
ROOT
HETATM    1  N   UNL     1       7.055  28.078  54.357  1.00  0.00    -0.321 N 
HETATM    2  C   UNL     1       7.176  28.475  55.704  1.00  0.00     0.104 A 
HETATM    3  C   UNL     1       6.063  29.250  56.036  1.00  0.00     0.142 A 
HETATM    4  N   UNL     1       5.326  29.286  54.847  1.00  0.00    -0.301 N 
HETATM    5  C   UNL     1       5.910  28.582  53.884  1.00  0.00     0.116 A 
HETATM    6  C   UNL     1       4.020  29.968  54.627  1.00  0.00     0.100 A 
HETATM    7  C   UNL     1       3.473  29.822  53.356  1.00  0.00     0.035 A 
HETATM    8  C   UNL     1       4.130  29.080  52.370  1.00  0.00     0.036 A 
HETATM    9  C   UNL     1       5.352  28.452  52.623  1.00  0.00     0.066 A 
ENDROOT
BRANCH   3  10
HETATM   10  C   UNL     1       5.672  29.924  57.273  1.00  0.00     0.276 C 
HETATM   11  N   UNL     1       6.669  30.736  57.796  1.00  0.00    -0.322 N 
HETATM   12  H   UNL     1       7.538  30.836  57.283  1.00  0.00     0.169 HD
HETATM   13  O   UNL     1       4.582  29.765  57.821  1.00  0.00    -0.266 OA
BRANCH  11  14
HETATM   14  C   UNL     1       6.633  31.495  58.990  1.00  0.00     0.035 A 
HETATM   15  C   UNL     1       5.637  32.414  59.317  1.00  0.00     0.032 A 
HETATM   16  C   UNL     1       5.692  33.114  60.530  1.00  0.00     0.039 A 
HETATM   17  C   UNL     1       6.737  32.913  61.433  1.00  0.00     0.075 A 
HETATM   18  C   UNL     1       7.731  31.995  61.111  1.00  0.00     0.039 A 
HETATM   19  C   UNL     1       7.678  31.291  59.901  1.00  0.00     0.032 A 
BRANCH  17  20
HETATM   20  O   UNL     1       6.661  33.666  62.569  1.00  0.00    -0.290 OA
BRANCH  20  21
HETATM   21  C   UNL     1       6.972  33.047  63.812  1.00  0.00     0.505 C 
HETATM   22  F   UNL     1       8.262  33.301  64.141  1.00  0.00    -0.184 F 
HETATM   23  F   UNL     1       6.179  33.552  64.788  1.00  0.00    -0.184 F 
ENDBRANCH  20  21
ENDBRANCH  17  20
ENDBRANCH  11  14
ENDBRANCH   3  10
BRANCH   2  24
HETATM   24  S   UNL     1       8.521  28.072  56.768  1.00  0.00    -0.123 SA
HETATM   25  H   UNL     1       9.572  28.436  56.023  1.00  0.00     0.108 HD
ENDBRANCH   2  24
BRANCH   1  26
HETATM   26  C   UNL     1       7.984  27.250  53.576  1.00  0.00     0.177 C 
BRANCH  26  27
HETATM   27  C   UNL     1       7.564  25.815  53.643  1.00  0.00     0.001 A 
HETATM   28  S   UNL     1       7.093  24.979  52.220  1.00  0.00    -0.105 SA
HETATM   29  C   UNL     1       6.811  23.532  53.082  1.00  0.00     0.050 A 
HETATM   30  C   UNL     1       7.050  23.680  54.429  1.00  0.00     0.008 A 
HETATM   31  C   UNL     1       7.475  24.999  54.756  1.00  0.00     0.017 A 
ENDBRANCH  26  27
ENDBRANCH   1  26
BRANCH   8  32
HETATM   32  C   UNL     1       3.534  28.851  51.034  1.00  0.00     0.251 C 
HETATM   33  N   UNL     1       3.884  27.702  50.369  1.00  0.00    -0.355 N 
HETATM   34  H   UNL     1       4.450  26.994  50.816  1.00  0.00     0.162 HD
HETATM   35  O   UNL     1       2.729  29.670  50.605  1.00  0.00    -0.268 OA
BRANCH  33  36
HETATM   36  C   UNL     1       3.402  27.403  49.020  1.00  0.00     0.148 C 
BRANCH  36  37
HETATM   37  C   UNL     1       4.136  26.237  48.346  1.00  0.00     0.183 C 
BRANCH  37  38
HETATM   38  O   UNL     1       5.274  26.673  47.609  1.00  0.00    -0.399 OA
HETATM   39  H   UNL     1       5.542  27.547  47.963  1.00  0.00     0.209 HD
ENDBRANCH  37  38
ENDBRANCH  36  37
ENDBRANCH  33  36
ENDBRANCH   8  32
TORSDOF 11
ENDMDL
