MODEL 1
REMARK VINA RESULT:      -9.4      0.000      0.000
REMARK  9 active torsions:
REMARK  status: ('A' for Active; 'I' for Inactive)
REMARK    1  A    between atoms: C_3  and  O_4 
REMARK    2  A    between atoms: O_4  and  C_5 
REMARK    3  A    between atoms: C_5  and  C_6 
REMARK    4  A    between atoms: N_7  and  C_8 
REMARK    5  A    between atoms: C_14  and  S_15 
REMARK    6  A    between atoms: S_15  and  C_16 
REMARK    7  A    between atoms: C_16  and  C_17 
REMARK       I    between atoms: C_17  and  N_18 
REMARK    8  A    between atoms: N_18  and  C_19 
REMARK    9  A    between atoms: C_19  and  C_20 
ROOT
HETATM    1  C   UNL     1       8.043  25.342  56.713  1.00  0.00     0.160 A 
HETATM    2  N   UNL     1       7.149  26.107  55.963  1.00  0.00    -0.274 N 
HETATM    3  C   UNL     1       6.840  27.158  56.814  1.00  0.00     0.196 A 
HETATM    4  N   UNL     1       7.500  27.054  57.942  1.00  0.00    -0.122 NA
HETATM    5  N   UNL     1       8.241  25.915  57.888  1.00  0.00    -0.131 NA
ENDROOT
BRANCH   3   6
HETATM    6  S   UNL     1       5.526  28.281  56.633  1.00  0.00    -0.081 SA
BRANCH   6   7
HETATM    7  C   UNL     1       6.453  29.837  56.509  1.00  0.00     0.185 C 
BRANCH   7   8
HETATM    8  C   UNL     1       6.731  30.523  57.840  1.00  0.00     0.227 C 
HETATM    9  N   UNL     1       7.887  30.165  58.490  1.00  0.00    -0.360 N 
HETATM   10  H   UNL     1       8.504  29.477  58.063  1.00  0.00     0.162 HD
HETATM   11  O   UNL     1       5.900  31.279  58.343  1.00  0.00    -0.273 OA
BRANCH   9  12
HETATM   12  C   UNL     1       8.188  30.554  59.850  1.00  0.00     0.126 C 
BRANCH  12  13
HETATM   13  C   UNL     1       9.035  31.836  59.912  1.00  0.00    -0.005 C 
HETATM   14  C   UNL     1       9.697  32.019  61.280  1.00  0.00     0.011 C 
HETATM   15  C   UNL     1      10.102  31.809  58.817  1.00  0.00     0.011 C 
ENDBRANCH  12  13
ENDBRANCH   9  12
ENDBRANCH   7   8
ENDBRANCH   6   7
ENDBRANCH   3   6
BRANCH   2  16
HETATM   16  C   UNL     1       6.647  25.864  54.654  1.00  0.00     0.043 A 
HETATM   17  C   UNL     1       5.395  25.267  54.465  1.00  0.00     0.030 A 
HETATM   18  C   UNL     1       4.913  25.040  53.172  1.00  0.00     0.002 A 
HETATM   19  C   UNL     1       5.674  25.409  52.064  1.00  0.00     0.000 A 
HETATM   20  C   UNL     1       6.919  26.005  52.246  1.00  0.00     0.002 A 
HETATM   21  C   UNL     1       7.406  26.233  53.535  1.00  0.00     0.030 A 
ENDBRANCH   2  16
BRANCH   1  22
HETATM   22  C   UNL     1       8.763  24.114  56.274  1.00  0.00     0.256 C 
BRANCH  22  23
HETATM   23  O   UNL     1       7.800  23.078  56.123  1.00  0.00    -0.343 OA
BRANCH  23  24
HETATM   24  C   UNL     1       7.971  22.236  55.055  1.00  0.00     0.075 A 
HETATM   25  C   UNL     1       8.457  20.950  55.352  1.00  0.00    -0.029 A 
HETATM   26  C   UNL     1       8.702  20.508  56.768  1.00  0.00     0.051 C 
HETATM   27  C   UNL     1       8.643  20.028  54.310  1.00  0.00     0.009 A 
HETATM   28  C   UNL     1       8.384  20.387  52.988  1.00  0.00     0.001 A 
HETATM   29  C   UNL     1       7.929  21.668  52.695  1.00  0.00     0.003 A 
HETATM   30  C   UNL     1       7.724  22.590  53.723  1.00  0.00     0.037 A 
ENDBRANCH  23  24
ENDBRANCH  22  23
ENDBRANCH   1  22
TORSDOF 9
ENDMDL
MODEL 2
REMARK VINA RESULT:      -9.3      0.838      1.365
REMARK  9 active torsions:
REMARK  status: ('A' for Active; 'I' for Inactive)
REMARK    1  A    between atoms: C_3  and  O_4 
REMARK    2  A    between atoms: O_4  and  C_5 
REMARK    3  A    between atoms: C_5  and  C_6 
REMARK    4  A    between atoms: N_7  and  C_8 
REMARK    5  A    between atoms: C_14  and  S_15 
REMARK    6  A    between atoms: S_15  and  C_16 
REMARK    7  A    between atoms: C_16  and  C_17 
REMARK       I    between atoms: C_17  and  N_18 
REMARK    8  A    between atoms: N_18  and  C_19 
REMARK    9  A    between atoms: C_19  and  C_20 
ROOT
HETATM    1  C   UNL     1       7.628  25.311  56.931  1.00  0.00     0.160 A 
HETATM    2  N   UNL     1       7.261  26.214  55.933  1.00  0.00    -0.274 N 
HETATM    3  C   UNL     1       7.521  27.448  56.510  1.00  0.00     0.196 A 
HETATM    4  N   UNL     1       8.019  27.304  57.714  1.00  0.00    -0.122 NA
HETATM    5  N   UNL     1       8.075  25.973  57.985  1.00  0.00    -0.131 NA
ENDROOT
BRANCH   3   6
HETATM    6  S   UNL     1       6.967  28.992  55.937  1.00  0.00    -0.081 SA
BRANCH   6   7
HETATM    7  C   UNL     1       6.261  29.664  57.469  1.00  0.00     0.185 C 
BRANCH   7   8
HETATM    8  C   UNL     1       7.142  30.675  58.190  1.00  0.00     0.227 C 
HETATM    9  N   UNL     1       8.248  30.181  58.836  1.00  0.00    -0.360 N 
HETATM   10  H   UNL     1       8.437  29.181  58.803  1.00  0.00     0.162 HD
HETATM   11  O   UNL     1       6.808  31.858  58.266  1.00  0.00    -0.273 OA
BRANCH   9  12
HETATM   12  C   UNL     1       9.060  30.967  59.740  1.00  0.00     0.126 C 
BRANCH  12  13
HETATM   13  C   UNL     1       8.534  30.914  61.184  1.00  0.00    -0.005 C 
HETATM   14  C   UNL     1       9.524  30.228  62.129  1.00  0.00     0.011 C 
HETATM   15  C   UNL     1       8.234  32.329  61.682  1.00  0.00     0.011 C 
ENDBRANCH  12  13
ENDBRANCH   9  12
ENDBRANCH   7   8
ENDBRANCH   6   7
ENDBRANCH   3   6
BRANCH   2  16
HETATM   16  C   UNL     1       6.724  25.947  54.643  1.00  0.00     0.043 A 
HETATM   17  C   UNL     1       7.436  26.285  53.485  1.00  0.00     0.030 A 
HETATM   18  C   UNL     1       6.897  26.011  52.224  1.00  0.00     0.002 A 
HETATM   19  C   UNL     1       5.651  25.397  52.111  1.00  0.00     0.000 A 
HETATM   20  C   UNL     1       4.940  25.057  53.258  1.00  0.00     0.002 A 
HETATM   21  C   UNL     1       5.472  25.330  54.520  1.00  0.00     0.030 A 
ENDBRANCH   2  16
BRANCH   1  22
HETATM   22  C   UNL     1       7.626  23.824  56.844  1.00  0.00     0.256 C 
BRANCH  22  23
HETATM   23  O   UNL     1       8.749  23.435  56.061  1.00  0.00    -0.343 OA
BRANCH  23  24
HETATM   24  C   UNL     1       8.509  22.540  55.051  1.00  0.00     0.075 A 
HETATM   25  C   UNL     1       8.546  21.180  55.408  1.00  0.00    -0.029 A 
HETATM   26  C   UNL     1       8.762  20.743  56.830  1.00  0.00     0.051 C 
HETATM   27  C   UNL     1       8.294  20.205  54.428  1.00  0.00     0.009 A 
HETATM   28  C   UNL     1       8.046  20.573  53.107  1.00  0.00     0.001 A 
HETATM   29  C   UNL     1       8.037  21.918  52.753  1.00  0.00     0.003 A 
HETATM   30  C   UNL     1       8.269  22.898  53.720  1.00  0.00     0.037 A 
ENDBRANCH  23  24
ENDBRANCH  22  23
ENDBRANCH   1  22
TORSDOF 9
ENDMDL
MODEL 3
REMARK VINA RESULT:      -9.2      1.882      2.634
REMARK  9 active torsions:
REMARK  status: ('A' for Active; 'I' for Inactive)
REMARK    1  A    between atoms: C_3  and  O_4 
REMARK    2  A    between atoms: O_4  and  C_5 
REMARK    3  A    between atoms: C_5  and  C_6 
REMARK    4  A    between atoms: N_7  and  C_8 
REMARK    5  A    between atoms: C_14  and  S_15 
REMARK    6  A    between atoms: S_15  and  C_16 
REMARK    7  A    between atoms: C_16  and  C_17 
REMARK       I    between atoms: C_17  and  N_18 
REMARK    8  A    between atoms: N_18  and  C_19 
REMARK    9  A    between atoms: C_19  and  C_20 
ROOT
HETATM    1  C   UNL     1       7.053  25.986  56.793  1.00  0.00     0.160 A 
HETATM    2  N   UNL     1       6.789  27.257  56.283  1.00  0.00    -0.274 N 
HETATM    3  C   UNL     1       7.313  28.102  57.250  1.00  0.00     0.196 A 
HETATM    4  N   UNL     1       7.860  27.414  58.223  1.00  0.00    -0.122 NA
HETATM    5  N   UNL     1       7.688  26.094  57.948  1.00  0.00    -0.131 NA
ENDROOT
BRANCH   3   6
HETATM    6  S   UNL     1       7.015  29.807  57.402  1.00  0.00    -0.081 SA
BRANCH   6   7
HETATM    7  C   UNL     1       8.643  30.362  57.985  1.00  0.00     0.185 C 
BRANCH   7   8
HETATM    8  C   UNL     1       8.604  31.357  59.138  1.00  0.00     0.227 C 
HETATM    9  N   UNL     1       7.714  31.095  60.150  1.00  0.00    -0.360 N 
HETATM   10  H   UNL     1       7.133  30.260  60.097  1.00  0.00     0.162 HD
HETATM   11  O   UNL     1       9.269  32.392  59.097  1.00  0.00    -0.273 OA
BRANCH   9  12
HETATM   12  C   UNL     1       7.399  32.041  61.198  1.00  0.00     0.126 C 
BRANCH  12  13
HETATM   13  C   UNL     1       8.414  31.986  62.352  1.00  0.00    -0.005 C 
HETATM   14  C   UNL     1       7.877  32.658  63.618  1.00  0.00     0.011 C 
HETATM   15  C   UNL     1       8.785  30.533  62.651  1.00  0.00     0.011 C 
ENDBRANCH  12  13
ENDBRANCH   9  12
ENDBRANCH   7   8
ENDBRANCH   6   7
ENDBRANCH   3   6
BRANCH   2  16
HETATM   16  C   UNL     1       6.122  27.614  55.078  1.00  0.00     0.043 A 
HETATM   17  C   UNL     1       6.818  27.681  53.865  1.00  0.00     0.030 A 
HETATM   18  C   UNL     1       6.147  28.027  52.688  1.00  0.00     0.002 A 
HETATM   19  C   UNL     1       4.782  28.306  52.714  1.00  0.00     0.000 A 
HETATM   20  C   UNL     1       4.084  28.239  53.917  1.00  0.00     0.002 A 
HETATM   21  C   UNL     1       4.749  27.895  55.096  1.00  0.00     0.030 A 
ENDBRANCH   2  16
BRANCH   1  22
HETATM   22  C   UNL     1       6.770  24.678  56.138  1.00  0.00     0.256 C 
BRANCH  22  23
HETATM   23  O   UNL     1       7.937  24.290  55.422  1.00  0.00    -0.343 OA
BRANCH  23  24
HETATM   24  C   UNL     1       7.937  23.026  54.892  1.00  0.00     0.075 A 
HETATM   25  C   UNL     1       7.897  22.943  53.489  1.00  0.00    -0.029 A 
HETATM   26  C   UNL     1       7.926  24.173  52.625  1.00  0.00     0.051 C 
HETATM   27  C   UNL     1       7.911  21.680  52.875  1.00  0.00     0.009 A 
HETATM   28  C   UNL     1       7.928  20.516  53.643  1.00  0.00     0.001 A 
HETATM   29  C   UNL     1       7.941  20.603  55.030  1.00  0.00     0.003 A 
HETATM   30  C   UNL     1       7.945  21.852  55.654  1.00  0.00     0.037 A 
ENDBRANCH  23  24
ENDBRANCH  22  23
ENDBRANCH   1  22
TORSDOF 9
ENDMDL
MODEL 4
REMARK VINA RESULT:      -8.9      2.112      4.079
REMARK  9 active torsions:
REMARK  status: ('A' for Active; 'I' for Inactive)
REMARK    1  A    between atoms: C_3  and  O_4 
REMARK    2  A    between atoms: O_4  and  C_5 
REMARK    3  A    between atoms: C_5  and  C_6 
REMARK    4  A    between atoms: N_7  and  C_8 
REMARK    5  A    between atoms: C_14  and  S_15 
REMARK    6  A    between atoms: S_15  and  C_16 
REMARK    7  A    between atoms: C_16  and  C_17 
REMARK       I    between atoms: C_17  and  N_18 
REMARK    8  A    between atoms: N_18  and  C_19 
REMARK    9  A    between atoms: C_19  and  C_20 
ROOT
HETATM    1  C   UNL     1       6.431  27.148  56.332  1.00  0.00     0.160 A 
HETATM    2  N   UNL     1       6.782  28.471  56.602  1.00  0.00    -0.274 N 
HETATM    3  C   UNL     1       5.560  29.125  56.623  1.00  0.00     0.196 A 
HETATM    4  N   UNL     1       4.576  28.282  56.419  1.00  0.00    -0.122 NA
HETATM    5  N   UNL     1       5.117  27.050  56.224  1.00  0.00    -0.131 NA
ENDROOT
BRANCH   3   6
HETATM    6  S   UNL     1       5.307  30.843  56.565  1.00  0.00    -0.081 SA
BRANCH   6   7
HETATM    7  C   UNL     1       4.912  31.165  58.308  1.00  0.00     0.185 C 
BRANCH   7   8
HETATM    8  C   UNL     1       6.004  31.881  59.090  1.00  0.00     0.227 C 
HETATM    9  N   UNL     1       5.838  31.962  60.450  1.00  0.00    -0.360 N 
HETATM   10  H   UNL     1       5.013  31.543  60.876  1.00  0.00     0.162 HD
HETATM   11  O   UNL     1       6.930  32.443  58.505  1.00  0.00    -0.273 OA
BRANCH   9  12
HETATM   12  C   UNL     1       6.662  32.788  61.305  1.00  0.00     0.126 C 
BRANCH  12  13
HETATM   13  C   UNL     1       7.767  31.977  62.003  1.00  0.00    -0.005 C 
HETATM   14  C   UNL     1       9.100  32.063  61.253  1.00  0.00     0.011 C 
HETATM   15  C   UNL     1       7.946  32.468  63.440  1.00  0.00     0.011 C 
ENDBRANCH  12  13
ENDBRANCH   9  12
ENDBRANCH   7   8
ENDBRANCH   6   7
ENDBRANCH   3   6
BRANCH   2  16
HETATM   16  C   UNL     1       8.077  29.030  56.785  1.00  0.00     0.043 A 
HETATM   17  C   UNL     1       8.939  29.217  55.697  1.00  0.00     0.030 A 
HETATM   18  C   UNL     1      10.207  29.774  55.893  1.00  0.00     0.002 A 
HETATM   19  C   UNL     1      10.620  30.148  57.170  1.00  0.00     0.000 A 
HETATM   20  C   UNL     1       9.767  29.966  58.255  1.00  0.00     0.002 A 
HETATM   21  C   UNL     1       8.501  29.409  58.067  1.00  0.00     0.030 A 
ENDBRANCH   2  16
BRANCH   1  22
HETATM   22  C   UNL     1       7.344  25.973  56.259  1.00  0.00     0.256 C 
BRANCH  22  23
HETATM   23  O   UNL     1       7.498  25.627  54.887  1.00  0.00    -0.343 OA
BRANCH  23  24
HETATM   24  C   UNL     1       7.624  24.292  54.603  1.00  0.00     0.075 A 
HETATM   25  C   UNL     1       7.789  23.962  53.246  1.00  0.00    -0.029 A 
HETATM   26  C   UNL     1       7.896  25.020  52.184  1.00  0.00     0.051 C 
HETATM   27  C   UNL     1       7.941  22.614  52.881  1.00  0.00     0.009 A 
HETATM   28  C   UNL     1       7.891  21.607  53.844  1.00  0.00     0.001 A 
HETATM   29  C   UNL     1       7.700  21.936  55.181  1.00  0.00     0.003 A 
HETATM   30  C   UNL     1       7.566  23.273  55.561  1.00  0.00     0.037 A 
ENDBRANCH  23  24
ENDBRANCH  22  23
ENDBRANCH   1  22
TORSDOF 9
ENDMDL
MODEL 5
REMARK VINA RESULT:      -8.5      2.252      5.135
REMARK  9 active torsions:
REMARK  status: ('A' for Active; 'I' for Inactive)
REMARK    1  A    between atoms: C_3  and  O_4 
REMARK    2  A    between atoms: O_4  and  C_5 
REMARK    3  A    between atoms: C_5  and  C_6 
REMARK    4  A    between atoms: N_7  and  C_8 
REMARK    5  A    between atoms: C_14  and  S_15 
REMARK    6  A    between atoms: S_15  and  C_16 
REMARK    7  A    between atoms: C_16  and  C_17 
REMARK       I    between atoms: C_17  and  N_18 
REMARK    8  A    between atoms: N_18  and  C_19 
REMARK    9  A    between atoms: C_19  and  C_20 
ROOT
HETATM    1  C   UNL     1       6.837  25.683  56.095  1.00  0.00     0.160 A 
HETATM    2  N   UNL     1       6.862  27.065  56.284  1.00  0.00    -0.274 N 
HETATM    3  C   UNL     1       5.531  27.377  56.520  1.00  0.00     0.196 A 
HETATM    4  N   UNL     1       4.790  26.295  56.506  1.00  0.00    -0.122 NA
HETATM    5  N   UNL     1       5.599  25.239  56.228  1.00  0.00    -0.131 NA
ENDROOT
BRANCH   3   6
HETATM    6  S   UNL     1       4.821  28.963  56.492  1.00  0.00    -0.081 SA
BRANCH   6   7
HETATM    7  C   UNL     1       5.159  29.430  54.770  1.00  0.00     0.185 C 
BRANCH   7   8
HETATM    8  C   UNL     1       4.644  28.447  53.727  1.00  0.00     0.227 C 
HETATM    9  N   UNL     1       5.568  27.937  52.849  1.00  0.00    -0.360 N 
HETATM   10  H   UNL     1       6.542  28.223  52.931  1.00  0.00     0.162 HD
HETATM   11  O   UNL     1       3.439  28.213  53.626  1.00  0.00    -0.273 OA
BRANCH   9  12
HETATM   12  C   UNL     1       5.212  27.170  51.675  1.00  0.00     0.126 C 
BRANCH  12  13
HETATM   13  C   UNL     1       5.752  25.732  51.738  1.00  0.00    -0.005 C 
HETATM   14  C   UNL     1       7.216  25.689  52.184  1.00  0.00     0.011 C 
HETATM   15  C   UNL     1       4.894  24.895  52.688  1.00  0.00     0.011 C 
ENDBRANCH  12  13
ENDBRANCH   9  12
ENDBRANCH   7   8
ENDBRANCH   6   7
ENDBRANCH   3   6
BRANCH   2  16
HETATM   16  C   UNL     1       7.971  27.954  56.223  1.00  0.00     0.043 A 
HETATM   17  C   UNL     1       8.587  28.414  57.394  1.00  0.00     0.030 A 
HETATM   18  C   UNL     1       9.680  29.283  57.318  1.00  0.00     0.002 A 
HETATM   19  C   UNL     1      10.165  29.695  56.078  1.00  0.00     0.000 A 
HETATM   20  C   UNL     1       9.558  29.239  54.911  1.00  0.00     0.002 A 
HETATM   21  C   UNL     1       8.465  28.373  54.980  1.00  0.00     0.030 A 
ENDBRANCH   2  16
BRANCH   1  22
HETATM   22  C   UNL     1       8.005  24.786  55.870  1.00  0.00     0.256 C 
BRANCH  22  23
HETATM   23  O   UNL     1       7.596  23.457  56.173  1.00  0.00    -0.343 OA
BRANCH  23  24
HETATM   24  C   UNL     1       7.803  22.516  55.199  1.00  0.00     0.075 A 
HETATM   25  C   UNL     1       8.232  21.252  55.642  1.00  0.00    -0.029 A 
HETATM   26  C   UNL     1       8.380  20.937  57.105  1.00  0.00     0.051 C 
HETATM   27  C   UNL     1       8.450  20.232  54.701  1.00  0.00     0.009 A 
HETATM   28  C   UNL     1       8.281  20.473  53.339  1.00  0.00     0.001 A 
HETATM   29  C   UNL     1       7.883  21.732  52.903  1.00  0.00     0.003 A 
HETATM   30  C   UNL     1       7.645  22.751  53.829  1.00  0.00     0.037 A 
ENDBRANCH  23  24
ENDBRANCH  22  23
ENDBRANCH   1  22
TORSDOF 9
ENDMDL
MODEL 6
REMARK VINA RESULT:      -8.4      3.066      6.665
REMARK  9 active torsions:
REMARK  status: ('A' for Active; 'I' for Inactive)
REMARK    1  A    between atoms: C_3  and  O_4 
REMARK    2  A    between atoms: O_4  and  C_5 
REMARK    3  A    between atoms: C_5  and  C_6 
REMARK    4  A    between atoms: N_7  and  C_8 
REMARK    5  A    between atoms: C_14  and  S_15 
REMARK    6  A    between atoms: S_15  and  C_16 
REMARK    7  A    between atoms: C_16  and  C_17 
REMARK       I    between atoms: C_17  and  N_18 
REMARK    8  A    between atoms: N_18  and  C_19 
REMARK    9  A    between atoms: C_19  and  C_20 
ROOT
HETATM    1  C   UNL     1       6.250  25.844  55.290  1.00  0.00     0.160 A 
HETATM    2  N   UNL     1       6.296  27.236  55.372  1.00  0.00    -0.274 N 
HETATM    3  C   UNL     1       5.286  27.638  54.511  1.00  0.00     0.196 A 
HETATM    4  N   UNL     1       4.676  26.600  53.991  1.00  0.00    -0.122 NA
HETATM    5  N   UNL     1       5.285  25.480  54.464  1.00  0.00    -0.131 NA
ENDROOT
BRANCH   3   6
HETATM    6  S   UNL     1       5.036  29.241  53.888  1.00  0.00    -0.081 SA
BRANCH   6   7
HETATM    7  C   UNL     1       3.843  28.885  52.566  1.00  0.00     0.185 C 
BRANCH   7   8
HETATM    8  C   UNL     1       4.460  28.397  51.262  1.00  0.00     0.227 C 
HETATM    9  N   UNL     1       4.072  27.156  50.821  1.00  0.00    -0.360 N 
HETATM   10  H   UNL     1       3.395  26.625  51.366  1.00  0.00     0.162 HD
HETATM   11  O   UNL     1       5.340  29.050  50.700  1.00  0.00    -0.273 OA
BRANCH   9  12
HETATM   12  C   UNL     1       4.719  26.460  49.731  1.00  0.00     0.126 C 
BRANCH  12  13
HETATM   13  C   UNL     1       4.125  26.844  48.365  1.00  0.00    -0.005 C 
HETATM   14  C   UNL     1       5.175  27.460  47.437  1.00  0.00     0.011 C 
HETATM   15  C   UNL     1       3.503  25.614  47.703  1.00  0.00     0.011 C 
ENDBRANCH  12  13
ENDBRANCH   9  12
ENDBRANCH   7   8
ENDBRANCH   6   7
ENDBRANCH   3   6
BRANCH   2  16
HETATM   16  C   UNL     1       7.178  28.057  56.128  1.00  0.00     0.043 A 
HETATM   17  C   UNL     1       6.917  28.340  57.475  1.00  0.00     0.030 A 
HETATM   18  C   UNL     1       7.796  29.144  58.207  1.00  0.00     0.002 A 
HETATM   19  C   UNL     1       8.939  29.665  57.604  1.00  0.00     0.000 A 
HETATM   20  C   UNL     1       9.205  29.386  56.266  1.00  0.00     0.002 A 
HETATM   21  C   UNL     1       8.330  28.586  55.529  1.00  0.00     0.030 A 
ENDBRANCH   2  16
BRANCH   1  22
HETATM   22  C   UNL     1       7.074  24.872  56.061  1.00  0.00     0.256 C 
BRANCH  22  23
HETATM   23  O   UNL     1       8.122  24.421  55.211  1.00  0.00    -0.343 OA
BRANCH  23  24
HETATM   24  C   UNL     1       8.046  23.122  54.781  1.00  0.00     0.075 A 
HETATM   25  C   UNL     1       7.951  22.935  53.391  1.00  0.00    -0.029 A 
HETATM   26  C   UNL     1       8.004  24.092  52.433  1.00  0.00     0.051 C 
HETATM   27  C   UNL     1       7.885  21.629  52.876  1.00  0.00     0.009 A 
HETATM   28  C   UNL     1       7.877  20.528  53.731  1.00  0.00     0.001 A 
HETATM   29  C   UNL     1       7.945  20.719  55.106  1.00  0.00     0.003 A 
HETATM   30  C   UNL     1       8.028  22.010  55.631  1.00  0.00     0.037 A 
ENDBRANCH  23  24
ENDBRANCH  22  23
ENDBRANCH   1  22
TORSDOF 9
ENDMDL
MODEL 7
REMARK VINA RESULT:      -8.1      3.266      7.303
REMARK  9 active torsions:
REMARK  status: ('A' for Active; 'I' for Inactive)
REMARK    1  A    between atoms: C_3  and  O_4 
REMARK    2  A    between atoms: O_4  and  C_5 
REMARK    3  A    between atoms: C_5  and  C_6 
REMARK    4  A    between atoms: N_7  and  C_8 
REMARK    5  A    between atoms: C_14  and  S_15 
REMARK    6  A    between atoms: S_15  and  C_16 
REMARK    7  A    between atoms: C_16  and  C_17 
REMARK       I    between atoms: C_17  and  N_18 
REMARK    8  A    between atoms: N_18  and  C_19 
REMARK    9  A    between atoms: C_19  and  C_20 
ROOT
HETATM    1  C   UNL     1       4.369  28.181  54.443  1.00  0.00     0.160 A 
HETATM    2  N   UNL     1       5.441  27.355  54.785  1.00  0.00    -0.274 N 
HETATM    3  C   UNL     1       5.741  27.745  56.081  1.00  0.00     0.196 A 
HETATM    4  N   UNL     1       4.918  28.682  56.488  1.00  0.00    -0.122 NA
HETATM    5  N   UNL     1       4.071  28.965  55.464  1.00  0.00    -0.131 NA
ENDROOT
BRANCH   3   6
HETATM    6  S   UNL     1       7.184  27.358  56.968  1.00  0.00    -0.081 SA
BRANCH   6   7
HETATM    7  C   UNL     1       6.854  25.617  57.366  1.00  0.00     0.185 C 
BRANCH   7   8
HETATM    8  C   UNL     1       7.979  24.655  57.006  1.00  0.00     0.227 C 
HETATM    9  N   UNL     1       7.722  23.751  56.005  1.00  0.00    -0.360 N 
HETATM   10  H   UNL     1       6.814  23.764  55.546  1.00  0.00     0.162 HD
HETATM   11  O   UNL     1       9.022  24.634  57.661  1.00  0.00    -0.273 OA
BRANCH   9  12
HETATM   12  C   UNL     1       8.593  22.639  55.694  1.00  0.00     0.126 C 
BRANCH  12  13
HETATM   13  C   UNL     1       7.831  21.471  55.045  1.00  0.00    -0.005 C 
HETATM   14  C   UNL     1       8.430  21.080  53.691  1.00  0.00     0.011 C 
HETATM   15  C   UNL     1       7.831  20.264  55.982  1.00  0.00     0.011 C 
ENDBRANCH  12  13
ENDBRANCH   9  12
ENDBRANCH   7   8
ENDBRANCH   6   7
ENDBRANCH   3   6
BRANCH   2  16
HETATM   16  C   UNL     1       6.094  26.369  53.995  1.00  0.00     0.043 A 
HETATM   17  C   UNL     1       5.496  25.125  53.760  1.00  0.00     0.030 A 
HETATM   18  C   UNL     1       6.149  24.168  52.976  1.00  0.00     0.002 A 
HETATM   19  C   UNL     1       7.396  24.446  52.422  1.00  0.00     0.000 A 
HETATM   20  C   UNL     1       7.996  25.682  52.649  1.00  0.00     0.002 A 
HETATM   21  C   UNL     1       7.350  26.641  53.433  1.00  0.00     0.030 A 
ENDBRANCH   2  16
BRANCH   1  22
HETATM   22  C   UNL     1       3.587  28.159  53.176  1.00  0.00     0.256 C 
BRANCH  22  23
HETATM   23  O   UNL     1       4.403  28.718  52.153  1.00  0.00    -0.343 OA
BRANCH  23  24
HETATM   24  C   UNL     1       4.302  28.149  50.910  1.00  0.00     0.075 A 
HETATM   25  C   UNL     1       3.638  28.911  49.932  1.00  0.00    -0.029 A 
HETATM   26  C   UNL     1       3.136  30.298  50.220  1.00  0.00     0.051 C 
HETATM   27  C   UNL     1       3.510  28.398  48.631  1.00  0.00     0.009 A 
HETATM   28  C   UNL     1       4.001  27.133  48.314  1.00  0.00     0.001 A 
HETATM   29  C   UNL     1       4.633  26.371  49.291  1.00  0.00     0.003 A 
HETATM   30  C   UNL     1       4.783  26.876  50.584  1.00  0.00     0.037 A 
ENDBRANCH  23  24
ENDBRANCH  22  23
ENDBRANCH   1  22
TORSDOF 9
ENDMDL
MODEL 8
REMARK VINA RESULT:      -7.9      3.145      8.287
REMARK  9 active torsions:
REMARK  status: ('A' for Active; 'I' for Inactive)
REMARK    1  A    between atoms: C_3  and  O_4 
REMARK    2  A    between atoms: O_4  and  C_5 
REMARK    3  A    between atoms: C_5  and  C_6 
REMARK    4  A    between atoms: N_7  and  C_8 
REMARK    5  A    between atoms: C_14  and  S_15 
REMARK    6  A    between atoms: S_15  and  C_16 
REMARK    7  A    between atoms: C_16  and  C_17 
REMARK       I    between atoms: C_17  and  N_18 
REMARK    8  A    between atoms: N_18  and  C_19 
REMARK    9  A    between atoms: C_19  and  C_20 
ROOT
HETATM    1  C   UNL     1       6.966  26.976  56.065  1.00  0.00     0.160 A 
HETATM    2  N   UNL     1       6.837  25.854  55.246  1.00  0.00    -0.274 N 
HETATM    3  C   UNL     1       5.866  26.238  54.333  1.00  0.00     0.196 A 
HETATM    4  N   UNL     1       5.476  27.469  54.558  1.00  0.00    -0.122 NA
HETATM    5  N   UNL     1       6.150  27.927  55.646  1.00  0.00    -0.131 NA
ENDROOT
BRANCH   3   6
HETATM    6  S   UNL     1       4.992  25.192  53.254  1.00  0.00    -0.081 SA
BRANCH   6   7
HETATM    7  C   UNL     1       5.761  25.653  51.674  1.00  0.00     0.185 C 
BRANCH   7   8
HETATM    8  C   UNL     1       5.145  26.867  50.993  1.00  0.00     0.227 C 
HETATM    9  N   UNL     1       4.116  26.627  50.116  1.00  0.00    -0.360 N 
HETATM   10  H   UNL     1       3.807  25.669  49.964  1.00  0.00     0.162 HD
HETATM   11  O   UNL     1       5.625  27.989  51.154  1.00  0.00    -0.273 OA
BRANCH   9  12
HETATM   12  C   UNL     1       3.573  27.635  49.231  1.00  0.00     0.126 C 
BRANCH  12  13
HETATM   13  C   UNL     1       3.850  27.317  47.752  1.00  0.00    -0.005 C 
HETATM   14  C   UNL     1       5.306  27.597  47.370  1.00  0.00     0.011 C 
HETATM   15  C   UNL     1       3.508  25.855  47.460  1.00  0.00     0.011 C 
ENDBRANCH  12  13
ENDBRANCH   9  12
ENDBRANCH   7   8
ENDBRANCH   6   7
ENDBRANCH   3   6
BRANCH   2  16
HETATM   16  C   UNL     1       7.510  24.604  55.333  1.00  0.00     0.043 A 
HETATM   17  C   UNL     1       7.578  23.908  56.546  1.00  0.00     0.030 A 
HETATM   18  C   UNL     1       8.239  22.677  56.615  1.00  0.00     0.002 A 
HETATM   19  C   UNL     1       8.832  22.134  55.477  1.00  0.00     0.000 A 
HETATM   20  C   UNL     1       8.766  22.820  54.267  1.00  0.00     0.002 A 
HETATM   21  C   UNL     1       8.109  24.050  54.193  1.00  0.00     0.030 A 
ENDBRANCH   2  16
BRANCH   1  22
HETATM   22  C   UNL     1       7.923  27.161  57.191  1.00  0.00     0.256 C 
BRANCH  22  23
HETATM   23  O   UNL     1       8.804  28.222  56.840  1.00  0.00    -0.343 OA
BRANCH  23  24
HETATM   24  C   UNL     1       8.771  29.335  57.640  1.00  0.00     0.075 A 
HETATM   25  C   UNL     1       9.966  30.071  57.726  1.00  0.00    -0.029 A 
HETATM   26  C   UNL     1      11.183  29.696  56.927  1.00  0.00     0.051 C 
HETATM   27  C   UNL     1      10.002  31.232  58.515  1.00  0.00     0.009 A 
HETATM   28  C   UNL     1       8.880  31.637  59.236  1.00  0.00     0.001 A 
HETATM   29  C   UNL     1       7.708  30.891  59.170  1.00  0.00     0.003 A 
HETATM   30  C   UNL     1       7.653  29.744  58.376  1.00  0.00     0.037 A 
ENDBRANCH  23  24
ENDBRANCH  22  23
ENDBRANCH   1  22
TORSDOF 9
ENDMDL
MODEL 9
REMARK VINA RESULT:      -7.9      1.836      2.486
REMARK  9 active torsions:
REMARK  status: ('A' for Active; 'I' for Inactive)
REMARK    1  A    between atoms: C_3  and  O_4 
REMARK    2  A    between atoms: O_4  and  C_5 
REMARK    3  A    between atoms: C_5  and  C_6 
REMARK    4  A    between atoms: N_7  and  C_8 
REMARK    5  A    between atoms: C_14  and  S_15 
REMARK    6  A    between atoms: S_15  and  C_16 
REMARK    7  A    between atoms: C_16  and  C_17 
REMARK       I    between atoms: C_17  and  N_18 
REMARK    8  A    between atoms: N_18  and  C_19 
REMARK    9  A    between atoms: C_19  and  C_20 
ROOT
HETATM    1  C   UNL     1       7.944  25.641  56.696  1.00  0.00     0.160 A 
HETATM    2  N   UNL     1       7.068  26.517  56.053  1.00  0.00    -0.274 N 
HETATM    3  C   UNL     1       6.861  27.510  56.999  1.00  0.00     0.196 A 
HETATM    4  N   UNL     1       7.561  27.274  58.083  1.00  0.00    -0.122 NA
HETATM    5  N   UNL     1       8.227  26.102  57.902  1.00  0.00    -0.131 NA
ENDROOT
BRANCH   3   6
HETATM    6  S   UNL     1       5.613  28.718  56.972  1.00  0.00    -0.081 SA
BRANCH   6   7
HETATM    7  C   UNL     1       6.563  30.167  57.518  1.00  0.00     0.185 C 
BRANCH   7   8
HETATM    8  C   UNL     1       5.719  31.364  57.936  1.00  0.00     0.227 C 
HETATM    9  N   UNL     1       4.877  31.183  59.006  1.00  0.00    -0.360 N 
HETATM   10  H   UNL     1       4.856  30.278  59.473  1.00  0.00     0.162 HD
HETATM   11  O   UNL     1       5.727  32.401  57.272  1.00  0.00    -0.273 OA
BRANCH   9  12
HETATM   12  C   UNL     1       3.861  32.138  59.389  1.00  0.00     0.126 C 
BRANCH  12  13
HETATM   13  C   UNL     1       4.209  32.857  60.704  1.00  0.00    -0.005 C 
HETATM   14  C   UNL     1       5.597  32.466  61.219  1.00  0.00     0.011 C 
HETATM   15  C   UNL     1       4.135  34.371  60.504  1.00  0.00     0.011 C 
ENDBRANCH  12  13
ENDBRANCH   9  12
ENDBRANCH   7   8
ENDBRANCH   6   7
ENDBRANCH   3   6
BRANCH   2  16
HETATM   16  C   UNL     1       6.498  26.414  54.754  1.00  0.00     0.043 A 
HETATM   17  C   UNL     1       5.331  25.670  54.539  1.00  0.00     0.030 A 
HETATM   18  C   UNL     1       4.779  25.584  53.258  1.00  0.00     0.002 A 
HETATM   19  C   UNL     1       5.383  26.238  52.186  1.00  0.00     0.000 A 
HETATM   20  C   UNL     1       6.543  26.981  52.393  1.00  0.00     0.002 A 
HETATM   21  C   UNL     1       7.100  27.070  53.671  1.00  0.00     0.030 A 
ENDBRANCH   2  16
BRANCH   1  22
HETATM   22  C   UNL     1       8.567  24.415  56.125  1.00  0.00     0.256 C 
BRANCH  22  23
HETATM   23  O   UNL     1       7.519  23.576  55.652  1.00  0.00    -0.343 OA
BRANCH  23  24
HETATM   24  C   UNL     1       7.892  22.353  55.156  1.00  0.00     0.075 A 
HETATM   25  C   UNL     1       8.001  22.261  53.757  1.00  0.00    -0.029 A 
HETATM   26  C   UNL     1       7.793  23.456  52.869  1.00  0.00     0.051 C 
HETATM   27  C   UNL     1       8.394  21.043  53.177  1.00  0.00     0.009 A 
HETATM   28  C   UNL     1       8.639  19.924  53.972  1.00  0.00     0.001 A 
HETATM   29  C   UNL     1       8.503  20.012  55.353  1.00  0.00     0.003 A 
HETATM   30  C   UNL     1       8.131  21.222  55.944  1.00  0.00     0.037 A 
ENDBRANCH  23  24
ENDBRANCH  22  23
ENDBRANCH   1  22
TORSDOF 9
ENDMDL
MODEL 10
REMARK VINA RESULT:      -7.7      3.567      8.411
REMARK  9 active torsions:
REMARK  status: ('A' for Active; 'I' for Inactive)
REMARK    1  A    between atoms: C_3  and  O_4 
REMARK    2  A    between atoms: O_4  and  C_5 
REMARK    3  A    between atoms: C_5  and  C_6 
REMARK    4  A    between atoms: N_7  and  C_8 
REMARK    5  A    between atoms: C_14  and  S_15 
REMARK    6  A    between atoms: S_15  and  C_16 
REMARK    7  A    between atoms: C_16  and  C_17 
REMARK       I    between atoms: C_17  and  N_18 
REMARK    8  A    between atoms: N_18  and  C_19 
REMARK    9  A    between atoms: C_19  and  C_20 
ROOT
HETATM    1  C   UNL     1       6.595  27.376  55.783  1.00  0.00     0.160 A 
HETATM    2  N   UNL     1       6.420  26.492  54.718  1.00  0.00    -0.274 N 
HETATM    3  C   UNL     1       5.532  27.163  53.891  1.00  0.00     0.196 A 
HETATM    4  N   UNL     1       5.229  28.338  54.388  1.00  0.00    -0.122 NA
HETATM    5  N   UNL     1       5.880  28.468  55.575  1.00  0.00    -0.131 NA
ENDROOT
BRANCH   3   6
HETATM    6  S   UNL     1       4.636  26.480  52.568  1.00  0.00    -0.081 SA
BRANCH   6   7
HETATM    7  C   UNL     1       5.658  27.036  51.173  1.00  0.00     0.185 C 
BRANCH   7   8
HETATM    8  C   UNL     1       4.892  27.734  50.058  1.00  0.00     0.227 C 
HETATM    9  N   UNL     1       3.572  27.388  49.905  1.00  0.00    -0.360 N 
HETATM   10  H   UNL     1       3.163  26.700  50.534  1.00  0.00     0.162 HD
HETATM   11  O   UNL     1       5.470  28.490  49.276  1.00  0.00    -0.273 OA
BRANCH   9  12
HETATM   12  C   UNL     1       2.770  27.790  48.770  1.00  0.00     0.126 C 
BRANCH  12  13
HETATM   13  C   UNL     1       2.825  26.760  47.629  1.00  0.00    -0.005 C 
HETATM   14  C   UNL     1       3.078  25.343  48.149  1.00  0.00     0.011 C 
HETATM   15  C   UNL     1       1.522  26.797  46.830  1.00  0.00     0.011 C 
ENDBRANCH  12  13
ENDBRANCH   9  12
ENDBRANCH   7   8
ENDBRANCH   6   7
ENDBRANCH   3   6
BRANCH   2  16
HETATM   16  C   UNL     1       6.987  25.201  54.529  1.00  0.00     0.043 A 
HETATM   17  C   UNL     1       7.743  24.909  53.387  1.00  0.00     0.030 A 
HETATM   18  C   UNL     1       8.298  23.637  53.218  1.00  0.00     0.002 A 
HETATM   19  C   UNL     1       8.107  22.653  54.184  1.00  0.00     0.000 A 
HETATM   20  C   UNL     1       7.358  22.937  55.324  1.00  0.00     0.002 A 
HETATM   21  C   UNL     1       6.799  24.205  55.497  1.00  0.00     0.030 A 
ENDBRANCH   2  16
BRANCH   1  22
HETATM   22  C   UNL     1       7.504  27.208  56.951  1.00  0.00     0.256 C 
BRANCH  22  23
HETATM   23  O   UNL     1       7.502  28.429  57.682  1.00  0.00    -0.343 OA
BRANCH  23  24
HETATM   24  C   UNL     1       8.659  29.163  57.649  1.00  0.00     0.075 A 
HETATM   25  C   UNL     1       8.649  30.366  58.378  1.00  0.00    -0.029 A 
HETATM   26  C   UNL     1       7.462  30.778  59.204  1.00  0.00     0.051 C 
HETATM   27  C   UNL     1       9.805  31.163  58.403  1.00  0.00     0.009 A 
HETATM   28  C   UNL     1      10.941  30.792  57.686  1.00  0.00     0.001 A 
HETATM   29  C   UNL     1      10.937  29.616  56.944  1.00  0.00     0.003 A 
HETATM   30  C   UNL     1       9.800  28.804  56.924  1.00  0.00     0.037 A 
ENDBRANCH  23  24
ENDBRANCH  22  23
ENDBRANCH   1  22
TORSDOF 9
ENDMDL
