MODEL 1
REMARK VINA RESULT:      -8.9      0.000      0.000
REMARK  8 active torsions:
REMARK  status: ('A' for Active; 'I' for Inactive)
REMARK    1  A    between atoms: C_3  and  N_4 
REMARK       I    between atoms: N_4  and  C_5 
REMARK    2  A    between atoms: C_5  and  C_6 
REMARK    3  A    between atoms: C_7  and  C_8 
REMARK    4  A    between atoms: C_17  and  C_18 
REMARK    5  A    between atoms: C_20  and  O_21 
REMARK    6  A    between atoms: C_23  and  O_24 
REMARK    7  A    between atoms: O_24  and  C_25 
REMARK    8  A    between atoms: C_25  and  C_26 
REMARK       I    between atoms: C_26  and  N_27 
ROOT
HETATM    1  C   UNL     1       4.100  34.121  61.314  1.00  0.00     0.062 C 
HETATM    2  C   UNL     1       4.558  32.808  60.729  1.00  0.00     0.176 C 
HETATM    3  N   UNL     1       4.469  32.874  59.278  1.00  0.00    -0.277 N 
HETATM    4  C   UNL     1       4.370  34.068  58.637  1.00  0.00     0.177 C 
HETATM    5  S   UNL     1       4.495  33.871  56.912  1.00  0.00    -0.046 SA
HETATM    6  C   UNL     1       4.754  32.167  57.061  1.00  0.00     0.077 C 
HETATM    7  C   UNL     1       5.150  31.398  56.036  1.00  0.00     0.036 C 
HETATM    8  C   UNL     1       4.576  31.755  58.487  1.00  0.00     0.267 C 
HETATM    9  O   UNL     1       4.504  30.600  58.876  1.00  0.00    -0.266 OA
HETATM   10  N   UNL     1       4.181  35.214  59.194  1.00  0.00    -0.228 NA
HETATM   11  C   UNL     1       3.996  35.236  60.560  1.00  0.00     0.047 C 
HETATM   12  C   UNL     1       3.708  36.611  61.107  1.00  0.00     0.071 C 
ENDROOT
BRANCH   7  13
HETATM   13  C   UNL     1       5.565  30.000  56.166  1.00  0.00    -0.032 A 
HETATM   14  C   UNL     1       6.890  29.712  56.534  1.00  0.00     0.051 A 
HETATM   15  C   UNL     1       7.307  28.389  56.706  1.00  0.00     0.102 A 
HETATM   16  C   UNL     1       6.383  27.353  56.499  1.00  0.00     0.102 A 
HETATM   17  C   UNL     1       5.062  27.636  56.138  1.00  0.00     0.040 A 
HETATM   18  C   UNL     1       4.656  28.960  55.963  1.00  0.00     0.014 A 
BRANCH  15  19
HETATM   19  O   UNL     1       8.576  28.002  57.058  1.00  0.00    -0.353 OA
HETATM   20  C   UNL     1       9.588  28.999  57.043  1.00  0.00     0.210 C 
ENDBRANCH  15  19
BRANCH  16  21
HETATM   21  O   UNL     1       6.803  26.072  56.745  1.00  0.00    -0.339 OA
BRANCH  21  22
HETATM   22  C   UNL     1       6.980  25.288  55.565  1.00  0.00     0.278 C 
BRANCH  22  23
HETATM   23  C   UNL     1       7.331  23.858  55.962  1.00  0.00     0.239 C 
HETATM   24  N   UNL     1       7.935  23.719  57.181  1.00  0.00    -0.368 N 
HETATM   25  H   UNL     1       7.917  24.501  57.830  1.00  0.00     0.159 HD
HETATM   26  H   UNL     1       8.113  22.788  57.528  1.00  0.00     0.159 HD
HETATM   27  O   UNL     1       7.144  22.889  55.232  1.00  0.00    -0.271 OA
ENDBRANCH  22  23
ENDBRANCH  21  22
ENDBRANCH  16  21
ENDBRANCH   7  13
BRANCH   2  28
HETATM   28  C   UNL     1       5.997  32.440  61.068  1.00  0.00     0.011 A 
HETATM   29  S   UNL     1       6.321  31.372  62.375  1.00  0.00    -0.104 SA
HETATM   30  C   UNL     1       8.005  31.443  62.103  1.00  0.00     0.050 A 
HETATM   31  C   UNL     1       8.326  32.267  61.050  1.00  0.00     0.008 A 
HETATM   32  C   UNL     1       7.169  32.846  60.453  1.00  0.00     0.017 A 
ENDBRANCH   2  28
BRANCH   1  33
HETATM   33  C   UNL     1       3.812  34.084  62.774  1.00  0.00     0.256 C 
HETATM   34  N   UNL     1       4.844  34.580  63.544  1.00  0.00    -0.323 N 
HETATM   35  H   UNL     1       5.685  34.856  63.055  1.00  0.00     0.169 HD
HETATM   36  O   UNL     1       2.725  33.680  63.162  1.00  0.00    -0.267 OA
BRANCH  34  37
HETATM   37  C   UNL     1       4.877  34.726  64.953  1.00  0.00     0.041 A 
HETATM   38  C   UNL     1       6.020  34.290  65.659  1.00  0.00    -0.035 A 
HETATM   39  C   UNL     1       7.191  33.635  64.977  1.00  0.00     0.050 C 
HETATM   40  C   UNL     1       6.066  34.439  67.058  1.00  0.00     0.009 A 
HETATM   41  C   UNL     1       5.006  35.014  67.752  1.00  0.00     0.001 A 
HETATM   42  C   UNL     1       3.884  35.446  67.058  1.00  0.00     0.002 A 
HETATM   43  C   UNL     1       3.819  35.301  65.669  1.00  0.00     0.030 A 
ENDBRANCH  34  37
ENDBRANCH   1  33
TORSDOF 8
ENDMDL
MODEL 2
REMARK VINA RESULT:      -8.7      8.373     10.808
REMARK  8 active torsions:
REMARK  status: ('A' for Active; 'I' for Inactive)
REMARK    1  A    between atoms: C_3  and  N_4 
REMARK       I    between atoms: N_4  and  C_5 
REMARK    2  A    between atoms: C_5  and  C_6 
REMARK    3  A    between atoms: C_7  and  C_8 
REMARK    4  A    between atoms: C_17  and  C_18 
REMARK    5  A    between atoms: C_20  and  O_21 
REMARK    6  A    between atoms: C_23  and  O_24 
REMARK    7  A    between atoms: O_24  and  C_25 
REMARK    8  A    between atoms: C_25  and  C_26 
REMARK       I    between atoms: C_26  and  N_27 
ROOT
HETATM    1  C   UNL     1       4.481  31.398  50.976  1.00  0.00     0.062 C 
HETATM    2  C   UNL     1       5.144  30.052  51.136  1.00  0.00     0.176 C 
HETATM    3  N   UNL     1       4.894  29.553  52.480  1.00  0.00    -0.277 N 
HETATM    4  C   UNL     1       3.901  30.073  53.246  1.00  0.00     0.177 C 
HETATM    5  S   UNL     1       3.685  29.156  54.709  1.00  0.00    -0.046 SA
HETATM    6  C   UNL     1       4.901  28.015  54.250  1.00  0.00     0.077 C 
HETATM    7  C   UNL     1       5.097  26.858  54.898  1.00  0.00     0.036 C 
HETATM    8  C   UNL     1       5.577  28.479  52.999  1.00  0.00     0.267 C 
HETATM    9  O   UNL     1       6.597  27.993  52.536  1.00  0.00    -0.266 OA
HETATM   10  N   UNL     1       3.205  31.123  52.975  1.00  0.00    -0.228 NA
HETATM   11  C   UNL     1       3.532  31.828  51.836  1.00  0.00     0.047 C 
HETATM   12  C   UNL     1       2.714  33.079  51.645  1.00  0.00     0.071 C 
ENDROOT
BRANCH   7  13
HETATM   13  C   UNL     1       5.976  25.786  54.426  1.00  0.00    -0.032 A 
HETATM   14  C   UNL     1       7.037  25.362  55.243  1.00  0.00     0.051 A 
HETATM   15  C   UNL     1       7.869  24.314  54.839  1.00  0.00     0.102 A 
HETATM   16  C   UNL     1       7.632  23.697  53.601  1.00  0.00     0.102 A 
HETATM   17  C   UNL     1       6.574  24.113  52.786  1.00  0.00     0.040 A 
HETATM   18  C   UNL     1       5.752  25.164  53.196  1.00  0.00     0.014 A 
BRANCH  15  19
HETATM   19  O   UNL     1       8.932  23.829  55.559  1.00  0.00    -0.353 OA
HETATM   20  C   UNL     1       8.898  24.007  56.969  1.00  0.00     0.210 C 
ENDBRANCH  15  19
BRANCH  16  21
HETATM   21  O   UNL     1       8.420  22.627  53.265  1.00  0.00    -0.339 OA
BRANCH  21  22
HETATM   22  C   UNL     1       7.711  21.390  53.195  1.00  0.00     0.278 C 
BRANCH  22  23
HETATM   23  C   UNL     1       8.209  20.465  54.301  1.00  0.00     0.239 C 
HETATM   24  N   UNL     1       7.766  20.764  55.559  1.00  0.00    -0.368 N 
HETATM   25  H   UNL     1       6.988  21.409  55.666  1.00  0.00     0.159 HD
HETATM   26  H   UNL     1       7.998  20.135  56.314  1.00  0.00     0.159 HD
HETATM   27  O   UNL     1       8.997  19.545  54.107  1.00  0.00    -0.271 OA
ENDBRANCH  22  23
ENDBRANCH  21  22
ENDBRANCH  16  21
ENDBRANCH   7  13
BRANCH   2  28
HETATM   28  C   UNL     1       4.643  28.989  50.168  1.00  0.00     0.011 A 
HETATM   29  S   UNL     1       2.953  28.741  49.971  1.00  0.00    -0.104 SA
HETATM   30  C   UNL     1       3.201  27.518  48.805  1.00  0.00     0.050 A 
HETATM   31  C   UNL     1       4.537  27.288  48.571  1.00  0.00     0.008 A 
HETATM   32  C   UNL     1       5.371  28.134  49.358  1.00  0.00     0.017 A 
ENDBRANCH   2  28
BRANCH   1  33
HETATM   33  C   UNL     1       4.932  32.176  49.790  1.00  0.00     0.256 C 
HETATM   34  N   UNL     1       5.965  33.046  50.072  1.00  0.00    -0.323 N 
HETATM   35  H   UNL     1       6.260  33.105  51.037  1.00  0.00     0.169 HD
HETATM   36  O   UNL     1       4.413  31.967  48.702  1.00  0.00    -0.267 OA
BRANCH  34  37
HETATM   37  C   UNL     1       6.649  33.895  49.167  1.00  0.00     0.041 A 
HETATM   38  C   UNL     1       6.883  35.239  49.534  1.00  0.00    -0.035 A 
HETATM   39  C   UNL     1       6.395  35.819  50.835  1.00  0.00     0.050 C 
HETATM   40  C   UNL     1       7.570  36.088  48.647  1.00  0.00     0.009 A 
HETATM   41  C   UNL     1       8.027  35.621  47.418  1.00  0.00     0.001 A 
HETATM   42  C   UNL     1       7.800  34.299  47.058  1.00  0.00     0.002 A 
HETATM   43  C   UNL     1       7.114  33.444  47.925  1.00  0.00     0.030 A 
ENDBRANCH  34  37
ENDBRANCH   1  33
TORSDOF 8
ENDMDL
MODEL 3
REMARK VINA RESULT:      -8.4      5.580      8.761
REMARK  8 active torsions:
REMARK  status: ('A' for Active; 'I' for Inactive)
REMARK    1  A    between atoms: C_3  and  N_4 
REMARK       I    between atoms: N_4  and  C_5 
REMARK    2  A    between atoms: C_5  and  C_6 
REMARK    3  A    between atoms: C_7  and  C_8 
REMARK    4  A    between atoms: C_17  and  C_18 
REMARK    5  A    between atoms: C_20  and  O_21 
REMARK    6  A    between atoms: C_23  and  O_24 
REMARK    7  A    between atoms: O_24  and  C_25 
REMARK    8  A    between atoms: C_25  and  C_26 
REMARK       I    between atoms: C_26  and  N_27 
ROOT
HETATM    1  C   UNL     1       7.609  27.923  56.358  1.00  0.00     0.062 C 
HETATM    2  C   UNL     1       6.970  28.462  55.101  1.00  0.00     0.176 C 
HETATM    3  N   UNL     1       6.638  27.352  54.221  1.00  0.00    -0.277 N 
HETATM    4  C   UNL     1       6.575  26.080  54.691  1.00  0.00     0.177 C 
HETATM    5  S   UNL     1       5.953  24.990  53.486  1.00  0.00    -0.046 SA
HETATM    6  C   UNL     1       5.707  26.277  52.356  1.00  0.00     0.077 C 
HETATM    7  C   UNL     1       5.015  26.126  51.218  1.00  0.00     0.036 C 
HETATM    8  C   UNL     1       6.281  27.544  52.907  1.00  0.00     0.267 C 
HETATM    9  O   UNL     1       6.434  28.574  52.271  1.00  0.00    -0.266 OA
HETATM   10  N   UNL     1       6.944  25.685  55.861  1.00  0.00    -0.228 NA
HETATM   11  C   UNL     1       7.516  26.620  56.698  1.00  0.00     0.047 C 
HETATM   12  C   UNL     1       7.983  26.046  58.012  1.00  0.00     0.071 C 
ENDROOT
BRANCH   7  13
HETATM   13  C   UNL     1       4.622  27.230  50.340  1.00  0.00    -0.032 A 
HETATM   14  C   UNL     1       3.672  28.160  50.792  1.00  0.00     0.051 A 
HETATM   15  C   UNL     1       3.305  29.247  49.994  1.00  0.00     0.102 A 
HETATM   16  C   UNL     1       3.897  29.390  48.729  1.00  0.00     0.102 A 
HETATM   17  C   UNL     1       4.847  28.469  48.276  1.00  0.00     0.040 A 
HETATM   18  C   UNL     1       5.202  27.384  49.079  1.00  0.00     0.014 A 
BRANCH  15  19
HETATM   19  O   UNL     1       2.387  30.206  50.340  1.00  0.00    -0.353 OA
HETATM   20  C   UNL     1       2.723  31.069  51.418  1.00  0.00     0.210 C 
ENDBRANCH  15  19
BRANCH  16  21
HETATM   21  O   UNL     1       3.571  30.504  48.000  1.00  0.00    -0.339 OA
BRANCH  21  22
HETATM   22  C   UNL     1       3.009  30.209  46.720  1.00  0.00     0.278 C 
BRANCH  22  23
HETATM   23  C   UNL     1       1.594  29.670  46.908  1.00  0.00     0.239 C 
HETATM   24  N   UNL     1       0.743  30.487  47.600  1.00  0.00    -0.368 N 
HETATM   25  H   UNL     1       1.005  31.457  47.749  1.00  0.00     0.159 HD
HETATM   26  H   UNL     1      -0.226  30.215  47.680  1.00  0.00     0.159 HD
HETATM   27  O   UNL     1       1.238  28.561  46.524  1.00  0.00    -0.271 OA
ENDBRANCH  22  23
ENDBRANCH  21  22
ENDBRANCH  16  21
ENDBRANCH   7  13
BRANCH   2  28
HETATM   28  C   UNL     1       5.683  29.240  55.339  1.00  0.00     0.011 A 
HETATM   29  S   UNL     1       4.392  28.512  56.211  1.00  0.00    -0.104 SA
HETATM   30  C   UNL     1       3.425  29.913  56.079  1.00  0.00     0.050 A 
HETATM   31  C   UNL     1       4.056  30.915  55.380  1.00  0.00     0.008 A 
HETATM   32  C   UNL     1       5.358  30.529  54.950  1.00  0.00     0.017 A 
ENDBRANCH   2  28
BRANCH   1  33
HETATM   33  C   UNL     1       8.306  28.943  57.188  1.00  0.00     0.256 C 
HETATM   34  N   UNL     1       7.507  29.472  58.182  1.00  0.00    -0.323 N 
HETATM   35  H   UNL     1       6.545  29.163  58.205  1.00  0.00     0.169 HD
HETATM   36  O   UNL     1       9.483  29.193  56.970  1.00  0.00    -0.267 OA
BRANCH  34  37
HETATM   37  C   UNL     1       7.871  30.426  59.165  1.00  0.00     0.041 A 
HETATM   38  C   UNL     1       7.064  31.572  59.337  1.00  0.00    -0.035 A 
HETATM   39  C   UNL     1       5.852  31.844  58.486  1.00  0.00     0.050 C 
HETATM   40  C   UNL     1       7.411  32.521  60.316  1.00  0.00     0.009 A 
HETATM   41  C   UNL     1       8.533  32.342  61.121  1.00  0.00     0.001 A 
HETATM   42  C   UNL     1       9.325  31.214  60.954  1.00  0.00     0.002 A 
HETATM   43  C   UNL     1       8.998  30.264  59.982  1.00  0.00     0.030 A 
ENDBRANCH  34  37
ENDBRANCH   1  33
TORSDOF 8
ENDMDL
MODEL 4
REMARK VINA RESULT:      -8.1      2.608     10.465
REMARK  8 active torsions:
REMARK  status: ('A' for Active; 'I' for Inactive)
REMARK    1  A    between atoms: C_3  and  N_4 
REMARK       I    between atoms: N_4  and  C_5 
REMARK    2  A    between atoms: C_5  and  C_6 
REMARK    3  A    between atoms: C_7  and  C_8 
REMARK    4  A    between atoms: C_17  and  C_18 
REMARK    5  A    between atoms: C_20  and  O_21 
REMARK    6  A    between atoms: C_23  and  O_24 
REMARK    7  A    between atoms: O_24  and  C_25 
REMARK    8  A    between atoms: C_25  and  C_26 
REMARK       I    between atoms: C_26  and  N_27 
ROOT
HETATM    1  C   UNL     1       7.971  28.901  56.846  1.00  0.00     0.062 C 
HETATM    2  C   UNL     1       7.297  29.521  58.045  1.00  0.00     0.176 C 
HETATM    3  N   UNL     1       8.239  30.398  58.722  1.00  0.00    -0.277 N 
HETATM    4  C   UNL     1       9.363  30.835  58.096  1.00  0.00     0.177 C 
HETATM    5  S   UNL     1      10.193  32.031  59.050  1.00  0.00    -0.046 SA
HETATM    6  C   UNL     1       8.974  31.993  60.276  1.00  0.00     0.077 C 
HETATM    7  C   UNL     1       8.909  32.894  61.267  1.00  0.00     0.036 C 
HETATM    8  C   UNL     1       7.997  30.901  59.979  1.00  0.00     0.267 C 
HETATM    9  O   UNL     1       7.141  30.502  60.752  1.00  0.00    -0.266 OA
HETATM   10  N   UNL     1       9.805  30.424  56.958  1.00  0.00    -0.228 NA
HETATM   11  C   UNL     1       9.118  29.401  56.339  1.00  0.00     0.047 C 
HETATM   12  C   UNL     1       9.754  28.939  55.053  1.00  0.00     0.071 C 
ENDROOT
BRANCH   7  13
HETATM   13  C   UNL     1       7.789  33.012  62.203  1.00  0.00    -0.032 A 
HETATM   14  C   UNL     1       6.537  33.431  61.722  1.00  0.00     0.051 A 
HETATM   15  C   UNL     1       5.438  33.514  62.582  1.00  0.00     0.102 A 
HETATM   16  C   UNL     1       5.607  33.179  63.935  1.00  0.00     0.102 A 
HETATM   17  C   UNL     1       6.851  32.757  64.416  1.00  0.00     0.040 A 
HETATM   18  C   UNL     1       7.943  32.682  63.551  1.00  0.00     0.014 A 
BRANCH  15  19
HETATM   19  O   UNL     1       4.178  33.915  62.214  1.00  0.00    -0.353 OA
HETATM   20  C   UNL     1       3.486  33.104  61.275  1.00  0.00     0.210 C 
ENDBRANCH  15  19
BRANCH  16  21
HETATM   21  O   UNL     1       4.495  33.202  64.736  1.00  0.00    -0.339 OA
BRANCH  21  22
HETATM   22  C   UNL     1       4.638  34.026  65.894  1.00  0.00     0.278 C 
BRANCH  22  23
HETATM   23  C   UNL     1       3.736  35.248  65.752  1.00  0.00     0.239 C 
HETATM   24  N   UNL     1       2.835  35.432  66.763  1.00  0.00    -0.368 N 
HETATM   25  H   UNL     1       2.953  34.910  67.627  1.00  0.00     0.159 HD
HETATM   26  H   UNL     1       2.272  36.269  66.760  1.00  0.00     0.159 HD
HETATM   27  O   UNL     1       3.761  35.996  64.779  1.00  0.00    -0.271 OA
ENDBRANCH  22  23
ENDBRANCH  21  22
ENDBRANCH  16  21
ENDBRANCH   7  13
BRANCH   2  28
HETATM   28  C   UNL     1       6.072  30.362  57.709  1.00  0.00     0.011 A 
HETATM   29  S   UNL     1       4.538  29.605  57.534  1.00  0.00    -0.104 SA
HETATM   30  C   UNL     1       3.765  31.095  57.218  1.00  0.00     0.050 A 
HETATM   31  C   UNL     1       4.647  32.150  57.233  1.00  0.00     0.008 A 
HETATM   32  C   UNL     1       5.979  31.729  57.513  1.00  0.00     0.017 A 
ENDBRANCH   2  28
BRANCH   1  33
HETATM   33  C   UNL     1       7.252  27.734  56.264  1.00  0.00     0.256 C 
HETATM   34  N   UNL     1       7.074  27.832  54.898  1.00  0.00    -0.323 N 
HETATM   35  H   UNL     1       7.389  28.686  54.458  1.00  0.00     0.169 HD
HETATM   36  O   UNL     1       6.930  26.805  56.990  1.00  0.00    -0.267 OA
BRANCH  34  37
HETATM   37  C   UNL     1       6.472  26.882  54.037  1.00  0.00     0.041 A 
HETATM   38  C   UNL     1       5.148  27.100  53.597  1.00  0.00    -0.035 A 
HETATM   39  C   UNL     1       4.332  28.284  54.043  1.00  0.00     0.050 C 
HETATM   40  C   UNL     1       4.544  26.167  52.734  1.00  0.00     0.009 A 
HETATM   41  C   UNL     1       5.234  25.039  52.303  1.00  0.00     0.001 A 
HETATM   42  C   UNL     1       6.538  24.825  52.733  1.00  0.00     0.002 A 
HETATM   43  C   UNL     1       7.151  25.739  53.594  1.00  0.00     0.030 A 
ENDBRANCH  34  37
ENDBRANCH   1  33
TORSDOF 8
ENDMDL
MODEL 5
REMARK VINA RESULT:      -7.8      6.070     11.009
REMARK  8 active torsions:
REMARK  status: ('A' for Active; 'I' for Inactive)
REMARK    1  A    between atoms: C_3  and  N_4 
REMARK       I    between atoms: N_4  and  C_5 
REMARK    2  A    between atoms: C_5  and  C_6 
REMARK    3  A    between atoms: C_7  and  C_8 
REMARK    4  A    between atoms: C_17  and  C_18 
REMARK    5  A    between atoms: C_20  and  O_21 
REMARK    6  A    between atoms: C_23  and  O_24 
REMARK    7  A    between atoms: O_24  and  C_25 
REMARK    8  A    between atoms: C_25  and  C_26 
REMARK       I    between atoms: C_26  and  N_27 
ROOT
HETATM    1  C   UNL     1       6.031  27.433  56.005  1.00  0.00     0.062 C 
HETATM    2  C   UNL     1       4.967  28.196  55.255  1.00  0.00     0.176 C 
HETATM    3  N   UNL     1       4.907  29.558  55.764  1.00  0.00    -0.277 N 
HETATM    4  C   UNL     1       5.928  30.077  56.494  1.00  0.00     0.177 C 
HETATM    5  S   UNL     1       5.693  31.776  56.790  1.00  0.00    -0.046 SA
HETATM    6  C   UNL     1       4.236  31.802  55.858  1.00  0.00     0.077 C 
HETATM    7  C   UNL     1       3.622  32.938  55.497  1.00  0.00     0.036 C 
HETATM    8  C   UNL     1       3.872  30.409  55.456  1.00  0.00     0.267 C 
HETATM    9  O   UNL     1       2.806  30.081  54.960  1.00  0.00    -0.266 OA
HETATM   10  N   UNL     1       6.942  29.426  56.951  1.00  0.00    -0.228 NA
HETATM   11  C   UNL     1       6.971  28.063  56.740  1.00  0.00     0.047 C 
HETATM   12  C   UNL     1       8.156  27.381  57.376  1.00  0.00     0.071 C 
ENDROOT
BRANCH   7  13
HETATM   13  C   UNL     1       2.506  33.008  54.552  1.00  0.00    -0.032 A 
HETATM   14  C   UNL     1       1.191  33.026  55.045  1.00  0.00     0.051 A 
HETATM   15  C   UNL     1       0.106  33.134  54.172  1.00  0.00     0.102 A 
HETATM   16  C   UNL     1       0.350  33.217  52.792  1.00  0.00     0.102 A 
HETATM   17  C   UNL     1       1.658  33.204  52.296  1.00  0.00     0.040 A 
HETATM   18  C   UNL     1       2.735  33.091  53.177  1.00  0.00     0.014 A 
BRANCH  15  19
HETATM   19  O   UNL     1      -1.213  33.155  54.551  1.00  0.00    -0.353 OA
HETATM   20  C   UNL     1      -1.537  33.863  55.740  1.00  0.00     0.210 C 
ENDBRANCH  15  19
BRANCH  16  21
HETATM   21  O   UNL     1      -0.730  33.393  51.967  1.00  0.00    -0.339 OA
BRANCH  21  22
HETATM   22  C   UNL     1      -0.943  32.310  51.060  1.00  0.00     0.278 C 
BRANCH  22  23
HETATM   23  C   UNL     1      -2.370  31.796  51.223  1.00  0.00     0.239 C 
HETATM   24  N   UNL     1      -2.691  31.344  52.473  1.00  0.00    -0.368 N 
HETATM   25  H   UNL     1      -2.077  31.570  53.250  1.00  0.00     0.159 HD
HETATM   26  H   UNL     1      -3.645  31.071  52.657  1.00  0.00     0.159 HD
HETATM   27  O   UNL     1      -3.174  31.730  50.298  1.00  0.00    -0.271 OA
ENDBRANCH  22  23
ENDBRANCH  21  22
ENDBRANCH  16  21
ENDBRANCH   7  13
BRANCH   2  28
HETATM   28  C   UNL     1       5.209  28.294  53.754  1.00  0.00     0.011 A 
HETATM   29  S   UNL     1       3.962  27.851  52.657  1.00  0.00    -0.104 SA
HETATM   30  C   UNL     1       4.926  28.238  51.302  1.00  0.00     0.050 A 
HETATM   31  C   UNL     1       6.175  28.686  51.665  1.00  0.00     0.008 A 
HETATM   32  C   UNL     1       6.342  28.716  53.079  1.00  0.00     0.017 A 
ENDBRANCH   2  28
BRANCH   1  33
HETATM   33  C   UNL     1       5.972  25.955  55.835  1.00  0.00     0.256 C 
HETATM   34  N   UNL     1       7.002  25.455  55.064  1.00  0.00    -0.323 N 
HETATM   35  H   UNL     1       7.636  26.130  54.659  1.00  0.00     0.169 HD
HETATM   36  O   UNL     1       5.090  25.321  56.398  1.00  0.00    -0.267 OA
BRANCH  34  37
HETATM   37  C   UNL     1       7.261  24.099  54.747  1.00  0.00     0.041 A 
HETATM   38  C   UNL     1       7.352  23.720  53.389  1.00  0.00    -0.035 A 
HETATM   39  C   UNL     1       7.141  24.695  52.261  1.00  0.00     0.050 C 
HETATM   40  C   UNL     1       7.619  22.377  53.063  1.00  0.00     0.009 A 
HETATM   41  C   UNL     1       7.801  21.421  54.058  1.00  0.00     0.001 A 
HETATM   42  C   UNL     1       7.715  21.794  55.393  1.00  0.00     0.002 A 
HETATM   43  C   UNL     1       7.445  23.122  55.734  1.00  0.00     0.030 A 
ENDBRANCH  34  37
ENDBRANCH   1  33
TORSDOF 8
ENDMDL
MODEL 6
REMARK VINA RESULT:      -7.8      5.890     11.012
REMARK  8 active torsions:
REMARK  status: ('A' for Active; 'I' for Inactive)
REMARK    1  A    between atoms: C_3  and  N_4 
REMARK       I    between atoms: N_4  and  C_5 
REMARK    2  A    between atoms: C_5  and  C_6 
REMARK    3  A    between atoms: C_7  and  C_8 
REMARK    4  A    between atoms: C_17  and  C_18 
REMARK    5  A    between atoms: C_20  and  O_21 
REMARK    6  A    between atoms: C_23  and  O_24 
REMARK    7  A    between atoms: O_24  and  C_25 
REMARK    8  A    between atoms: C_25  and  C_26 
REMARK       I    between atoms: C_26  and  N_27 
ROOT
HETATM    1  C   UNL     1       6.407  26.786  56.134  1.00  0.00     0.062 C 
HETATM    2  C   UNL     1       5.360  27.677  55.513  1.00  0.00     0.176 C 
HETATM    3  N   UNL     1       5.440  29.000  56.114  1.00  0.00    -0.277 N 
HETATM    4  C   UNL     1       6.543  29.389  56.805  1.00  0.00     0.177 C 
HETATM    5  S   UNL     1       6.461  31.074  57.229  1.00  0.00    -0.046 SA
HETATM    6  C   UNL     1       4.954  31.275  56.404  1.00  0.00     0.077 C 
HETATM    7  C   UNL     1       4.409  32.476  56.164  1.00  0.00     0.036 C 
HETATM    8  C   UNL     1       4.457  29.945  55.936  1.00  0.00     0.267 C 
HETATM    9  O   UNL     1       3.339  29.733  55.496  1.00  0.00    -0.266 OA
HETATM   10  N   UNL     1       7.530  28.634  57.145  1.00  0.00    -0.228 NA
HETATM   11  C   UNL     1       7.439  27.291  56.843  1.00  0.00     0.047 C 
HETATM   12  C   UNL     1       8.605  26.479  57.347  1.00  0.00     0.071 C 
ENDROOT
BRANCH   7  13
HETATM   13  C   UNL     1       3.243  32.696  55.306  1.00  0.00    -0.032 A 
HETATM   14  C   UNL     1       3.411  32.694  53.911  1.00  0.00     0.051 A 
HETATM   15  C   UNL     1       2.312  32.861  53.063  1.00  0.00     0.102 A 
HETATM   16  C   UNL     1       1.039  33.037  53.629  1.00  0.00     0.102 A 
HETATM   17  C   UNL     1       0.867  33.036  55.017  1.00  0.00     0.040 A 
HETATM   18  C   UNL     1       1.972  32.874  55.855  1.00  0.00     0.014 A 
BRANCH  15  19
HETATM   19  O   UNL     1       2.369  32.878  51.692  1.00  0.00    -0.353 OA
HETATM   20  C   UNL     1       3.199  31.911  51.063  1.00  0.00     0.210 C 
ENDBRANCH  15  19
BRANCH  16  21
HETATM   21  O   UNL     1      -0.027  33.127  52.772  1.00  0.00    -0.339 OA
BRANCH  21  22
HETATM   22  C   UNL     1      -1.182  33.732  53.352  1.00  0.00     0.278 C 
BRANCH  22  23
HETATM   23  C   UNL     1      -2.344  32.745  53.299  1.00  0.00     0.239 C 
HETATM   24  N   UNL     1      -2.221  31.745  52.374  1.00  0.00    -0.368 N 
HETATM   25  H   UNL     1      -1.314  31.578  51.948  1.00  0.00     0.159 HD
HETATM   26  H   UNL     1      -2.921  31.018  52.355  1.00  0.00     0.159 HD
HETATM   27  O   UNL     1      -3.353  32.852  53.988  1.00  0.00    -0.271 OA
ENDBRANCH  22  23
ENDBRANCH  21  22
ENDBRANCH  16  21
ENDBRANCH   7  13
BRANCH   2  28
HETATM   28  C   UNL     1       5.512  27.865  54.008  1.00  0.00     0.011 A 
HETATM   29  S   UNL     1       4.176  27.560  52.970  1.00  0.00    -0.104 SA
HETATM   30  C   UNL     1       5.072  27.990  51.581  1.00  0.00     0.050 A 
HETATM   31  C   UNL     1       6.364  28.350  51.889  1.00  0.00     0.008 A 
HETATM   32  C   UNL     1       6.620  28.276  53.289  1.00  0.00     0.017 A 
ENDBRANCH   2  28
BRANCH   1  33
HETATM   33  C   UNL     1       6.221  25.333  55.871  1.00  0.00     0.256 C 
HETATM   34  N   UNL     1       7.289  24.759  55.211  1.00  0.00    -0.323 N 
HETATM   35  H   UNL     1       8.038  25.379  54.932  1.00  0.00     0.169 HD
HETATM   36  O   UNL     1       5.212  24.773  56.275  1.00  0.00    -0.267 OA
BRANCH  34  37
HETATM   37  C   UNL     1       7.450  23.399  54.849  1.00  0.00     0.041 A 
HETATM   38  C   UNL     1       7.656  23.072  53.491  1.00  0.00    -0.035 A 
HETATM   39  C   UNL     1       7.668  24.111  52.402  1.00  0.00     0.050 C 
HETATM   40  C   UNL     1       7.826  21.725  53.122  1.00  0.00     0.009 A 
HETATM   41  C   UNL     1       7.802  20.712  54.077  1.00  0.00     0.001 A 
HETATM   42  C   UNL     1       7.603  21.034  55.413  1.00  0.00     0.002 A 
HETATM   43  C   UNL     1       7.426  22.366  55.796  1.00  0.00     0.030 A 
ENDBRANCH  34  37
ENDBRANCH   1  33
TORSDOF 8
ENDMDL
MODEL 7
REMARK VINA RESULT:      -7.8      8.481     11.946
REMARK  8 active torsions:
REMARK  status: ('A' for Active; 'I' for Inactive)
REMARK    1  A    between atoms: C_3  and  N_4 
REMARK       I    between atoms: N_4  and  C_5 
REMARK    2  A    between atoms: C_5  and  C_6 
REMARK    3  A    between atoms: C_7  and  C_8 
REMARK    4  A    between atoms: C_17  and  C_18 
REMARK    5  A    between atoms: C_20  and  O_21 
REMARK    6  A    between atoms: C_23  and  O_24 
REMARK    7  A    between atoms: O_24  and  C_25 
REMARK    8  A    between atoms: C_25  and  C_26 
REMARK       I    between atoms: C_26  and  N_27 
ROOT
HETATM    1  C   UNL     1       4.480  31.210  50.244  1.00  0.00     0.062 C 
HETATM    2  C   UNL     1       5.068  29.859  50.573  1.00  0.00     0.176 C 
HETATM    3  N   UNL     1       4.866  29.583  51.987  1.00  0.00    -0.277 N 
HETATM    4  C   UNL     1       3.953  30.279  52.713  1.00  0.00     0.177 C 
HETATM    5  S   UNL     1       3.767  29.606  54.307  1.00  0.00    -0.046 SA
HETATM    6  C   UNL     1       4.881  28.327  53.967  1.00  0.00     0.077 C 
HETATM    7  C   UNL     1       5.042  27.267  54.773  1.00  0.00     0.036 C 
HETATM    8  C   UNL     1       5.510  28.552  52.629  1.00  0.00     0.267 C 
HETATM    9  O   UNL     1       6.469  27.933  52.196  1.00  0.00    -0.266 OA
HETATM   10  N   UNL     1       3.309  31.323  52.320  1.00  0.00    -0.228 NA
HETATM   11  C   UNL     1       3.612  31.828  51.073  1.00  0.00     0.047 C 
HETATM   12  C   UNL     1       2.863  33.091  50.735  1.00  0.00     0.071 C 
ENDROOT
BRANCH   7  13
HETATM   13  C   UNL     1       5.824  26.079  54.426  1.00  0.00    -0.032 A 
HETATM   14  C   UNL     1       6.981  25.781  55.165  1.00  0.00     0.051 A 
HETATM   15  C   UNL     1       7.726  24.632  54.886  1.00  0.00     0.102 A 
HETATM   16  C   UNL     1       7.305  23.784  53.850  1.00  0.00     0.102 A 
HETATM   17  C   UNL     1       6.151  24.074  53.114  1.00  0.00     0.040 A 
HETATM   18  C   UNL     1       5.416  25.227  53.397  1.00  0.00     0.014 A 
BRANCH  15  19
HETATM   19  O   UNL     1       8.870  24.255  55.544  1.00  0.00    -0.353 OA
HETATM   20  C   UNL     1       8.803  24.154  56.960  1.00  0.00     0.210 C 
ENDBRANCH  15  19
BRANCH  16  21
HETATM   21  O   UNL     1       8.016  22.630  53.647  1.00  0.00    -0.339 OA
BRANCH  21  22
HETATM   22  C   UNL     1       7.667  21.575  54.543  1.00  0.00     0.278 C 
BRANCH  22  23
HETATM   23  C   UNL     1       8.412  20.308  54.136  1.00  0.00     0.239 C 
HETATM   24  N   UNL     1       9.000  19.619  55.161  1.00  0.00    -0.368 N 
HETATM   25  H   UNL     1       8.737  19.841  56.117  1.00  0.00     0.159 HD
HETATM   26  H   UNL     1       9.434  18.730  54.958  1.00  0.00     0.159 HD
HETATM   27  O   UNL     1       8.537  19.942  52.972  1.00  0.00    -0.271 OA
ENDBRANCH  22  23
ENDBRANCH  21  22
ENDBRANCH  16  21
ENDBRANCH   7  13
BRANCH   2  28
HETATM   28  C   UNL     1       4.445  28.702  49.802  1.00  0.00     0.011 A 
HETATM   29  S   UNL     1       2.735  28.580  49.678  1.00  0.00    -0.104 SA
HETATM   30  C   UNL     1       2.839  27.166  48.726  1.00  0.00     0.050 A 
HETATM   31  C   UNL     1       4.142  26.782  48.509  1.00  0.00     0.008 A 
HETATM   32  C   UNL     1       5.070  27.665  49.131  1.00  0.00     0.017 A 
ENDBRANCH   2  28
BRANCH   1  33
HETATM   33  C   UNL     1       4.908  31.771  48.933  1.00  0.00     0.256 C 
HETATM   34  N   UNL     1       3.932  31.687  47.961  1.00  0.00    -0.323 N 
HETATM   35  H   UNL     1       3.075  31.216  48.216  1.00  0.00     0.169 HD
HETATM   36  O   UNL     1       6.017  32.278  48.830  1.00  0.00    -0.267 OA
BRANCH  34  37
HETATM   37  C   UNL     1       3.999  32.163  46.628  1.00  0.00     0.041 A 
HETATM   38  C   UNL     1       3.533  33.465  46.343  1.00  0.00    -0.035 A 
HETATM   39  C   UNL     1       2.926  34.355  47.394  1.00  0.00     0.050 C 
HETATM   40  C   UNL     1       3.603  33.951  45.024  1.00  0.00     0.009 A 
HETATM   41  C   UNL     1       4.131  33.170  44.000  1.00  0.00     0.001 A 
HETATM   42  C   UNL     1       4.592  31.890  44.281  1.00  0.00     0.002 A 
HETATM   43  C   UNL     1       4.524  31.390  45.584  1.00  0.00     0.030 A 
ENDBRANCH  34  37
ENDBRANCH   1  33
TORSDOF 8
ENDMDL
MODEL 8
REMARK VINA RESULT:      -7.8      6.930     12.725
REMARK  8 active torsions:
REMARK  status: ('A' for Active; 'I' for Inactive)
REMARK    1  A    between atoms: C_3  and  N_4 
REMARK       I    between atoms: N_4  and  C_5 
REMARK    2  A    between atoms: C_5  and  C_6 
REMARK    3  A    between atoms: C_7  and  C_8 
REMARK    4  A    between atoms: C_17  and  C_18 
REMARK    5  A    between atoms: C_20  and  O_21 
REMARK    6  A    between atoms: C_23  and  O_24 
REMARK    7  A    between atoms: O_24  and  C_25 
REMARK    8  A    between atoms: C_25  and  C_26 
REMARK       I    between atoms: C_26  and  N_27 
ROOT
HETATM    1  C   UNL     1       3.296  27.772  49.409  1.00  0.00     0.062 C 
HETATM    2  C   UNL     1       3.856  28.403  50.661  1.00  0.00     0.176 C 
HETATM    3  N   UNL     1       4.707  27.439  51.341  1.00  0.00    -0.277 N 
HETATM    4  C   UNL     1       5.179  26.342  50.694  1.00  0.00     0.177 C 
HETATM    5  S   UNL     1       6.335  25.481  51.669  1.00  0.00    -0.046 SA
HETATM    6  C   UNL     1       6.233  26.652  52.938  1.00  0.00     0.077 C 
HETATM    7  C   UNL     1       7.087  26.683  53.972  1.00  0.00     0.036 C 
HETATM    8  C   UNL     1       5.149  27.635  52.628  1.00  0.00     0.267 C 
HETATM    9  O   UNL     1       4.709  28.459  53.414  1.00  0.00    -0.266 OA
HETATM   10  N   UNL     1       4.824  25.942  49.522  1.00  0.00    -0.228 NA
HETATM   11  C   UNL     1       3.826  26.648  48.883  1.00  0.00     0.047 C 
HETATM   12  C   UNL     1       3.428  26.060  47.553  1.00  0.00     0.071 C 
ENDROOT
BRANCH   7  13
HETATM   13  C   UNL     1       7.154  27.767  54.954  1.00  0.00    -0.032 A 
HETATM   14  C   UNL     1       6.062  27.982  55.811  1.00  0.00     0.051 A 
HETATM   15  C   UNL     1       6.111  28.981  56.786  1.00  0.00     0.102 A 
HETATM   16  C   UNL     1       7.266  29.772  56.891  1.00  0.00     0.102 A 
HETATM   17  C   UNL     1       8.358  29.558  56.043  1.00  0.00     0.040 A 
HETATM   18  C   UNL     1       8.297  28.561  55.069  1.00  0.00     0.014 A 
BRANCH  15  19
HETATM   19  O   UNL     1       5.099  29.275  57.667  1.00  0.00    -0.353 OA
HETATM   20  C   UNL     1       4.054  30.116  57.199  1.00  0.00     0.210 C 
ENDBRANCH  15  19
BRANCH  16  21
HETATM   21  O   UNL     1       7.311  30.696  57.903  1.00  0.00    -0.339 OA
BRANCH  21  22
HETATM   22  C   UNL     1       8.208  30.349  58.959  1.00  0.00     0.278 C 
BRANCH  22  23
HETATM   23  C   UNL     1       8.174  31.442  60.022  1.00  0.00     0.239 C 
HETATM   24  N   UNL     1       7.539  31.108  61.186  1.00  0.00    -0.368 N 
HETATM   25  H   UNL     1       7.332  30.130  61.370  1.00  0.00     0.159 HD
HETATM   26  H   UNL     1       7.560  31.765  61.953  1.00  0.00     0.159 HD
HETATM   27  O   UNL     1       8.627  32.569  59.847  1.00  0.00    -0.271 OA
ENDBRANCH  22  23
ENDBRANCH  21  22
ENDBRANCH  16  21
ENDBRANCH   7  13
BRANCH   2  28
HETATM   28  C   UNL     1       4.703  29.644  50.411  1.00  0.00     0.011 A 
HETATM   29  S   UNL     1       4.329  31.112  51.223  1.00  0.00    -0.104 SA
HETATM   30  C   UNL     1       5.637  31.928  50.490  1.00  0.00     0.050 A 
HETATM   31  C   UNL     1       6.344  31.113  49.636  1.00  0.00     0.008 A 
HETATM   32  C   UNL     1       5.805  29.795  49.587  1.00  0.00     0.017 A 
ENDBRANCH   2  28
BRANCH   1  33
HETATM   33  C   UNL     1       2.153  28.507  48.801  1.00  0.00     0.256 C 
HETATM   34  N   UNL     1       2.373  28.861  47.486  1.00  0.00    -0.323 N 
HETATM   35  H   UNL     1       3.282  28.643  47.101  1.00  0.00     0.169 HD
HETATM   36  O   UNL     1       1.140  28.694  49.461  1.00  0.00    -0.267 OA
BRANCH  34  37
HETATM   37  C   UNL     1       1.478  29.525  46.610  1.00  0.00     0.041 A 
HETATM   38  C   UNL     1       1.816  30.812  46.135  1.00  0.00    -0.035 A 
HETATM   39  C   UNL     1       3.072  31.526  46.557  1.00  0.00     0.050 C 
HETATM   40  C   UNL     1       0.939  31.477  45.258  1.00  0.00     0.009 A 
HETATM   41  C   UNL     1      -0.251  30.882  44.847  1.00  0.00     0.001 A 
HETATM   42  C   UNL     1      -0.581  29.616  45.312  1.00  0.00     0.002 A 
HETATM   43  C   UNL     1       0.275  28.944  46.188  1.00  0.00     0.030 A 
ENDBRANCH  34  37
ENDBRANCH   1  33
TORSDOF 8
ENDMDL
MODEL 9
REMARK VINA RESULT:      -7.8      8.388     12.558
REMARK  8 active torsions:
REMARK  status: ('A' for Active; 'I' for Inactive)
REMARK    1  A    between atoms: C_3  and  N_4 
REMARK       I    between atoms: N_4  and  C_5 
REMARK    2  A    between atoms: C_5  and  C_6 
REMARK    3  A    between atoms: C_7  and  C_8 
REMARK    4  A    between atoms: C_17  and  C_18 
REMARK    5  A    between atoms: C_20  and  O_21 
REMARK    6  A    between atoms: C_23  and  O_24 
REMARK    7  A    between atoms: O_24  and  C_25 
REMARK    8  A    between atoms: C_25  and  C_26 
REMARK       I    between atoms: C_26  and  N_27 
ROOT
HETATM    1  C   UNL     1       4.770  27.576  52.811  1.00  0.00     0.062 C 
HETATM    2  C   UNL     1       3.866  27.927  51.655  1.00  0.00     0.176 C 
HETATM    3  N   UNL     1       3.392  29.293  51.818  1.00  0.00    -0.277 N 
HETATM    4  C   UNL     1       4.015  30.155  52.662  1.00  0.00     0.177 C 
HETATM    5  S   UNL     1       3.379  31.767  52.504  1.00  0.00    -0.046 SA
HETATM    6  C   UNL     1       2.307  31.288  51.233  1.00  0.00     0.077 C 
HETATM    7  C   UNL     1       1.629  32.167  50.481  1.00  0.00     0.036 C 
HETATM    8  C   UNL     1       2.361  29.803  51.064  1.00  0.00     0.267 C 
HETATM    9  O   UNL     1       1.585  29.149  50.386  1.00  0.00    -0.266 OA
HETATM   10  N   UNL     1       4.942  29.853  53.505  1.00  0.00    -0.228 NA
HETATM   11  C   UNL     1       5.296  28.525  53.614  1.00  0.00     0.047 C 
HETATM   12  C   UNL     1       6.332  28.263  54.678  1.00  0.00     0.071 C 
ENDROOT
BRANCH   7  13
HETATM   13  C   UNL     1       0.871  31.813  49.280  1.00  0.00    -0.032 A 
HETATM   14  C   UNL     1       1.565  31.492  48.102  1.00  0.00     0.051 A 
HETATM   15  C   UNL     1       0.872  31.111  46.950  1.00  0.00     0.102 A 
HETATM   16  C   UNL     1      -0.531  31.060  46.987  1.00  0.00     0.102 A 
HETATM   17  C   UNL     1      -1.226  31.374  48.159  1.00  0.00     0.040 A 
HETATM   18  C   UNL     1      -0.525  31.759  49.303  1.00  0.00     0.014 A 
BRANCH  15  19
HETATM   19  O   UNL     1       1.454  30.783  45.751  1.00  0.00    -0.353 OA
HETATM   20  C   UNL     1       2.579  31.550  45.344  1.00  0.00     0.210 C 
ENDBRANCH  15  19
BRANCH  16  21
HETATM   21  O   UNL     1      -1.178  30.614  45.864  1.00  0.00    -0.339 OA
BRANCH  21  22
HETATM   22  C   UNL     1      -1.718  29.299  45.996  1.00  0.00     0.278 C 
BRANCH  22  23
HETATM   23  C   UNL     1      -0.984  28.359  45.045  1.00  0.00     0.239 C 
HETATM   24  N   UNL     1       0.211  27.877  45.503  1.00  0.00    -0.368 N 
HETATM   25  H   UNL     1       0.434  27.975  46.489  1.00  0.00     0.159 HD
HETATM   26  H   UNL     1       0.697  27.187  44.949  1.00  0.00     0.159 HD
HETATM   27  O   UNL     1      -1.389  28.086  43.919  1.00  0.00    -0.271 OA
ENDBRANCH  22  23
ENDBRANCH  21  22
ENDBRANCH  16  21
ENDBRANCH   7  13
BRANCH   2  28
HETATM   28  C   UNL     1       4.539  27.852  50.290  1.00  0.00     0.011 A 
HETATM   29  S   UNL     1       4.179  26.547  49.230  1.00  0.00    -0.104 SA
HETATM   30  C   UNL     1       5.218  27.156  48.020  1.00  0.00     0.050 A 
HETATM   31  C   UNL     1       5.838  28.321  48.407  1.00  0.00     0.008 A 
HETATM   32  C   UNL     1       5.450  28.723  49.718  1.00  0.00     0.017 A 
ENDBRANCH   2  28
BRANCH   1  33
HETATM   33  C   UNL     1       5.051  26.122  52.960  1.00  0.00     0.256 C 
HETATM   34  N   UNL     1       6.347  25.856  53.354  1.00  0.00    -0.323 N 
HETATM   35  H   UNL     1       6.968  26.650  53.442  1.00  0.00     0.169 HD
HETATM   36  O   UNL     1       4.151  25.314  52.776  1.00  0.00    -0.267 OA
BRANCH  34  37
HETATM   37  C   UNL     1       6.924  24.591  53.626  1.00  0.00     0.041 A 
HETATM   38  C   UNL     1       6.858  24.078  54.941  1.00  0.00    -0.035 A 
HETATM   39  C   UNL     1       6.235  24.844  56.078  1.00  0.00     0.050 C 
HETATM   40  C   UNL     1       7.419  22.819  55.220  1.00  0.00     0.009 A 
HETATM   41  C   UNL     1       8.032  22.070  54.220  1.00  0.00     0.001 A 
HETATM   42  C   UNL     1       8.094  22.572  52.927  1.00  0.00     0.002 A 
HETATM   43  C   UNL     1       7.547  23.824  52.633  1.00  0.00     0.030 A 
ENDBRANCH  34  37
ENDBRANCH   1  33
TORSDOF 8
ENDMDL
MODEL 10
REMARK VINA RESULT:      -7.7      5.041     11.066
REMARK  8 active torsions:
REMARK  status: ('A' for Active; 'I' for Inactive)
REMARK    1  A    between atoms: C_3  and  N_4 
REMARK       I    between atoms: N_4  and  C_5 
REMARK    2  A    between atoms: C_5  and  C_6 
REMARK    3  A    between atoms: C_7  and  C_8 
REMARK    4  A    between atoms: C_17  and  C_18 
REMARK    5  A    between atoms: C_20  and  O_21 
REMARK    6  A    between atoms: C_23  and  O_24 
REMARK    7  A    between atoms: O_24  and  C_25 
REMARK    8  A    between atoms: C_25  and  C_26 
REMARK       I    between atoms: C_26  and  N_27 
ROOT
HETATM    1  C   UNL     1       6.938  26.315  56.516  1.00  0.00     0.062 C 
HETATM    2  C   UNL     1       5.914  27.343  56.098  1.00  0.00     0.176 C 
HETATM    3  N   UNL     1       6.143  28.573  56.841  1.00  0.00    -0.277 N 
HETATM    4  C   UNL     1       7.325  28.801  57.471  1.00  0.00     0.177 C 
HETATM    5  S   UNL     1       7.405  30.424  58.094  1.00  0.00    -0.046 SA
HETATM    6  C   UNL     1       5.856  30.823  57.437  1.00  0.00     0.077 C 
HETATM    7  C   UNL     1       5.386  32.078  57.388  1.00  0.00     0.036 C 
HETATM    8  C   UNL     1       5.223  29.595  56.863  1.00  0.00     0.267 C 
HETATM    9  O   UNL     1       4.060  29.513  56.502  1.00  0.00    -0.266 OA
HETATM   10  N   UNL     1       8.275  27.947  57.631  1.00  0.00    -0.228 NA
HETATM   11  C   UNL     1       8.059  26.661  57.183  1.00  0.00     0.047 C 
HETATM   12  C   UNL     1       9.196  25.718  57.483  1.00  0.00     0.071 C 
ENDROOT
BRANCH   7  13
HETATM   13  C   UNL     1       4.175  32.477  56.668  1.00  0.00    -0.032 A 
HETATM   14  C   UNL     1       3.303  33.406  57.260  1.00  0.00     0.051 A 
HETATM   15  C   UNL     1       2.160  33.839  56.582  1.00  0.00     0.102 A 
HETATM   16  C   UNL     1       1.893  33.325  55.303  1.00  0.00     0.102 A 
HETATM   17  C   UNL     1       2.762  32.404  54.708  1.00  0.00     0.040 A 
HETATM   18  C   UNL     1       3.898  31.974  55.395  1.00  0.00     0.014 A 
BRANCH  15  19
HETATM   19  O   UNL     1       1.244  34.736  57.072  1.00  0.00    -0.353 OA
HETATM   20  C   UNL     1       1.676  35.602  58.113  1.00  0.00     0.210 C 
ENDBRANCH  15  19
BRANCH  16  21
HETATM   21  O   UNL     1       0.804  33.822  54.635  1.00  0.00    -0.339 OA
BRANCH  21  22
HETATM   22  C   UNL     1      -0.395  33.079  54.859  1.00  0.00     0.278 C 
BRANCH  22  23
HETATM   23  C   UNL     1      -1.408  33.429  53.774  1.00  0.00     0.239 C 
HETATM   24  N   UNL     1      -2.062  32.365  53.217  1.00  0.00    -0.368 N 
HETATM   25  H   UNL     1      -2.017  31.463  53.682  1.00  0.00     0.159 HD
HETATM   26  H   UNL     1      -2.802  32.547  52.554  1.00  0.00     0.159 HD
HETATM   27  O   UNL     1      -1.599  34.573  53.372  1.00  0.00    -0.271 OA
ENDBRANCH  22  23
ENDBRANCH  21  22
ENDBRANCH  16  21
ENDBRANCH   7  13
BRANCH   2  28
HETATM   28  C   UNL     1       5.958  27.704  54.619  1.00  0.00     0.011 A 
HETATM   29  S   UNL     1       4.544  27.533  53.656  1.00  0.00    -0.104 SA
HETATM   30  C   UNL     1       5.343  28.114  52.263  1.00  0.00     0.050 A 
HETATM   31  C   UNL     1       6.660  28.425  52.511  1.00  0.00     0.008 A 
HETATM   32  C   UNL     1       7.018  28.186  53.870  1.00  0.00     0.017 A 
ENDBRANCH   2  28
BRANCH   1  33
HETATM   33  C   UNL     1       6.622  24.921  56.102  1.00  0.00     0.256 C 
HETATM   34  N   UNL     1       7.631  24.329  55.370  1.00  0.00    -0.323 N 
HETATM   35  H   UNL     1       8.431  24.906  55.148  1.00  0.00     0.169 HD
HETATM   36  O   UNL     1       5.568  24.413  56.459  1.00  0.00    -0.267 OA
BRANCH  34  37
HETATM   37  C   UNL     1       7.668  23.006  54.864  1.00  0.00     0.041 A 
HETATM   38  C   UNL     1       7.726  22.810  53.466  1.00  0.00    -0.035 A 
HETATM   39  C   UNL     1       7.706  23.954  52.488  1.00  0.00     0.050 C 
HETATM   40  C   UNL     1       7.772  21.500  52.954  1.00  0.00     0.009 A 
HETATM   41  C   UNL     1       7.770  20.398  53.803  1.00  0.00     0.001 A 
HETATM   42  C   UNL     1       7.716  20.590  55.178  1.00  0.00     0.002 A 
HETATM   43  C   UNL     1       7.664  21.884  55.703  1.00  0.00     0.030 A 
ENDBRANCH  34  37
ENDBRANCH   1  33
TORSDOF 8
ENDMDL
