MODEL 1
REMARK VINA RESULT:      -9.6      0.000      0.000
REMARK  2 active torsions:
REMARK  status: ('A' for Active; 'I' for Inactive)
REMARK    1  A    between atoms: C_5  and  C_6 
REMARK    2  A    between atoms: C_9  and  C_10 
ROOT
HETATM    1  C   UNL     1       6.589  28.546  55.390  1.00  0.00     0.220 C 
HETATM    2  N   UNL     1       6.487  27.125  55.667  1.00  0.00    -0.126 NA
HETATM    3  N   UNL     1       6.783  26.435  54.471  1.00  0.00    -0.126 NA
HETATM    4  C   UNL     1       5.953  25.246  54.435  1.00  0.00     0.220 C 
HETATM    5  N   UNL     1       5.213  25.291  55.670  1.00  0.00    -0.324 N 
HETATM    6  C   UNL     1       5.395  26.528  56.276  1.00  0.00     0.315 C 
HETATM    7  O   UNL     1       4.654  27.004  57.119  1.00  0.00    -0.252 OA
HETATM    8  C   UNL     1       6.879  27.348  53.433  1.00  0.00     0.315 C 
HETATM    9  O   UNL     1       6.797  27.134  52.237  1.00  0.00    -0.252 OA
HETATM   10  N   UNL     1       6.983  28.612  54.007  1.00  0.00    -0.324 N 
HETATM   11  H   UNL     1       4.373  24.761  55.845  1.00  0.00     0.165 HD
HETATM   12  H   UNL     1       6.895  29.435  53.432  1.00  0.00     0.165 HD
ENDROOT
BRANCH   1  13
HETATM   13  C   UNL     1       7.570  29.250  56.294  1.00  0.00    -0.020 A 
HETATM   14  C   UNL     1       7.144  29.924  57.452  1.00  0.00     0.011 A 
HETATM   15  C   UNL     1       8.053  30.620  58.250  1.00  0.00     0.007 A 
HETATM   16  C   UNL     1       9.409  30.656  57.914  1.00  0.00    -0.062 A 
HETATM   17  C   UNL     1      10.388  31.411  58.762  1.00  0.00     0.048 C 
HETATM   18  C   UNL     1       9.848  29.942  56.793  1.00  0.00     0.007 A 
HETATM   19  C   UNL     1       8.939  29.249  55.990  1.00  0.00     0.011 A 
ENDBRANCH   1  13
BRANCH   4  20
HETATM   20  C   UNL     1       6.756  23.976  54.298  1.00  0.00    -0.020 A 
HETATM   21  C   UNL     1       7.162  23.499  53.040  1.00  0.00     0.011 A 
HETATM   22  C   UNL     1       7.854  22.292  52.920  1.00  0.00     0.007 A 
HETATM   23  C   UNL     1       8.159  21.537  54.056  1.00  0.00    -0.062 A 
HETATM   24  C   UNL     1       8.895  20.236  53.928  1.00  0.00     0.048 C 
HETATM   25  C   UNL     1       7.808  22.031  55.316  1.00  0.00     0.007 A 
HETATM   26  C   UNL     1       7.111  23.237  55.437  1.00  0.00     0.011 A 
ENDBRANCH   4  20
TORSDOF 2
ENDMDL
MODEL 2
REMARK VINA RESULT:      -9.6      0.062      7.190
REMARK  2 active torsions:
REMARK  status: ('A' for Active; 'I' for Inactive)
REMARK    1  A    between atoms: C_5  and  C_6 
REMARK    2  A    between atoms: C_9  and  C_10 
ROOT
HETATM    1  C   UNL     1       5.983  25.202  54.422  1.00  0.00     0.220 C 
HETATM    2  N   UNL     1       6.818  26.389  54.462  1.00  0.00    -0.126 NA
HETATM    3  N   UNL     1       6.505  27.091  55.647  1.00  0.00    -0.126 NA
HETATM    4  C   UNL     1       6.617  28.508  55.358  1.00  0.00     0.220 C 
HETATM    5  N   UNL     1       7.035  28.559  53.981  1.00  0.00    -0.324 N 
HETATM    6  C   UNL     1       6.935  27.292  53.417  1.00  0.00     0.315 C 
HETATM    7  O   UNL     1       6.872  27.067  52.222  1.00  0.00    -0.252 OA
HETATM    8  C   UNL     1       5.401  26.503  56.243  1.00  0.00     0.315 C 
HETATM    9  O   UNL     1       4.648  26.990  57.068  1.00  0.00    -0.252 OA
HETATM   10  N   UNL     1       5.224  25.260  55.644  1.00  0.00    -0.324 N 
HETATM   11  H   UNL     1       6.960  29.378  53.397  1.00  0.00     0.165 HD
HETATM   12  H   UNL     1       4.379  24.736  55.810  1.00  0.00     0.165 HD
ENDROOT
BRANCH   1  13
HETATM   13  C   UNL     1       6.784  23.928  54.311  1.00  0.00    -0.020 A 
HETATM   14  C   UNL     1       7.195  23.430  53.063  1.00  0.00     0.011 A 
HETATM   15  C   UNL     1       7.885  22.220  52.966  1.00  0.00     0.007 A 
HETATM   16  C   UNL     1       8.184  21.482  54.115  1.00  0.00    -0.062 A 
HETATM   17  C   UNL     1       8.915  20.177  54.017  1.00  0.00     0.048 C 
HETATM   18  C   UNL     1       7.825  21.999  55.365  1.00  0.00     0.007 A 
HETATM   19  C   UNL     1       7.130  23.207  55.463  1.00  0.00     0.011 A 
ENDBRANCH   1  13
BRANCH   4  20
HETATM   20  C   UNL     1       7.587  29.216  56.273  1.00  0.00    -0.020 A 
HETATM   21  C   UNL     1       7.146  29.887  57.427  1.00  0.00     0.011 A 
HETATM   22  C   UNL     1       8.043  30.588  58.235  1.00  0.00     0.007 A 
HETATM   23  C   UNL     1       9.402  30.632  57.909  1.00  0.00    -0.062 A 
HETATM   24  C   UNL     1      10.365  31.393  58.771  1.00  0.00     0.048 C 
HETATM   25  C   UNL     1       9.857  29.922  56.793  1.00  0.00     0.007 A 
HETATM   26  C   UNL     1       8.959  29.223  55.982  1.00  0.00     0.011 A 
ENDBRANCH   4  20
TORSDOF 2
ENDMDL
MODEL 3
REMARK VINA RESULT:      -9.4      0.995      1.462
REMARK  2 active torsions:
REMARK  status: ('A' for Active; 'I' for Inactive)
REMARK    1  A    between atoms: C_5  and  C_6 
REMARK    2  A    between atoms: C_9  and  C_10 
ROOT
HETATM    1  C   UNL     1       6.861  28.785  55.721  1.00  0.00     0.220 C 
HETATM    2  N   UNL     1       6.567  27.412  56.093  1.00  0.00    -0.126 NA
HETATM    3  N   UNL     1       7.191  26.572  55.145  1.00  0.00    -0.126 NA
HETATM    4  C   UNL     1       6.334  25.418  54.954  1.00  0.00     0.220 C 
HETATM    5  N   UNL     1       5.232  25.638  55.855  1.00  0.00    -0.324 N 
HETATM    6  C   UNL     1       5.294  26.934  56.356  1.00  0.00     0.315 C 
HETATM    7  O   UNL     1       4.354  27.535  56.845  1.00  0.00    -0.252 OA
HETATM    8  C   UNL     1       7.694  27.347  54.113  1.00  0.00     0.315 C 
HETATM    9  O   UNL     1       7.996  26.991  52.988  1.00  0.00    -0.252 OA
HETATM   10  N   UNL     1       7.695  28.666  54.554  1.00  0.00    -0.324 N 
HETATM   11  H   UNL     1       4.344  25.165  55.790  1.00  0.00     0.165 HD
HETATM   12  H   UNL     1       7.865  29.416  53.902  1.00  0.00     0.165 HD
ENDROOT
BRANCH   1  13
HETATM   13  C   UNL     1       7.537  29.558  56.827  1.00  0.00    -0.020 A 
HETATM   14  C   UNL     1       6.805  30.394  57.687  1.00  0.00     0.011 A 
HETATM   15  C   UNL     1       7.447  31.150  58.669  1.00  0.00     0.007 A 
HETATM   16  C   UNL     1       8.835  31.084  58.818  1.00  0.00    -0.062 A 
HETATM   17  C   UNL     1       9.532  31.902  59.864  1.00  0.00     0.048 C 
HETATM   18  C   UNL     1       9.564  30.213  58.001  1.00  0.00     0.007 A 
HETATM   19  C   UNL     1       8.923  29.460  57.013  1.00  0.00     0.011 A 
ENDBRANCH   1  13
BRANCH   4  20
HETATM   20  C   UNL     1       7.040  24.112  55.228  1.00  0.00    -0.020 A 
HETATM   21  C   UNL     1       7.579  23.824  56.494  1.00  0.00     0.011 A 
HETATM   22  C   UNL     1       8.281  22.639  56.721  1.00  0.00     0.007 A 
HETATM   23  C   UNL     1       8.458  21.713  55.689  1.00  0.00    -0.062 A 
HETATM   24  C   UNL     1       9.220  20.444  55.929  1.00  0.00     0.048 C 
HETATM   25  C   UNL     1       7.878  21.967  54.442  1.00  0.00     0.007 A 
HETATM   26  C   UNL     1       7.178  23.155  54.212  1.00  0.00     0.011 A 
ENDBRANCH   4  20
TORSDOF 2
ENDMDL
MODEL 4
REMARK VINA RESULT:      -9.2      2.545      4.322
REMARK  2 active torsions:
REMARK  status: ('A' for Active; 'I' for Inactive)
REMARK    1  A    between atoms: C_5  and  C_6 
REMARK    2  A    between atoms: C_9  and  C_10 
ROOT
HETATM    1  C   UNL     1       5.209  28.129  56.009  1.00  0.00     0.220 C 
HETATM    2  N   UNL     1       6.306  27.318  55.512  1.00  0.00    -0.126 NA
HETATM    3  N   UNL     1       6.040  25.978  55.870  1.00  0.00    -0.126 NA
HETATM    4  C   UNL     1       7.312  25.343  56.162  1.00  0.00     0.220 C 
HETATM    5  N   UNL     1       8.288  26.374  55.920  1.00  0.00    -0.324 N 
HETATM    6  C   UNL     1       7.644  27.593  55.746  1.00  0.00     0.315 C 
HETATM    7  O   UNL     1       8.173  28.683  55.874  1.00  0.00    -0.252 OA
HETATM    8  C   UNL     1       4.942  25.943  56.714  1.00  0.00     0.315 C 
HETATM    9  O   UNL     1       4.610  25.052  57.476  1.00  0.00    -0.252 OA
HETATM   10  N   UNL     1       4.316  27.182  56.623  1.00  0.00    -0.324 N 
HETATM   11  H   UNL     1       9.234  26.349  56.267  1.00  0.00     0.165 HD
HETATM   12  H   UNL     1       3.593  27.431  57.280  1.00  0.00     0.165 HD
ENDROOT
BRANCH   1  13
HETATM   13  C   UNL     1       4.532  28.926  54.920  1.00  0.00    -0.020 A 
HETATM   14  C   UNL     1       3.989  28.299  53.786  1.00  0.00     0.011 A 
HETATM   15  C   UNL     1       3.417  29.050  52.758  1.00  0.00     0.007 A 
HETATM   16  C   UNL     1       3.368  30.444  52.842  1.00  0.00    -0.062 A 
HETATM   17  C   UNL     1       2.763  31.256  51.737  1.00  0.00     0.048 C 
HETATM   18  C   UNL     1       3.857  31.071  53.994  1.00  0.00     0.007 A 
HETATM   19  C   UNL     1       4.436  30.321  55.021  1.00  0.00     0.011 A 
ENDBRANCH   1  13
BRANCH   4  20
HETATM   20  C   UNL     1       7.560  24.116  55.320  1.00  0.00    -0.020 A 
HETATM   21  C   UNL     1       7.694  24.202  53.923  1.00  0.00     0.011 A 
HETATM   22  C   UNL     1       7.865  23.053  53.148  1.00  0.00     0.007 A 
HETATM   23  C   UNL     1       7.909  21.793  53.751  1.00  0.00    -0.062 A 
HETATM   24  C   UNL     1       8.083  20.558  52.918  1.00  0.00     0.048 C 
HETATM   25  C   UNL     1       7.831  21.704  55.144  1.00  0.00     0.007 A 
HETATM   26  C   UNL     1       7.656  22.852  55.921  1.00  0.00     0.011 A 
ENDBRANCH   4  20
TORSDOF 2
ENDMDL
MODEL 5
REMARK VINA RESULT:      -9.2      3.211      8.130
REMARK  2 active torsions:
REMARK  status: ('A' for Active; 'I' for Inactive)
REMARK    1  A    between atoms: C_5  and  C_6 
REMARK    2  A    between atoms: C_9  and  C_10 
ROOT
HETATM    1  C   UNL     1       7.953  28.485  56.140  1.00  0.00     0.220 C 
HETATM    2  N   UNL     1       8.629  29.146  57.242  1.00  0.00    -0.126 NA
HETATM    3  N   UNL     1       7.724  30.075  57.801  1.00  0.00    -0.126 NA
HETATM    4  C   UNL     1       8.494  31.223  58.242  1.00  0.00     0.220 C 
HETATM    5  N   UNL     1       9.858  30.877  57.935  1.00  0.00    -0.324 N 
HETATM    6  C   UNL     1       9.881  29.732  57.146  1.00  0.00     0.315 C 
HETATM    7  O   UNL     1      10.816  29.391  56.443  1.00  0.00    -0.252 OA
HETATM    8  C   UNL     1       6.601  30.156  56.994  1.00  0.00     0.315 C 
HETATM    9  O   UNL     1       5.772  31.047  56.951  1.00  0.00    -0.252 OA
HETATM   10  N   UNL     1       6.634  29.062  56.135  1.00  0.00    -0.324 N 
HETATM   11  H   UNL     1      10.611  31.544  57.877  1.00  0.00     0.165 HD
HETATM   12  H   UNL     1       6.000  29.016  55.352  1.00  0.00     0.165 HD
ENDROOT
BRANCH   1  13
HETATM   13  C   UNL     1       7.916  26.984  56.292  1.00  0.00    -0.020 A 
HETATM   14  C   UNL     1       8.383  26.356  57.459  1.00  0.00     0.011 A 
HETATM   15  C   UNL     1       8.398  24.964  57.567  1.00  0.00     0.007 A 
HETATM   16  C   UNL     1       7.942  24.168  56.512  1.00  0.00    -0.062 A 
HETATM   17  C   UNL     1       7.966  22.673  56.618  1.00  0.00     0.048 C 
HETATM   18  C   UNL     1       7.426  24.788  55.369  1.00  0.00     0.007 A 
HETATM   19  C   UNL     1       7.415  26.181  55.258  1.00  0.00     0.011 A 
ENDBRANCH   1  13
BRANCH   4  20
HETATM   20  C   UNL     1       8.301  31.529  59.707  1.00  0.00    -0.020 A 
HETATM   21  C   UNL     1       7.073  32.003  60.200  1.00  0.00     0.011 A 
HETATM   22  C   UNL     1       6.923  32.339  61.547  1.00  0.00     0.007 A 
HETATM   23  C   UNL     1       7.996  32.204  62.432  1.00  0.00    -0.062 A 
HETATM   24  C   UNL     1       7.839  32.573  63.878  1.00  0.00     0.048 C 
HETATM   25  C   UNL     1       9.204  31.681  61.962  1.00  0.00     0.007 A 
HETATM   26  C   UNL     1       9.357  31.348  60.613  1.00  0.00     0.011 A 
ENDBRANCH   4  20
TORSDOF 2
ENDMDL
MODEL 6
REMARK VINA RESULT:      -9.2      3.230      4.536
REMARK  2 active torsions:
REMARK  status: ('A' for Active; 'I' for Inactive)
REMARK    1  A    between atoms: C_5  and  C_6 
REMARK    2  A    between atoms: C_9  and  C_10 
ROOT
HETATM    1  C   UNL     1       8.486  31.247  58.244  1.00  0.00     0.220 C 
HETATM    2  N   UNL     1       7.720  30.100  57.791  1.00  0.00    -0.126 NA
HETATM    3  N   UNL     1       8.630  29.172  57.239  1.00  0.00    -0.126 NA
HETATM    4  C   UNL     1       7.965  28.516  56.129  1.00  0.00     0.220 C 
HETATM    5  N   UNL     1       6.646  29.094  56.112  1.00  0.00    -0.324 N 
HETATM    6  C   UNL     1       6.605  30.184  56.973  1.00  0.00     0.315 C 
HETATM    7  O   UNL     1       5.777  31.076  56.925  1.00  0.00    -0.252 OA
HETATM    8  C   UNL     1       9.883  29.758  57.158  1.00  0.00     0.315 C 
HETATM    9  O   UNL     1      10.824  29.420  56.464  1.00  0.00    -0.252 OA
HETATM   10  N   UNL     1       9.852  30.902  57.950  1.00  0.00    -0.324 N 
HETATM   11  H   UNL     1       6.020  29.050  55.323  1.00  0.00     0.165 HD
HETATM   12  H   UNL     1      10.606  31.568  57.902  1.00  0.00     0.165 HD
ENDROOT
BRANCH   1  13
HETATM   13  C   UNL     1       8.279  31.548  59.708  1.00  0.00    -0.020 A 
HETATM   14  C   UNL     1       7.113  32.186  60.164  1.00  0.00     0.011 A 
HETATM   15  C   UNL     1       6.956  32.512  61.513  1.00  0.00     0.007 A 
HETATM   16  C   UNL     1       7.959  32.204  62.437  1.00  0.00    -0.062 A 
HETATM   17  C   UNL     1       7.800  32.561  63.884  1.00  0.00     0.048 C 
HETATM   18  C   UNL     1       9.098  31.521  61.998  1.00  0.00     0.007 A 
HETATM   19  C   UNL     1       9.259  31.199  60.648  1.00  0.00     0.011 A 
ENDBRANCH   1  13
BRANCH   4  20
HETATM   20  C   UNL     1       7.926  27.014  56.276  1.00  0.00    -0.020 A 
HETATM   21  C   UNL     1       8.417  26.379  57.430  1.00  0.00     0.011 A 
HETATM   22  C   UNL     1       8.430  24.986  57.530  1.00  0.00     0.007 A 
HETATM   23  C   UNL     1       7.949  24.197  56.482  1.00  0.00    -0.062 A 
HETATM   24  C   UNL     1       7.971  22.701  56.585  1.00  0.00     0.048 C 
HETATM   25  C   UNL     1       7.408  24.822  55.354  1.00  0.00     0.007 A 
HETATM   26  C   UNL     1       7.398  26.216  55.250  1.00  0.00     0.011 A 
ENDBRANCH   4  20
TORSDOF 2
ENDMDL
MODEL 7
REMARK VINA RESULT:      -9.1      1.537      7.268
REMARK  2 active torsions:
REMARK  status: ('A' for Active; 'I' for Inactive)
REMARK    1  A    between atoms: C_5  and  C_6 
REMARK    2  A    between atoms: C_9  and  C_10 
ROOT
HETATM    1  C   UNL     1       6.273  26.167  55.052  1.00  0.00     0.220 C 
HETATM    2  N   UNL     1       7.059  27.277  55.560  1.00  0.00    -0.126 NA
HETATM    3  N   UNL     1       6.219  28.043  56.399  1.00  0.00    -0.126 NA
HETATM    4  C   UNL     1       6.599  29.434  56.244  1.00  0.00     0.220 C 
HETATM    5  N   UNL     1       7.699  29.402  55.314  1.00  0.00    -0.324 N 
HETATM    6  C   UNL     1       7.804  28.131  54.763  1.00  0.00     0.315 C 
HETATM    7  O   UNL     1       8.378  27.871  53.720  1.00  0.00    -0.252 OA
HETATM    8  C   UNL     1       4.920  27.575  56.290  1.00  0.00     0.315 C 
HETATM    9  O   UNL     1       3.889  28.152  56.584  1.00  0.00    -0.252 OA
HETATM   10  N   UNL     1       4.983  26.332  55.667  1.00  0.00    -0.324 N 
HETATM   11  H   UNL     1       8.027  30.204  54.799  1.00  0.00     0.165 HD
HETATM   12  H   UNL     1       4.139  25.890  55.339  1.00  0.00     0.165 HD
ENDROOT
BRANCH   1  13
HETATM   13  C   UNL     1       6.886  24.824  55.368  1.00  0.00    -0.020 A 
HETATM   14  C   UNL     1       7.461  24.561  56.623  1.00  0.00     0.011 A 
HETATM   15  C   UNL     1       8.077  23.336  56.886  1.00  0.00     0.007 A 
HETATM   16  C   UNL     1       8.127  22.344  55.902  1.00  0.00    -0.062 A 
HETATM   17  C   UNL     1       8.795  21.030  56.175  1.00  0.00     0.048 C 
HETATM   18  C   UNL     1       7.509  22.579  54.669  1.00  0.00     0.007 A 
HETATM   19  C   UNL     1       6.897  23.807  54.403  1.00  0.00     0.011 A 
ENDBRANCH   1  13
BRANCH   4  20
HETATM   20  C   UNL     1       6.979  30.086  57.551  1.00  0.00    -0.020 A 
HETATM   21  C   UNL     1       6.290  31.212  58.034  1.00  0.00     0.011 A 
HETATM   22  C   UNL     1       6.686  31.842  59.215  1.00  0.00     0.007 A 
HETATM   23  C   UNL     1       7.778  31.360  59.942  1.00  0.00    -0.062 A 
HETATM   24  C   UNL     1       8.211  32.042  61.205  1.00  0.00     0.048 C 
HETATM   25  C   UNL     1       8.435  30.208  59.497  1.00  0.00     0.007 A 
HETATM   26  C   UNL     1       8.042  29.579  58.313  1.00  0.00     0.011 A 
ENDBRANCH   4  20
TORSDOF 2
ENDMDL
MODEL 8
REMARK VINA RESULT:      -8.6      4.025      5.795
REMARK  2 active torsions:
REMARK  status: ('A' for Active; 'I' for Inactive)
REMARK    1  A    between atoms: C_5  and  C_6 
REMARK    2  A    between atoms: C_9  and  C_10 
ROOT
HETATM    1  C   UNL     1       8.210  32.263  59.338  1.00  0.00     0.220 C 
HETATM    2  N   UNL     1       7.370  31.257  58.712  1.00  0.00    -0.126 NA
HETATM    3  N   UNL     1       8.221  30.268  58.171  1.00  0.00    -0.126 NA
HETATM    4  C   UNL     1       7.609  29.787  56.947  1.00  0.00     0.220 C 
HETATM    5  N   UNL     1       6.375  30.524  56.852  1.00  0.00    -0.324 N 
HETATM    6  C   UNL     1       6.368  31.541  57.799  1.00  0.00     0.315 C 
HETATM    7  O   UNL     1       5.658  32.531  57.749  1.00  0.00    -0.252 OA
HETATM    8  C   UNL     1       9.535  30.699  58.266  1.00  0.00     0.315 C 
HETATM    9  O   UNL     1      10.501  30.301  57.640  1.00  0.00    -0.252 OA
HETATM   10  N   UNL     1       9.551  31.774  59.150  1.00  0.00    -0.324 N 
HETATM   11  H   UNL     1       5.838  30.619  56.005  1.00  0.00     0.165 HD
HETATM   12  H   UNL     1      10.378  32.343  59.236  1.00  0.00     0.165 HD
ENDROOT
BRANCH   1  13
HETATM   13  C   UNL     1       7.882  32.474  60.795  1.00  0.00    -0.020 A 
HETATM   14  C   UNL     1       6.711  33.144  61.191  1.00  0.00     0.011 A 
HETATM   15  C   UNL     1       6.445  33.385  62.540  1.00  0.00     0.007 A 
HETATM   16  C   UNL     1       7.340  32.958  63.525  1.00  0.00    -0.062 A 
HETATM   17  C   UNL     1       7.065  33.224  64.975  1.00  0.00     0.048 C 
HETATM   18  C   UNL     1       8.480  32.244  63.141  1.00  0.00     0.007 A 
HETATM   19  C   UNL     1       8.751  32.006  61.791  1.00  0.00     0.011 A 
ENDBRANCH   1  13
BRANCH   4  20
HETATM   20  C   UNL     1       7.381  28.295  56.955  1.00  0.00    -0.020 A 
HETATM   21  C   UNL     1       8.437  27.395  57.181  1.00  0.00     0.011 A 
HETATM   22  C   UNL     1       8.227  26.016  57.128  1.00  0.00     0.007 A 
HETATM   23  C   UNL     1       6.955  25.505  56.851  1.00  0.00    -0.062 A 
HETATM   24  C   UNL     1       6.730  24.023  56.785  1.00  0.00     0.048 C 
HETATM   25  C   UNL     1       5.888  26.392  56.681  1.00  0.00     0.007 A 
HETATM   26  C   UNL     1       6.099  27.773  56.729  1.00  0.00     0.011 A 
ENDBRANCH   4  20
TORSDOF 2
ENDMDL
MODEL 9
REMARK VINA RESULT:      -8.0      7.856     12.807
REMARK  2 active torsions:
REMARK  status: ('A' for Active; 'I' for Inactive)
REMARK    1  A    between atoms: C_5  and  C_6 
REMARK    2  A    between atoms: C_9  and  C_10 
ROOT
HETATM    1  C   UNL     1       6.265  32.863  61.969  1.00  0.00     0.220 C 
HETATM    2  N   UNL     1       5.893  34.242  61.710  1.00  0.00    -0.126 NA
HETATM    3  N   UNL     1       6.144  34.979  62.889  1.00  0.00    -0.126 NA
HETATM    4  C   UNL     1       5.121  36.001  62.991  1.00  0.00     0.220 C 
HETATM    5  N   UNL     1       4.317  35.821  61.810  1.00  0.00    -0.324 N 
HETATM    6  C   UNL     1       4.673  34.633  61.183  1.00  0.00     0.315 C 
HETATM    7  O   UNL     1       3.972  34.029  60.390  1.00  0.00    -0.252 OA
HETATM    8  C   UNL     1       6.473  34.102  63.910  1.00  0.00     0.315 C 
HETATM    9  O   UNL     1       6.437  34.303  65.110  1.00  0.00    -0.252 OA
HETATM   10  N   UNL     1       6.759  32.875  63.320  1.00  0.00    -0.324 N 
HETATM   11  H   UNL     1       3.386  36.192  61.697  1.00  0.00     0.165 HD
HETATM   12  H   UNL     1       6.859  32.052  63.893  1.00  0.00     0.165 HD
ENDROOT
BRANCH   1  13
HETATM   13  C   UNL     1       7.290  32.341  60.993  1.00  0.00    -0.020 A 
HETATM   14  C   UNL     1       8.660  32.335  61.305  1.00  0.00     0.011 A 
HETATM   15  C   UNL     1       9.606  31.904  60.373  1.00  0.00     0.007 A 
HETATM   16  C   UNL     1       9.204  31.464  59.109  1.00  0.00    -0.062 A 
HETATM   17  C   UNL     1      10.216  31.009  58.100  1.00  0.00     0.048 C 
HETATM   18  C   UNL     1       7.838  31.416  58.811  1.00  0.00     0.007 A 
HETATM   19  C   UNL     1       6.890  31.852  59.740  1.00  0.00     0.011 A 
ENDBRANCH   1  13
BRANCH   4  20
HETATM   20  C   UNL     1       5.693  37.395  63.082  1.00  0.00    -0.020 A 
HETATM   21  C   UNL     1       6.333  37.996  61.985  1.00  0.00     0.011 A 
HETATM   22  C   UNL     1       6.911  39.262  62.097  1.00  0.00     0.007 A 
HETATM   23  C   UNL     1       6.859  39.958  63.308  1.00  0.00    -0.062 A 
HETATM   24  C   UNL     1       7.487  41.314  63.433  1.00  0.00     0.048 C 
HETATM   25  C   UNL     1       6.176  39.390  64.389  1.00  0.00     0.007 A 
HETATM   26  C   UNL     1       5.601  38.121  64.279  1.00  0.00     0.011 A 
ENDBRANCH   4  20
TORSDOF 2
ENDMDL
MODEL 10
REMARK VINA RESULT:      -7.9      7.793     10.900
REMARK  2 active torsions:
REMARK  status: ('A' for Active; 'I' for Inactive)
REMARK    1  A    between atoms: C_5  and  C_6 
REMARK    2  A    between atoms: C_9  and  C_10 
ROOT
HETATM    1  C   UNL     1       5.063  35.872  62.925  1.00  0.00     0.220 C 
HETATM    2  N   UNL     1       6.095  34.857  62.822  1.00  0.00    -0.126 NA
HETATM    3  N   UNL     1       5.877  34.148  61.620  1.00  0.00    -0.126 NA
HETATM    4  C   UNL     1       6.250  32.766  61.854  1.00  0.00     0.220 C 
HETATM    5  N   UNL     1       6.712  32.748  63.218  1.00  0.00    -0.324 N 
HETATM    6  C   UNL     1       6.404  33.957  63.829  1.00  0.00     0.315 C 
HETATM    7  O   UNL     1       6.338  34.131  65.034  1.00  0.00    -0.252 OA
HETATM    8  C   UNL     1       4.667  34.545  61.073  1.00  0.00     0.315 C 
HETATM    9  O   UNL     1       3.989  33.957  60.250  1.00  0.00    -0.252 OA
HETATM   10  N   UNL     1       4.289  35.716  61.721  1.00  0.00    -0.324 N 
HETATM   11  H   UNL     1       6.803  31.911  63.773  1.00  0.00     0.165 HD
HETATM   12  H   UNL     1       3.359  36.085  61.595  1.00  0.00     0.165 HD
ENDROOT
BRANCH   1  13
HETATM   13  C   UNL     1       5.624  37.266  63.063  1.00  0.00    -0.020 A 
HETATM   14  C   UNL     1       6.252  37.911  61.984  1.00  0.00     0.011 A 
HETATM   15  C   UNL     1       6.820  39.177  62.138  1.00  0.00     0.007 A 
HETATM   16  C   UNL     1       6.768  39.830  63.373  1.00  0.00    -0.062 A 
HETATM   17  C   UNL     1       7.385  41.185  63.547  1.00  0.00     0.048 C 
HETATM   18  C   UNL     1       6.097  39.217  64.437  1.00  0.00     0.007 A 
HETATM   19  C   UNL     1       5.533  37.947  64.285  1.00  0.00     0.011 A 
ENDBRANCH   1  13
BRANCH   4  20
HETATM   20  C   UNL     1       7.302  32.273  60.891  1.00  0.00    -0.020 A 
HETATM   21  C   UNL     1       8.671  32.357  61.197  1.00  0.00     0.011 A 
HETATM   22  C   UNL     1       9.638  31.952  60.274  1.00  0.00     0.007 A 
HETATM   23  C   UNL     1       9.258  31.451  59.026  1.00  0.00    -0.062 A 
HETATM   24  C   UNL     1      10.296  31.024  58.031  1.00  0.00     0.048 C 
HETATM   25  C   UNL     1       7.897  31.312  58.735  1.00  0.00     0.007 A 
HETATM   26  C   UNL     1       6.928  31.721  59.656  1.00  0.00     0.011 A 
ENDBRANCH   4  20
TORSDOF 2
ENDMDL
