MODEL 1
REMARK VINA RESULT:     -10.1      0.000      0.000
REMARK  3 active torsions:
REMARK  status: ('A' for Active; 'I' for Inactive)
REMARK    1  A    between atoms: O_2  and  C_3 
REMARK    2  A    between atoms: C_9  and  C_10 
REMARK       I    between atoms: C_10  and  N_11 
REMARK    3  A    between atoms: N_11  and  C_12 
ROOT
HETATM    1  C   UNL     1       5.532  34.482  67.346  1.00  0.00     0.068 A 
HETATM    2  C   UNL     1       6.627  34.057  66.587  1.00  0.00     0.044 A 
HETATM    3  C   UNL     1       6.455  33.616  65.268  1.00  0.00    -0.043 A 
HETATM    4  C   UNL     1       5.155  33.576  64.716  1.00  0.00    -0.001 A 
HETATM    5  C   UNL     1       5.051  33.123  63.339  1.00  0.00     0.069 A 
HETATM    6  C   UNL     1       6.125  32.943  62.496  1.00  0.00     0.007 A 
HETATM    7  C   UNL     1       5.575  32.530  61.257  1.00  0.00     0.153 A 
HETATM    8  N   UNL     1       4.226  32.429  61.344  1.00  0.00    -0.168 NA
HETATM    9  N   UNL     1       3.948  32.793  62.615  1.00  0.00    -0.276 N 
HETATM   10  H   UNL     1       2.980  32.790  62.915  1.00  0.00     0.189 HD
HETATM   11  C   UNL     1       7.517  33.228  62.938  1.00  0.00     0.048 C 
HETATM   12  C   UNL     1       7.649  33.094  64.474  1.00  0.00     0.044 C 
HETATM   13  C   UNL     1       4.063  33.994  65.476  1.00  0.00     0.017 A 
HETATM   14  C   UNL     1       4.253  34.447  66.788  1.00  0.00     0.037 A 
ENDROOT
BRANCH   7  15
HETATM   15  C   UNL     1       6.285  32.249  59.993  1.00  0.00     0.277 C 
HETATM   16  N   UNL     1       7.292  31.320  60.175  1.00  0.00    -0.322 N 
HETATM   17  H   UNL     1       7.370  31.010  61.143  1.00  0.00     0.169 HD
HETATM   18  O   UNL     1       5.978  32.793  58.939  1.00  0.00    -0.266 OA
BRANCH  16  19
HETATM   19  C   UNL     1       8.161  30.766  59.221  1.00  0.00     0.036 A 
HETATM   20  C   UNL     1       7.931  29.551  58.571  1.00  0.00     0.056 A 
HETATM   21  C   UNL     1       8.856  29.068  57.640  1.00  0.00     0.074 A 
HETATM   22 CL   UNL     1       8.560  27.565  56.851  1.00  0.00    -0.081 Cl
HETATM   23  C   UNL     1      10.008  29.797  57.359  1.00  0.00     0.138 A 
HETATM   24  F   UNL     1      10.908  29.348  56.471  1.00  0.00    -0.204 F 
HETATM   25  C   UNL     1      10.248  31.008  57.997  1.00  0.00     0.046 A 
HETATM   26  C   UNL     1       9.325  31.491  58.927  1.00  0.00     0.032 A 
ENDBRANCH  16  19
ENDBRANCH   7  15
BRANCH   1  27
HETATM   27  O   UNL     1       5.845  34.898  68.611  1.00  0.00    -0.356 OA
HETATM   28  C   UNL     1       7.215  34.838  68.989  1.00  0.00     0.210 C 
ENDBRANCH   1  27
TORSDOF 3
ENDMDL
MODEL 2
REMARK VINA RESULT:      -9.7      5.836     11.434
REMARK  3 active torsions:
REMARK  status: ('A' for Active; 'I' for Inactive)
REMARK    1  A    between atoms: O_2  and  C_3 
REMARK    2  A    between atoms: C_9  and  C_10 
REMARK       I    between atoms: C_10  and  N_11 
REMARK    3  A    between atoms: N_11  and  C_12 
ROOT
HETATM    1  C   UNL     1       8.009  22.048  53.567  1.00  0.00     0.068 A 
HETATM    2  C   UNL     1       7.951  22.418  54.914  1.00  0.00     0.044 A 
HETATM    3  C   UNL     1       7.724  23.751  55.282  1.00  0.00    -0.043 A 
HETATM    4  C   UNL     1       7.584  24.732  54.275  1.00  0.00    -0.001 A 
HETATM    5  C   UNL     1       7.336  26.091  54.726  1.00  0.00     0.069 A 
HETATM    6  C   UNL     1       7.024  26.436  56.022  1.00  0.00     0.007 A 
HETATM    7  C   UNL     1       6.835  27.839  56.010  1.00  0.00     0.153 A 
HETATM    8  N   UNL     1       7.055  28.340  54.770  1.00  0.00    -0.168 NA
HETATM    9  N   UNL     1       7.355  27.256  54.024  1.00  0.00    -0.276 N 
HETATM   10  H   UNL     1       7.564  27.390  53.041  1.00  0.00     0.189 HD
HETATM   11  C   UNL     1       6.891  25.407  57.090  1.00  0.00     0.048 C 
HETATM   12  C   UNL     1       7.727  24.149  56.755  1.00  0.00     0.044 C 
HETATM   13  C   UNL     1       7.649  24.364  52.931  1.00  0.00     0.017 A 
HETATM   14  C   UNL     1       7.860  23.024  52.579  1.00  0.00     0.037 A 
ENDROOT
BRANCH   7  15
HETATM   15  C   UNL     1       6.436  28.714  57.131  1.00  0.00     0.277 C 
HETATM   16  N   UNL     1       7.498  29.478  57.579  1.00  0.00    -0.322 N 
HETATM   17  H   UNL     1       8.359  29.290  57.069  1.00  0.00     0.169 HD
HETATM   18  O   UNL     1       5.292  28.731  57.569  1.00  0.00    -0.266 OA
BRANCH  16  19
HETATM   19  C   UNL     1       7.516  30.450  58.592  1.00  0.00     0.036 A 
HETATM   20  C   UNL     1       8.498  30.523  59.585  1.00  0.00     0.056 A 
HETATM   21  C   UNL     1       8.432  31.519  60.563  1.00  0.00     0.074 A 
HETATM   22 CL   UNL     1       9.648  31.592  61.782  1.00  0.00    -0.081 Cl
HETATM   23  C   UNL     1       7.390  32.442  60.551  1.00  0.00     0.138 A 
HETATM   24  F   UNL     1       7.310  33.403  61.484  1.00  0.00    -0.204 F 
HETATM   25  C   UNL     1       6.409  32.382  59.570  1.00  0.00     0.046 A 
HETATM   26  C   UNL     1       6.472  31.387  58.591  1.00  0.00     0.032 A 
ENDBRANCH  16  19
ENDBRANCH   7  15
BRANCH   1  27
HETATM   27  O   UNL     1       8.223  20.715  53.352  1.00  0.00    -0.356 OA
HETATM   28  C   UNL     1       8.793  19.972  54.423  1.00  0.00     0.210 C 
ENDBRANCH   1  27
TORSDOF 3
ENDMDL
MODEL 3
REMARK VINA RESULT:      -9.2      2.734      4.188
REMARK  3 active torsions:
REMARK  status: ('A' for Active; 'I' for Inactive)
REMARK    1  A    between atoms: O_2  and  C_3 
REMARK    2  A    between atoms: C_9  and  C_10 
REMARK       I    between atoms: C_10  and  N_11 
REMARK    3  A    between atoms: N_11  and  C_12 
ROOT
HETATM    1  C   UNL     1       6.094  34.346  64.487  1.00  0.00     0.068 A 
HETATM    2  C   UNL     1       5.645  34.244  63.166  1.00  0.00     0.044 A 
HETATM    3  C   UNL     1       6.292  33.400  62.253  1.00  0.00    -0.043 A 
HETATM    4  C   UNL     1       7.426  32.669  62.672  1.00  0.00    -0.001 A 
HETATM    5  C   UNL     1       8.038  31.802  61.680  1.00  0.00     0.069 A 
HETATM    6  C   UNL     1       7.473  31.492  60.462  1.00  0.00     0.007 A 
HETATM    7  C   UNL     1       8.380  30.604  59.834  1.00  0.00     0.153 A 
HETATM    8  N   UNL     1       9.470  30.403  60.614  1.00  0.00    -0.168 NA
HETATM    9  N   UNL     1       9.227  31.143  61.718  1.00  0.00    -0.276 N 
HETATM   10  H   UNL     1       9.922  31.149  62.456  1.00  0.00     0.189 HD
HETATM   11  C   UNL     1       6.140  32.022  60.066  1.00  0.00     0.048 C 
HETATM   12  C   UNL     1       5.831  33.349  60.800  1.00  0.00     0.044 C 
HETATM   13  C   UNL     1       7.877  32.776  63.987  1.00  0.00     0.017 A 
HETATM   14  C   UNL     1       7.210  33.612  64.892  1.00  0.00     0.037 A 
ENDROOT
BRANCH   7  15
HETATM   15  C   UNL     1       8.237  29.928  58.529  1.00  0.00     0.277 C 
HETATM   16  N   UNL     1       7.343  28.875  58.601  1.00  0.00    -0.322 N 
HETATM   17  H   UNL     1       6.960  28.749  59.536  1.00  0.00     0.169 HD
HETATM   18  O   UNL     1       8.849  30.296  57.533  1.00  0.00    -0.266 OA
BRANCH  16  19
HETATM   19  C   UNL     1       6.910  28.018  57.576  1.00  0.00     0.036 A 
HETATM   20  C   UNL     1       7.623  26.895  57.147  1.00  0.00     0.056 A 
HETATM   21  C   UNL     1       7.121  26.101  56.111  1.00  0.00     0.074 A 
HETATM   22 CL   UNL     1       8.015  24.723  55.589  1.00  0.00    -0.081 Cl
HETATM   23  C   UNL     1       5.911  26.427  55.505  1.00  0.00     0.138 A 
HETATM   24  F   UNL     1       5.416  25.678  54.508  1.00  0.00    -0.204 F 
HETATM   25  C   UNL     1       5.191  27.539  55.924  1.00  0.00     0.046 A 
HETATM   26  C   UNL     1       5.691  28.334  56.958  1.00  0.00     0.032 A 
ENDBRANCH  16  19
ENDBRANCH   7  15
BRANCH   1  27
HETATM   27  O   UNL     1       5.363  35.196  65.271  1.00  0.00    -0.356 OA
HETATM   28  C   UNL     1       4.387  34.608  66.123  1.00  0.00     0.210 C 
ENDBRANCH   1  27
TORSDOF 3
ENDMDL
MODEL 4
REMARK VINA RESULT:      -9.2      6.761      9.010
REMARK  3 active torsions:
REMARK  status: ('A' for Active; 'I' for Inactive)
REMARK    1  A    between atoms: O_2  and  C_3 
REMARK    2  A    between atoms: C_9  and  C_10 
REMARK       I    between atoms: C_10  and  N_11 
REMARK    3  A    between atoms: N_11  and  C_12 
ROOT
HETATM    1  C   UNL     1       3.791  32.022  57.341  1.00  0.00     0.068 A 
HETATM    2  C   UNL     1       3.567  30.775  56.750  1.00  0.00     0.044 A 
HETATM    3  C   UNL     1       4.570  29.797  56.738  1.00  0.00    -0.043 A 
HETATM    4  C   UNL     1       5.830  30.092  57.307  1.00  0.00    -0.001 A 
HETATM    5  C   UNL     1       6.819  29.028  57.274  1.00  0.00     0.069 A 
HETATM    6  C   UNL     1       6.546  27.722  56.931  1.00  0.00     0.007 A 
HETATM    7  C   UNL     1       7.773  27.027  57.063  1.00  0.00     0.153 A 
HETATM    8  N   UNL     1       8.763  27.873  57.437  1.00  0.00    -0.168 NA
HETATM    9  N   UNL     1       8.149  29.070  57.553  1.00  0.00    -0.276 N 
HETATM   10  H   UNL     1       8.706  29.872  57.827  1.00  0.00     0.189 HD
HETATM   11  C   UNL     1       5.169  27.282  56.577  1.00  0.00     0.048 C 
HETATM   12  C   UNL     1       4.332  28.465  56.032  1.00  0.00     0.044 C 
HETATM   13  C   UNL     1       6.055  31.338  57.891  1.00  0.00     0.017 A 
HETATM   14  C   UNL     1       5.037  32.300  57.909  1.00  0.00     0.037 A 
ENDROOT
BRANCH   7  15
HETATM   15  C   UNL     1       8.030  25.586  56.863  1.00  0.00     0.277 C 
HETATM   16  N   UNL     1       7.616  25.167  55.612  1.00  0.00    -0.322 N 
HETATM   17  H   UNL     1       7.200  25.919  55.065  1.00  0.00     0.169 HD
HETATM   18  O   UNL     1       8.553  24.892  57.727  1.00  0.00    -0.266 OA
BRANCH  16  19
HETATM   19  C   UNL     1       7.720  23.893  55.033  1.00  0.00     0.036 A 
HETATM   20  C   UNL     1       7.795  22.706  55.768  1.00  0.00     0.056 A 
HETATM   21  C   UNL     1       7.908  21.479  55.108  1.00  0.00     0.074 A 
HETATM   22 CL   UNL     1       8.003  20.026  56.029  1.00  0.00    -0.081 Cl
HETATM   23  C   UNL     1       7.945  21.435  53.717  1.00  0.00     0.138 A 
HETATM   24  F   UNL     1       8.056  20.267  53.067  1.00  0.00    -0.204 F 
HETATM   25  C   UNL     1       7.870  22.607  52.974  1.00  0.00     0.046 A 
HETATM   26  C   UNL     1       7.758  23.834  53.632  1.00  0.00     0.032 A 
ENDBRANCH  16  19
ENDBRANCH   7  15
BRANCH   1  27
HETATM   27  O   UNL     1       2.723  32.875  57.292  1.00  0.00    -0.356 OA
HETATM   28  C   UNL     1       3.011  34.266  57.235  1.00  0.00     0.210 C 
ENDBRANCH   1  27
TORSDOF 3
ENDMDL
MODEL 5
REMARK VINA RESULT:      -9.1      4.591      9.722
REMARK  3 active torsions:
REMARK  status: ('A' for Active; 'I' for Inactive)
REMARK    1  A    between atoms: O_2  and  C_3 
REMARK    2  A    between atoms: C_9  and  C_10 
REMARK       I    between atoms: C_10  and  N_11 
REMARK    3  A    between atoms: N_11  and  C_12 
ROOT
HETATM    1  C   UNL     1       6.390  25.279  54.793  1.00  0.00     0.068 A 
HETATM    2  C   UNL     1       7.433  25.744  55.599  1.00  0.00     0.044 A 
HETATM    3  C   UNL     1       7.365  27.007  56.203  1.00  0.00    -0.043 A 
HETATM    4  C   UNL     1       6.238  27.826  55.966  1.00  0.00    -0.001 A 
HETATM    5  C   UNL     1       6.225  29.116  56.634  1.00  0.00     0.069 A 
HETATM    6  C   UNL     1       7.107  29.489  57.624  1.00  0.00     0.007 A 
HETATM    7  C   UNL     1       6.719  30.795  58.011  1.00  0.00     0.153 A 
HETATM    8  N   UNL     1       5.666  31.219  57.271  1.00  0.00    -0.168 NA
HETATM    9  N   UNL     1       5.398  30.180  56.451  1.00  0.00    -0.276 N 
HETATM   10  H   UNL     1       4.634  30.272  55.791  1.00  0.00     0.189 HD
HETATM   11  C   UNL     1       8.163  28.561  58.114  1.00  0.00     0.048 C 
HETATM   12  C   UNL     1       8.539  27.525  57.027  1.00  0.00     0.044 C 
HETATM   13  C   UNL     1       5.200  27.365  55.155  1.00  0.00     0.017 A 
HETATM   14  C   UNL     1       5.277  26.093  54.572  1.00  0.00     0.037 A 
ENDROOT
BRANCH   7  15
HETATM   15  C   UNL     1       7.302  31.641  59.072  1.00  0.00     0.277 C 
HETATM   16  N   UNL     1       6.515  31.640  60.208  1.00  0.00    -0.322 N 
HETATM   17  H   UNL     1       5.676  31.072  60.105  1.00  0.00     0.169 HD
HETATM   18  O   UNL     1       8.358  32.244  58.918  1.00  0.00    -0.266 OA
BRANCH  16  19
HETATM   19  C   UNL     1       6.742  32.284  61.435  1.00  0.00     0.036 A 
HETATM   20  C   UNL     1       6.107  33.467  61.824  1.00  0.00     0.056 A 
HETATM   21  C   UNL     1       6.401  34.046  63.062  1.00  0.00     0.074 A 
HETATM   22 CL   UNL     1       5.612  35.507  63.524  1.00  0.00    -0.081 Cl
HETATM   23  C   UNL     1       7.327  33.447  63.911  1.00  0.00     0.138 A 
HETATM   24  F   UNL     1       7.624  33.990  65.101  1.00  0.00    -0.204 F 
HETATM   25  C   UNL     1       7.965  32.269  63.538  1.00  0.00     0.046 A 
HETATM   26  C   UNL     1       7.672  31.690  62.301  1.00  0.00     0.032 A 
ENDBRANCH  16  19
ENDBRANCH   7  15
BRANCH   1  27
HETATM   27  O   UNL     1       6.583  24.027  54.279  1.00  0.00    -0.356 OA
HETATM   28  C   UNL     1       7.273  23.092  55.099  1.00  0.00     0.210 C 
ENDBRANCH   1  27
TORSDOF 3
ENDMDL
MODEL 6
REMARK VINA RESULT:      -9.1      4.563      9.900
REMARK  3 active torsions:
REMARK  status: ('A' for Active; 'I' for Inactive)
REMARK    1  A    between atoms: O_2  and  C_3 
REMARK    2  A    between atoms: C_9  and  C_10 
REMARK       I    between atoms: C_10  and  N_11 
REMARK    3  A    between atoms: N_11  and  C_12 
ROOT
HETATM    1  C   UNL     1       5.444  26.708  54.001  1.00  0.00     0.068 A 
HETATM    2  C   UNL     1       4.841  27.585  54.908  1.00  0.00     0.044 A 
HETATM    3  C   UNL     1       5.608  28.274  55.857  1.00  0.00    -0.043 A 
HETATM    4  C   UNL     1       7.003  28.053  55.910  1.00  0.00    -0.001 A 
HETATM    5  C   UNL     1       7.739  28.810  56.908  1.00  0.00     0.069 A 
HETATM    6  C   UNL     1       7.215  29.857  57.634  1.00  0.00     0.007 A 
HETATM    7  C   UNL     1       8.272  30.321  58.455  1.00  0.00     0.153 A 
HETATM    8  N   UNL     1       9.386  29.573  58.267  1.00  0.00    -0.168 NA
HETATM    9  N   UNL     1       9.025  28.672  57.328  1.00  0.00    -0.276 N 
HETATM   10  H   UNL     1       9.713  27.991  57.024  1.00  0.00     0.189 HD
HETATM   11  C   UNL     1       5.815  30.319  57.431  1.00  0.00     0.048 C 
HETATM   12  C   UNL     1       4.928  29.177  56.881  1.00  0.00     0.044 C 
HETATM   13  C   UNL     1       7.603  27.173  55.010  1.00  0.00     0.017 A 
HETATM   14  C   UNL     1       6.825  26.504  54.057  1.00  0.00     0.037 A 
ENDROOT
BRANCH   7  15
HETATM   15  C   UNL     1       8.262  31.460  59.394  1.00  0.00     0.277 C 
HETATM   16  N   UNL     1       7.437  31.216  60.476  1.00  0.00    -0.322 N 
HETATM   17  H   UNL     1       6.978  30.308  60.423  1.00  0.00     0.169 HD
HETATM   18  O   UNL     1       8.926  32.471  59.199  1.00  0.00    -0.266 OA
BRANCH  16  19
HETATM   19  C   UNL     1       7.190  32.028  61.595  1.00  0.00     0.036 A 
HETATM   20  C   UNL     1       6.093  32.886  61.708  1.00  0.00     0.056 A 
HETATM   21  C   UNL     1       5.930  33.669  62.855  1.00  0.00     0.074 A 
HETATM   22 CL   UNL     1       4.574  34.725  62.976  1.00  0.00    -0.081 Cl
HETATM   23  C   UNL     1       6.860  33.595  63.888  1.00  0.00     0.138 A 
HETATM   24  F   UNL     1       6.722  34.340  64.995  1.00  0.00    -0.204 F 
HETATM   25  C   UNL     1       7.955  32.744  63.790  1.00  0.00     0.046 A 
HETATM   26  C   UNL     1       8.119  31.962  62.644  1.00  0.00     0.032 A 
ENDBRANCH  16  19
ENDBRANCH   7  15
BRANCH   1  27
HETATM   27  O   UNL     1       4.579  26.114  53.123  1.00  0.00    -0.356 OA
HETATM   28  C   UNL     1       4.980  24.869  52.566  1.00  0.00     0.210 C 
ENDBRANCH   1  27
TORSDOF 3
ENDMDL
MODEL 7
REMARK VINA RESULT:      -9.1      6.462     11.578
REMARK  3 active torsions:
REMARK  status: ('A' for Active; 'I' for Inactive)
REMARK    1  A    between atoms: O_2  and  C_3 
REMARK    2  A    between atoms: C_9  and  C_10 
REMARK       I    between atoms: C_10  and  N_11 
REMARK    3  A    between atoms: N_11  and  C_12 
ROOT
HETATM    1  C   UNL     1       8.114  21.236  54.837  1.00  0.00     0.068 A 
HETATM    2  C   UNL     1       7.636  22.346  54.134  1.00  0.00     0.044 A 
HETATM    3  C   UNL     1       7.539  23.599  54.753  1.00  0.00    -0.043 A 
HETATM    4  C   UNL     1       7.903  23.728  56.113  1.00  0.00    -0.001 A 
HETATM    5  C   UNL     1       7.792  25.058  56.688  1.00  0.00     0.069 A 
HETATM    6  C   UNL     1       7.571  26.205  55.959  1.00  0.00     0.007 A 
HETATM    7  C   UNL     1       7.566  27.263  56.901  1.00  0.00     0.153 A 
HETATM    8  N   UNL     1       7.743  26.785  58.157  1.00  0.00    -0.168 NA
HETATM    9  N   UNL     1       7.875  25.451  57.987  1.00  0.00    -0.276 N 
HETATM   10  H   UNL     1       8.017  24.873  58.808  1.00  0.00     0.189 HD
HETATM   11  C   UNL     1       7.444  26.172  54.476  1.00  0.00     0.048 C 
HETATM   12  C   UNL     1       6.956  24.785  53.992  1.00  0.00     0.044 C 
HETATM   13  C   UNL     1       8.373  22.619  56.816  1.00  0.00     0.017 A 
HETATM   14  C   UNL     1       8.479  21.376  56.178  1.00  0.00     0.037 A 
ENDROOT
BRANCH   7  15
HETATM   15  C   UNL     1       7.418  28.710  56.645  1.00  0.00     0.277 C 
HETATM   16  N   UNL     1       6.265  29.209  57.220  1.00  0.00    -0.322 N 
HETATM   17  H   UNL     1       5.723  28.493  57.700  1.00  0.00     0.169 HD
HETATM   18  O   UNL     1       8.246  29.346  56.003  1.00  0.00    -0.266 OA
BRANCH  16  19
HETATM   19  C   UNL     1       5.791  30.531  57.235  1.00  0.00     0.036 A 
HETATM   20  C   UNL     1       5.105  31.125  56.172  1.00  0.00     0.056 A 
HETATM   21  C   UNL     1       4.677  32.453  56.269  1.00  0.00     0.074 A 
HETATM   22 CL   UNL     1       3.837  33.172  54.947  1.00  0.00    -0.081 Cl
HETATM   23  C   UNL     1       4.933  33.186  57.424  1.00  0.00     0.138 A 
HETATM   24  F   UNL     1       4.533  34.462  57.533  1.00  0.00    -0.204 F 
HETATM   25  C   UNL     1       5.613  32.608  58.489  1.00  0.00     0.046 A 
HETATM   26  C   UNL     1       6.041  31.281  58.394  1.00  0.00     0.032 A 
ENDBRANCH  16  19
ENDBRANCH   7  15
BRANCH   1  27
HETATM   27  O   UNL     1       8.168  20.080  54.107  1.00  0.00    -0.356 OA
HETATM   28  C   UNL     1       8.437  20.208  52.716  1.00  0.00     0.210 C 
ENDBRANCH   1  27
TORSDOF 3
ENDMDL
MODEL 8
REMARK VINA RESULT:      -9.0     11.393     13.210
REMARK  3 active torsions:
REMARK  status: ('A' for Active; 'I' for Inactive)
REMARK    1  A    between atoms: O_2  and  C_3 
REMARK    2  A    between atoms: C_9  and  C_10 
REMARK       I    between atoms: C_10  and  N_11 
REMARK    3  A    between atoms: N_11  and  C_12 
ROOT
HETATM    1  C   UNL     1       8.676  22.071  55.728  1.00  0.00     0.068 A 
HETATM    2  C   UNL     1       8.489  22.345  54.370  1.00  0.00     0.044 A 
HETATM    3  C   UNL     1       7.777  23.481  53.959  1.00  0.00    -0.043 A 
HETATM    4  C   UNL     1       7.220  24.337  54.936  1.00  0.00    -0.001 A 
HETATM    5  C   UNL     1       6.508  25.503  54.441  1.00  0.00     0.069 A 
HETATM    6  C   UNL     1       6.526  25.929  53.131  1.00  0.00     0.007 A 
HETATM    7  C   UNL     1       5.735  27.104  53.100  1.00  0.00     0.153 A 
HETATM    8  N   UNL     1       5.225  27.370  54.327  1.00  0.00    -0.168 NA
HETATM    9  N   UNL     1       5.713  26.382  55.109  1.00  0.00    -0.276 N 
HETATM   10  H   UNL     1       5.457  26.374  56.089  1.00  0.00     0.189 HD
HETATM   11  C   UNL     1       7.319  25.216  52.093  1.00  0.00     0.048 C 
HETATM   12  C   UNL     1       7.526  23.731  52.476  1.00  0.00     0.044 C 
HETATM   13  C   UNL     1       7.402  24.060  56.290  1.00  0.00     0.017 A 
HETATM   14  C   UNL     1       8.130  22.930  56.684  1.00  0.00     0.037 A 
ENDROOT
BRANCH   7  15
HETATM   15  C   UNL     1       5.464  27.989  51.948  1.00  0.00     0.277 C 
HETATM   16  N   UNL     1       4.526  27.437  51.097  1.00  0.00    -0.322 N 
HETATM   17  H   UNL     1       4.204  26.521  51.407  1.00  0.00     0.169 HD
HETATM   18  O   UNL     1       6.022  29.071  51.813  1.00  0.00    -0.266 OA
BRANCH  16  19
HETATM   19  C   UNL     1       3.978  27.978  49.923  1.00  0.00     0.036 A 
HETATM   20  C   UNL     1       2.842  28.793  49.897  1.00  0.00     0.056 A 
HETATM   21  C   UNL     1       2.358  29.280  48.679  1.00  0.00     0.074 A 
HETATM   22 CL   UNL     1       0.953  30.279  48.664  1.00  0.00    -0.081 Cl
HETATM   23  C   UNL     1       3.005  28.958  47.490  1.00  0.00     0.138 A 
HETATM   24  F   UNL     1       2.553  29.415  46.313  1.00  0.00    -0.204 F 
HETATM   25  C   UNL     1       4.137  28.151  47.502  1.00  0.00     0.046 A 
HETATM   26  C   UNL     1       4.622  27.662  48.718  1.00  0.00     0.032 A 
ENDBRANCH  16  19
ENDBRANCH   7  15
BRANCH   1  27
HETATM   27  O   UNL     1       9.400  20.939  55.985  1.00  0.00    -0.356 OA
HETATM   28  C   UNL     1       9.049  19.770  55.255  1.00  0.00     0.210 C 
ENDBRANCH   1  27
TORSDOF 3
ENDMDL
MODEL 9
REMARK VINA RESULT:      -9.0     12.004     14.115
REMARK  3 active torsions:
REMARK  status: ('A' for Active; 'I' for Inactive)
REMARK    1  A    between atoms: O_2  and  C_3 
REMARK    2  A    between atoms: C_9  and  C_10 
REMARK       I    between atoms: C_10  and  N_11 
REMARK    3  A    between atoms: N_11  and  C_12 
ROOT
HETATM    1  C   UNL     1       4.368  30.882  47.234  1.00  0.00     0.068 A 
HETATM    2  C   UNL     1       4.434  29.485  47.222  1.00  0.00     0.044 A 
HETATM    3  C   UNL     1       4.754  28.772  48.385  1.00  0.00    -0.043 A 
HETATM    4  C   UNL     1       5.041  29.482  49.573  1.00  0.00    -0.001 A 
HETATM    5  C   UNL     1       5.350  28.681  50.745  1.00  0.00     0.069 A 
HETATM    6  C   UNL     1       5.174  27.317  50.825  1.00  0.00     0.007 A 
HETATM    7  C   UNL     1       5.566  26.957  52.137  1.00  0.00     0.153 A 
HETATM    8  N   UNL     1       5.995  28.043  52.824  1.00  0.00    -0.168 NA
HETATM    9  N   UNL     1       5.851  29.064  51.951  1.00  0.00    -0.276 N 
HETATM   10  H   UNL     1       6.117  29.995  52.250  1.00  0.00     0.189 HD
HETATM   11  C   UNL     1       4.617  26.537  49.686  1.00  0.00     0.048 C 
HETATM   12  C   UNL     1       4.885  27.253  48.340  1.00  0.00     0.044 C 
HETATM   13  C   UNL     1       4.982  30.876  49.584  1.00  0.00     0.017 A 
HETATM   14  C   UNL     1       4.645  31.573  48.416  1.00  0.00     0.037 A 
ENDROOT
BRANCH   7  15
HETATM   15  C   UNL     1       5.527  25.620  52.764  1.00  0.00     0.277 C 
HETATM   16  N   UNL     1       6.800  25.136  53.001  1.00  0.00    -0.322 N 
HETATM   17  H   UNL     1       7.528  25.777  52.690  1.00  0.00     0.169 HD
HETATM   18  O   UNL     1       4.473  25.054  53.029  1.00  0.00    -0.266 OA
BRANCH  16  19
HETATM   19  C   UNL     1       7.184  23.931  53.611  1.00  0.00     0.036 A 
HETATM   20  C   UNL     1       7.623  22.806  52.907  1.00  0.00     0.056 A 
HETATM   21  C   UNL     1       7.975  21.642  53.596  1.00  0.00     0.074 A 
HETATM   22 CL   UNL     1       8.510  20.262  52.712  1.00  0.00    -0.081 Cl
HETATM   23  C   UNL     1       7.891  21.599  54.984  1.00  0.00     0.138 A 
HETATM   24  F   UNL     1       8.222  20.490  55.661  1.00  0.00    -0.204 F 
HETATM   25  C   UNL     1       7.458  22.711  55.697  1.00  0.00     0.046 A 
HETATM   26  C   UNL     1       7.105  23.875  55.010  1.00  0.00     0.032 A 
ENDBRANCH  16  19
ENDBRANCH   7  15
BRANCH   1  27
HETATM   27  O   UNL     1       4.032  31.446  46.034  1.00  0.00    -0.356 OA
HETATM   28  C   UNL     1       3.947  32.864  45.990  1.00  0.00     0.210 C 
ENDBRANCH   1  27
TORSDOF 3
ENDMDL
MODEL 10
REMARK VINA RESULT:      -8.9      4.322      6.852
REMARK  3 active torsions:
REMARK  status: ('A' for Active; 'I' for Inactive)
REMARK    1  A    between atoms: O_2  and  C_3 
REMARK    2  A    between atoms: C_9  and  C_10 
REMARK       I    between atoms: C_10  and  N_11 
REMARK    3  A    between atoms: N_11  and  C_12 
ROOT
HETATM    1  C   UNL     1       7.580  32.599  61.889  1.00  0.00     0.068 A 
HETATM    2  C   UNL     1       6.758  32.414  60.773  1.00  0.00     0.044 A 
HETATM    3  C   UNL     1       7.205  31.680  59.666  1.00  0.00    -0.043 A 
HETATM    4  C   UNL     1       8.515  31.149  59.673  1.00  0.00    -0.001 A 
HETATM    5  C   UNL     1       8.909  30.387  58.501  1.00  0.00     0.069 A 
HETATM    6  C   UNL     1       8.043  29.978  57.510  1.00  0.00     0.007 A 
HETATM    7  C   UNL     1       8.832  29.247  56.590  1.00  0.00     0.153 A 
HETATM    8  N   UNL     1      10.131  29.234  56.977  1.00  0.00    -0.168 NA
HETATM    9  N   UNL     1      10.137  29.932  58.133  1.00  0.00    -0.276 N 
HETATM   10  H   UNL     1      11.020  30.059  58.614  1.00  0.00     0.189 HD
HETATM   11  C   UNL     1       6.587  30.278  57.579  1.00  0.00     0.048 C 
HETATM   12  C   UNL     1       6.321  31.543  58.431  1.00  0.00     0.044 C 
HETATM   13  C   UNL     1       9.338  31.339  60.783  1.00  0.00     0.017 A 
HETATM   14  C   UNL     1       8.869  32.062  61.889  1.00  0.00     0.037 A 
ENDROOT
BRANCH   7  15
HETATM   15  C   UNL     1       8.390  28.546  55.367  1.00  0.00     0.277 C 
HETATM   16  N   UNL     1       7.513  27.519  55.663  1.00  0.00    -0.322 N 
HETATM   17  H   UNL     1       7.343  27.423  56.662  1.00  0.00     0.169 HD
HETATM   18  O   UNL     1       8.775  28.875  54.252  1.00  0.00    -0.266 OA
BRANCH  16  19
HETATM   19  C   UNL     1       6.847  26.651  54.783  1.00  0.00     0.036 A 
HETATM   20  C   UNL     1       7.376  25.436  54.336  1.00  0.00     0.056 A 
HETATM   21  C   UNL     1       6.647  24.638  53.450  1.00  0.00     0.074 A 
HETATM   22 CL   UNL     1       7.316  23.146  52.905  1.00  0.00    -0.081 Cl
HETATM   23  C   UNL     1       5.392  25.049  53.011  1.00  0.00     0.138 A 
HETATM   24  F   UNL     1       4.679  24.297  52.159  1.00  0.00    -0.204 F 
HETATM   25  C   UNL     1       4.852  26.253  53.449  1.00  0.00     0.046 A 
HETATM   26  C   UNL     1       5.580  27.052  54.334  1.00  0.00     0.032 A 
ENDBRANCH  16  19
ENDBRANCH   7  15
BRANCH   1  27
HETATM   27  O   UNL     1       7.012  33.323  62.900  1.00  0.00    -0.356 OA
HETATM   28  C   UNL     1       5.887  34.126  62.565  1.00  0.00     0.210 C 
ENDBRANCH   1  27
TORSDOF 3
ENDMDL
