MODEL 1
REMARK VINA RESULT:     -10.9      0.000      0.000
REMARK  8 active torsions:
REMARK  status: ('A' for Active; 'I' for Inactive)
REMARK    1  A    between atoms: C_5  and  C_6 
REMARK    2  A    between atoms: C_11  and  C_12 
REMARK    3  A    between atoms: N_13  and  N_14 
REMARK    4  A    between atoms: C_20  and  C_21 
REMARK    5  A    between atoms: C_21  and  O_22 
REMARK    6  A    between atoms: O_22  and  N_23 
REMARK    7  A    between atoms: N_23  and  C_24 
REMARK    8  A    between atoms: C_24  and  C_25 
ROOT
HETATM    1  N   UNL     1       7.129  24.992  54.990  1.00  0.00    -0.180 N 
HETATM    2  C   UNL     1       7.355  24.149  53.892  1.00  0.00     0.282 C 
HETATM    3  O   UNL     1       7.300  24.479  52.707  1.00  0.00    -0.265 OA
HETATM    4  C   UNL     1       7.739  22.764  54.218  1.00  0.00     0.063 A 
HETATM    5  C   UNL     1       7.951  22.442  55.557  1.00  0.00     0.074 A 
HETATM    6  N   UNL     1       7.806  23.375  56.588  1.00  0.00    -0.230 NA
HETATM    7  C   UNL     1       7.414  24.577  56.283  1.00  0.00     0.157 C 
HETATM    8  C   UNL     1       7.912  21.807  53.209  1.00  0.00     0.019 A 
HETATM    9  C   UNL     1       8.301  20.511  53.546  1.00  0.00     0.001 A 
HETATM   10  C   UNL     1       8.518  20.178  54.882  1.00  0.00     0.002 A 
HETATM   11  C   UNL     1       8.342  21.140  55.881  1.00  0.00     0.032 A 
ENDROOT
BRANCH   1  12
HETATM   12  N   UNL     1       6.823  26.335  54.810  1.00  0.00    -0.174 NA
HETATM   13  C   UNL     1       5.614  26.634  54.459  1.00  0.00     0.154 C 
BRANCH  13  14
HETATM   14  C   UNL     1       5.283  28.016  54.205  1.00  0.00     0.031 A 
HETATM   15  C   UNL     1       4.781  28.618  53.009  1.00  0.00     0.100 A 
HETATM   16  N   UNL     1       4.530  29.925  53.207  1.00  0.00    -0.174 NA
HETATM   17  N   UNL     1       4.915  30.159  54.468  1.00  0.00    -0.288 N 
HETATM   18  H   UNL     1       4.828  31.102  54.828  1.00  0.00     0.188 HD
HETATM   19  C   UNL     1       5.374  29.054  55.111  1.00  0.00     0.124 A 
BRANCH  15  20
HETATM   20  C   UNL     1       4.546  28.008  51.697  1.00  0.00    -0.005 A 
HETATM   21  C   UNL     1       5.185  26.820  51.320  1.00  0.00     0.014 A 
HETATM   22  C   UNL     1       4.956  26.252  50.062  1.00  0.00     0.007 A 
HETATM   23  C   UNL     1       4.099  26.873  49.148  1.00  0.00    -0.062 A 
HETATM   24  C   UNL     1       3.847  26.273  47.797  1.00  0.00     0.048 C 
HETATM   25  C   UNL     1       3.465  28.065  49.516  1.00  0.00     0.007 A 
HETATM   26  C   UNL     1       3.690  28.627  50.776  1.00  0.00     0.014 A 
ENDBRANCH  15  20
ENDBRANCH  13  14
ENDBRANCH   1  12
BRANCH   7  27
HETATM   27  C   UNL     1       7.272  25.602  57.418  1.00  0.00     0.274 C 
BRANCH  27  28
HETATM   28  O   UNL     1       8.328  26.528  57.623  1.00  0.00    -0.293 OA
BRANCH  28  29
HETATM   29  N   UNL     1       7.775  27.799  57.812  1.00  0.00    -0.171 NA
HETATM   30  H   UNL     1       7.435  27.965  58.762  1.00  0.00     0.160 HD
BRANCH  29  31
HETATM   31  C   UNL     1       8.459  28.891  57.309  1.00  0.00     0.035 C 
HETATM   32  C   UNL     1       8.982  28.984  56.077  1.00  0.00     0.039 C 
BRANCH  31  33
HETATM   33  C   UNL     1       8.581  30.053  58.213  1.00  0.00    -0.014 A 
HETATM   34  C   UNL     1       7.457  30.512  58.913  1.00  0.00     0.013 A 
HETATM   35  C   UNL     1       7.556  31.612  59.768  1.00  0.00     0.001 A 
HETATM   36  C   UNL     1       8.782  32.257  59.934  1.00  0.00     0.000 A 
HETATM   37  C   UNL     1       9.908  31.802  59.249  1.00  0.00     0.001 A 
HETATM   38  C   UNL     1       9.809  30.705  58.391  1.00  0.00     0.013 A 
ENDBRANCH  31  33
ENDBRANCH  29  31
ENDBRANCH  28  29
ENDBRANCH  27  28
ENDBRANCH   7  27
TORSDOF 8
ENDMDL
MODEL 2
REMARK VINA RESULT:     -10.7      1.566      6.082
REMARK  8 active torsions:
REMARK  status: ('A' for Active; 'I' for Inactive)
REMARK    1  A    between atoms: C_5  and  C_6 
REMARK    2  A    between atoms: C_11  and  C_12 
REMARK    3  A    between atoms: N_13  and  N_14 
REMARK    4  A    between atoms: C_20  and  C_21 
REMARK    5  A    between atoms: C_21  and  O_22 
REMARK    6  A    between atoms: O_22  and  N_23 
REMARK    7  A    between atoms: N_23  and  C_24 
REMARK    8  A    between atoms: C_24  and  C_25 
ROOT
HETATM    1  N   UNL     1       5.062  27.144  53.395  1.00  0.00    -0.180 N 
HETATM    2  C   UNL     1       5.178  26.395  52.215  1.00  0.00     0.282 C 
HETATM    3  O   UNL     1       5.622  25.250  52.129  1.00  0.00    -0.265 OA
HETATM    4  C   UNL     1       4.670  27.044  50.994  1.00  0.00     0.063 A 
HETATM    5  C   UNL     1       4.027  28.274  51.125  1.00  0.00     0.074 A 
HETATM    6  N   UNL     1       3.858  28.907  52.360  1.00  0.00    -0.230 NA
HETATM    7  C   UNL     1       4.363  28.343  53.418  1.00  0.00     0.157 C 
HETATM    8  C   UNL     1       4.805  26.431  49.741  1.00  0.00     0.019 A 
HETATM    9  C   UNL     1       4.290  27.056  48.606  1.00  0.00     0.001 A 
HETATM   10  C   UNL     1       3.644  28.286  48.726  1.00  0.00     0.002 A 
HETATM   11  C   UNL     1       3.515  28.890  49.980  1.00  0.00     0.032 A 
ENDROOT
BRANCH   1  12
HETATM   12  N   UNL     1       5.448  26.614  54.619  1.00  0.00    -0.174 NA
HETATM   13  C   UNL     1       6.715  26.480  54.843  1.00  0.00     0.154 C 
BRANCH  13  14
HETATM   14  C   UNL     1       7.145  25.876  56.083  1.00  0.00     0.031 A 
HETATM   15  C   UNL     1       7.665  24.564  56.313  1.00  0.00     0.100 A 
HETATM   16  N   UNL     1       8.018  24.416  57.603  1.00  0.00    -0.174 NA
HETATM   17  N   UNL     1       7.680  25.574  58.184  1.00  0.00    -0.288 N 
HETATM   18  H   UNL     1       7.846  25.677  59.179  1.00  0.00     0.188 HD
HETATM   19  C   UNL     1       7.153  26.482  57.323  1.00  0.00     0.124 A 
BRANCH  15  20
HETATM   20  C   UNL     1       7.824  23.454  55.368  1.00  0.00    -0.005 A 
HETATM   21  C   UNL     1       7.747  22.121  55.789  1.00  0.00     0.014 A 
HETATM   22  C   UNL     1       7.908  21.072  54.876  1.00  0.00     0.007 A 
HETATM   23  C   UNL     1       8.169  21.338  53.529  1.00  0.00    -0.062 A 
HETATM   24  C   UNL     1       8.343  20.221  52.543  1.00  0.00     0.048 C 
HETATM   25  C   UNL     1       8.256  22.669  53.104  1.00  0.00     0.007 A 
HETATM   26  C   UNL     1       8.089  23.715  54.016  1.00  0.00     0.014 A 
ENDBRANCH  15  20
ENDBRANCH  13  14
ENDBRANCH   1  12
BRANCH   7  27
HETATM   27  C   UNL     1       4.160  29.035  54.773  1.00  0.00     0.274 C 
BRANCH  27  28
HETATM   28  O   UNL     1       4.940  30.186  55.063  1.00  0.00    -0.293 OA
BRANCH  28  29
HETATM   29  N   UNL     1       6.237  29.774  55.387  1.00  0.00    -0.171 NA
HETATM   30  H   UNL     1       6.950  30.097  54.729  1.00  0.00     0.160 HD
BRANCH  29  31
HETATM   31  C   UNL     1       6.652  29.896  56.701  1.00  0.00     0.035 C 
HETATM   32  C   UNL     1       5.846  29.939  57.772  1.00  0.00     0.039 C 
BRANCH  31  33
HETATM   33  C   UNL     1       8.112  29.947  56.918  1.00  0.00    -0.014 A 
HETATM   34  C   UNL     1       8.622  30.508  58.097  1.00  0.00     0.013 A 
HETATM   35  C   UNL     1      10.000  30.567  58.315  1.00  0.00     0.001 A 
HETATM   36  C   UNL     1      10.879  30.060  57.357  1.00  0.00     0.000 A 
HETATM   37  C   UNL     1      10.382  29.492  56.185  1.00  0.00     0.001 A 
HETATM   38  C   UNL     1       9.003  29.435  55.965  1.00  0.00     0.013 A 
ENDBRANCH  31  33
ENDBRANCH  29  31
ENDBRANCH  28  29
ENDBRANCH  27  28
ENDBRANCH   7  27
TORSDOF 8
ENDMDL
MODEL 3
REMARK VINA RESULT:     -10.6      2.243      7.566
REMARK  8 active torsions:
REMARK  status: ('A' for Active; 'I' for Inactive)
REMARK    1  A    between atoms: C_5  and  C_6 
REMARK    2  A    between atoms: C_11  and  C_12 
REMARK    3  A    between atoms: N_13  and  N_14 
REMARK    4  A    between atoms: C_20  and  C_21 
REMARK    5  A    between atoms: C_21  and  O_22 
REMARK    6  A    between atoms: O_22  and  N_23 
REMARK    7  A    between atoms: N_23  and  C_24 
REMARK    8  A    between atoms: C_24  and  C_25 
ROOT
HETATM    1  N   UNL     1       5.275  28.567  52.286  1.00  0.00    -0.180 N 
HETATM    2  C   UNL     1       5.478  29.162  51.032  1.00  0.00     0.282 C 
HETATM    3  O   UNL     1       5.892  30.304  50.835  1.00  0.00    -0.265 OA
HETATM    4  C   UNL     1       5.210  28.302  49.866  1.00  0.00     0.063 A 
HETATM    5  C   UNL     1       4.893  26.965  50.097  1.00  0.00     0.074 A 
HETATM    6  N   UNL     1       4.814  26.422  51.384  1.00  0.00    -0.230 NA
HETATM    7  C   UNL     1       5.001  27.212  52.401  1.00  0.00     0.157 C 
HETATM    8  C   UNL     1       5.298  28.807  48.561  1.00  0.00     0.019 A 
HETATM    9  C   UNL     1       5.065  27.963  47.477  1.00  0.00     0.001 A 
HETATM   10  C   UNL     1       4.748  26.623  47.696  1.00  0.00     0.002 A 
HETATM   11  C   UNL     1       4.663  26.129  49.002  1.00  0.00     0.032 A 
ENDROOT
BRANCH   1  12
HETATM   12  N   UNL     1       5.554  29.257  53.458  1.00  0.00    -0.174 NA
HETATM   13  C   UNL     1       4.568  29.833  54.066  1.00  0.00     0.154 C 
BRANCH  13  14
HETATM   14  C   UNL     1       4.837  30.608  55.255  1.00  0.00     0.031 A 
HETATM   15  C   UNL     1       5.643  30.270  56.387  1.00  0.00     0.100 A 
HETATM   16  N   UNL     1       5.697  31.300  57.252  1.00  0.00    -0.174 NA
HETATM   17  N   UNL     1       4.905  32.237  56.716  1.00  0.00    -0.288 N 
HETATM   18  H   UNL     1       4.784  33.108  57.220  1.00  0.00     0.188 HD
HETATM   19  C   UNL     1       4.364  31.877  55.523  1.00  0.00     0.124 A 
BRANCH  15  20
HETATM   20  C   UNL     1       6.345  29.017  56.680  1.00  0.00    -0.005 A 
HETATM   21  C   UNL     1       7.730  28.898  56.505  1.00  0.00     0.014 A 
HETATM   22  C   UNL     1       8.385  27.693  56.782  1.00  0.00     0.007 A 
HETATM   23  C   UNL     1       7.665  26.578  57.221  1.00  0.00    -0.062 A 
HETATM   24  C   UNL     1       8.357  25.282  57.521  1.00  0.00     0.048 C 
HETATM   25  C   UNL     1       6.280  26.689  57.389  1.00  0.00     0.007 A 
HETATM   26  C   UNL     1       5.627  27.895  57.117  1.00  0.00     0.014 A 
ENDBRANCH  15  20
ENDBRANCH  13  14
ENDBRANCH   1  12
BRANCH   7  27
HETATM   27  C   UNL     1       4.928  26.606  53.810  1.00  0.00     0.274 C 
BRANCH  27  28
HETATM   28  O   UNL     1       6.011  25.798  54.249  1.00  0.00    -0.293 OA
BRANCH  28  29
HETATM   29  N   UNL     1       5.937  24.562  53.598  1.00  0.00    -0.171 NA
HETATM   30  H   UNL     1       5.173  24.496  52.921  1.00  0.00     0.160 HD
BRANCH  29  31
HETATM   31  C   UNL     1       7.107  24.008  53.112  1.00  0.00     0.035 C 
HETATM   32  C   UNL     1       7.890  24.545  52.165  1.00  0.00     0.039 C 
BRANCH  31  33
HETATM   33  C   UNL     1       7.526  22.733  53.729  1.00  0.00    -0.014 A 
HETATM   34  C   UNL     1       7.952  21.673  52.917  1.00  0.00     0.013 A 
HETATM   35  C   UNL     1       8.348  20.461  53.486  1.00  0.00     0.001 A 
HETATM   36  C   UNL     1       8.327  20.301  54.872  1.00  0.00     0.000 A 
HETATM   37  C   UNL     1       7.913  21.353  55.689  1.00  0.00     0.001 A 
HETATM   38  C   UNL     1       7.514  22.565  55.121  1.00  0.00     0.013 A 
ENDBRANCH  31  33
ENDBRANCH  29  31
ENDBRANCH  28  29
ENDBRANCH  27  28
ENDBRANCH   7  27
TORSDOF 8
ENDMDL
MODEL 4
REMARK VINA RESULT:     -10.2      2.047      7.613
REMARK  8 active torsions:
REMARK  status: ('A' for Active; 'I' for Inactive)
REMARK    1  A    between atoms: C_5  and  C_6 
REMARK    2  A    between atoms: C_11  and  C_12 
REMARK    3  A    between atoms: N_13  and  N_14 
REMARK    4  A    between atoms: C_20  and  C_21 
REMARK    5  A    between atoms: C_21  and  O_22 
REMARK    6  A    between atoms: O_22  and  N_23 
REMARK    7  A    between atoms: N_23  and  C_24 
REMARK    8  A    between atoms: C_24  and  C_25 
ROOT
HETATM    1  N   UNL     1       4.469  28.026  54.607  1.00  0.00    -0.180 N 
HETATM    2  C   UNL     1       4.114  28.682  53.419  1.00  0.00     0.282 C 
HETATM    3  O   UNL     1       3.679  29.831  53.333  1.00  0.00    -0.265 OA
HETATM    4  C   UNL     1       4.338  27.921  52.177  1.00  0.00     0.063 A 
HETATM    5  C   UNL     1       4.975  26.685  52.272  1.00  0.00     0.074 A 
HETATM    6  N   UNL     1       5.396  26.148  53.493  1.00  0.00    -0.230 NA
HETATM    7  C   UNL     1       5.139  26.811  54.582  1.00  0.00     0.157 C 
HETATM    8  C   UNL     1       3.946  28.438  50.934  1.00  0.00     0.019 A 
HETATM    9  C   UNL     1       4.195  27.707  49.774  1.00  0.00     0.001 A 
HETATM   10  C   UNL     1       4.833  26.470  49.857  1.00  0.00     0.002 A 
HETATM   11  C   UNL     1       5.219  25.964  51.101  1.00  0.00     0.032 A 
ENDROOT
BRANCH   1  12
HETATM   12  N   UNL     1       4.363  28.664  55.836  1.00  0.00    -0.174 NA
HETATM   13  C   UNL     1       4.987  29.788  55.985  1.00  0.00     0.154 C 
BRANCH  13  14
HETATM   14  C   UNL     1       4.945  30.444  57.271  1.00  0.00     0.031 A 
HETATM   15  C   UNL     1       6.028  30.828  58.122  1.00  0.00     0.100 A 
HETATM   16  N   UNL     1       5.568  31.485  59.203  1.00  0.00    -0.174 NA
HETATM   17  N   UNL     1       4.236  31.468  59.072  1.00  0.00    -0.288 N 
HETATM   18  H   UNL     1       3.677  31.901  59.798  1.00  0.00     0.188 HD
HETATM   19  C   UNL     1       3.808  30.858  57.936  1.00  0.00     0.124 A 
BRANCH  15  20
HETATM   20  C   UNL     1       7.464  30.585  57.956  1.00  0.00    -0.005 A 
HETATM   21  C   UNL     1       8.417  31.349  58.643  1.00  0.00     0.014 A 
HETATM   22  C   UNL     1       9.785  31.110  58.469  1.00  0.00     0.007 A 
HETATM   23  C   UNL     1      10.226  30.116  57.590  1.00  0.00    -0.062 A 
HETATM   24  C   UNL     1      11.690  29.853  57.397  1.00  0.00     0.048 C 
HETATM   25  C   UNL     1       9.278  29.357  56.894  1.00  0.00     0.007 A 
HETATM   26  C   UNL     1       7.912  29.593  57.074  1.00  0.00     0.014 A 
ENDBRANCH  15  20
ENDBRANCH  13  14
ENDBRANCH   1  12
BRANCH   7  27
HETATM   27  C   UNL     1       5.617  26.222  55.917  1.00  0.00     0.274 C 
BRANCH  27  28
HETATM   28  O   UNL     1       7.000  26.305  56.229  1.00  0.00    -0.293 OA
BRANCH  28  29
HETATM   29  N   UNL     1       7.695  25.406  55.412  1.00  0.00    -0.171 NA
HETATM   30  H   UNL     1       8.400  25.849  54.817  1.00  0.00     0.160 HD
BRANCH  29  31
HETATM   31  C   UNL     1       8.158  24.232  55.977  1.00  0.00     0.035 C 
HETATM   32  C   UNL     1       8.656  24.106  57.216  1.00  0.00     0.039 C 
BRANCH  31  33
HETATM   33  C   UNL     1       8.053  23.022  55.136  1.00  0.00    -0.014 A 
HETATM   34  C   UNL     1       8.021  21.757  55.738  1.00  0.00     0.013 A 
HETATM   35  C   UNL     1       7.925  20.604  54.956  1.00  0.00     0.001 A 
HETATM   36  C   UNL     1       7.854  20.708  53.567  1.00  0.00     0.000 A 
HETATM   37  C   UNL     1       7.876  21.962  52.959  1.00  0.00     0.001 A 
HETATM   38  C   UNL     1       7.975  23.116  53.740  1.00  0.00     0.013 A 
ENDBRANCH  31  33
ENDBRANCH  29  31
ENDBRANCH  28  29
ENDBRANCH  27  28
ENDBRANCH   7  27
TORSDOF 8
ENDMDL
MODEL 5
REMARK VINA RESULT:     -10.2      1.558      2.052
REMARK  8 active torsions:
REMARK  status: ('A' for Active; 'I' for Inactive)
REMARK    1  A    between atoms: C_5  and  C_6 
REMARK    2  A    between atoms: C_11  and  C_12 
REMARK    3  A    between atoms: N_13  and  N_14 
REMARK    4  A    between atoms: C_20  and  C_21 
REMARK    5  A    between atoms: C_21  and  O_22 
REMARK    6  A    between atoms: O_22  and  N_23 
REMARK    7  A    between atoms: N_23  and  C_24 
REMARK    8  A    between atoms: C_24  and  C_25 
ROOT
HETATM    1  N   UNL     1       6.723  26.595  55.005  1.00  0.00    -0.180 N 
HETATM    2  C   UNL     1       6.934  25.796  53.872  1.00  0.00     0.282 C 
HETATM    3  O   UNL     1       6.621  26.087  52.718  1.00  0.00    -0.265 OA
HETATM    4  C   UNL     1       7.637  24.523  54.109  1.00  0.00     0.063 A 
HETATM    5  C   UNL     1       8.125  24.273  55.391  1.00  0.00     0.074 A 
HETATM    6  N   UNL     1       7.964  25.176  56.446  1.00  0.00    -0.230 NA
HETATM    7  C   UNL     1       7.292  26.269  56.228  1.00  0.00     0.157 C 
HETATM    8  C   UNL     1       7.833  23.603  53.070  1.00  0.00     0.019 A 
HETATM    9  C   UNL     1       8.526  22.419  53.319  1.00  0.00     0.001 A 
HETATM   10  C   UNL     1       9.020  22.159  54.596  1.00  0.00     0.002 A 
HETATM   11  C   UNL     1       8.818  23.084  55.625  1.00  0.00     0.032 A 
ENDROOT
BRANCH   1  12
HETATM   12  N   UNL     1       6.127  27.845  54.899  1.00  0.00    -0.174 NA
HETATM   13  C   UNL     1       4.836  27.892  54.840  1.00  0.00     0.154 C 
BRANCH  13  14
HETATM   14  C   UNL     1       4.191  29.172  54.669  1.00  0.00     0.031 A 
HETATM   15  C   UNL     1       3.782  29.821  53.461  1.00  0.00     0.100 A 
HETATM   16  N   UNL     1       3.147  30.974  53.737  1.00  0.00    -0.174 NA
HETATM   17  N   UNL     1       3.203  31.084  55.070  1.00  0.00    -0.288 N 
HETATM   18  H   UNL     1       2.792  31.905  55.500  1.00  0.00     0.188 HD
HETATM   19  C   UNL     1       3.816  30.037  55.678  1.00  0.00     0.124 A 
BRANCH  15  20
HETATM   20  C   UNL     1       3.981  29.396  52.072  1.00  0.00    -0.005 A 
HETATM   21  C   UNL     1       5.265  29.251  51.531  1.00  0.00     0.014 A 
HETATM   22  C   UNL     1       5.440  28.851  50.201  1.00  0.00     0.007 A 
HETATM   23  C   UNL     1       4.334  28.609  49.381  1.00  0.00    -0.062 A 
HETATM   24  C   UNL     1       4.511  28.181  47.955  1.00  0.00     0.048 C 
HETATM   25  C   UNL     1       3.049  28.762  49.914  1.00  0.00     0.007 A 
HETATM   26  C   UNL     1       2.876  29.156  51.245  1.00  0.00     0.014 A 
ENDBRANCH  15  20
ENDBRANCH  13  14
ENDBRANCH   1  12
BRANCH   7  27
HETATM   27  C   UNL     1       7.133  27.263  57.388  1.00  0.00     0.274 C 
BRANCH  27  28
HETATM   28  O   UNL     1       8.281  27.979  57.820  1.00  0.00    -0.293 OA
BRANCH  28  29
HETATM   29  N   UNL     1       7.885  28.912  58.786  1.00  0.00    -0.171 NA
HETATM   30  H   UNL     1       7.652  28.496  59.691  1.00  0.00     0.160 HD
BRANCH  29  31
HETATM   31  C   UNL     1       8.633  30.067  58.925  1.00  0.00     0.035 C 
HETATM   32  C   UNL     1       9.620  30.460  58.105  1.00  0.00     0.039 C 
BRANCH  31  33
HETATM   33  C   UNL     1       8.273  30.941  60.059  1.00  0.00    -0.014 A 
HETATM   34  C   UNL     1       9.031  30.901  61.237  1.00  0.00     0.013 A 
HETATM   35  C   UNL     1       8.700  31.719  62.320  1.00  0.00     0.001 A 
HETATM   36  C   UNL     1       7.612  32.588  62.230  1.00  0.00     0.000 A 
HETATM   37  C   UNL     1       6.857  32.641  61.059  1.00  0.00     0.001 A 
HETATM   38  C   UNL     1       7.185  31.821  59.977  1.00  0.00     0.013 A 
ENDBRANCH  31  33
ENDBRANCH  29  31
ENDBRANCH  28  29
ENDBRANCH  27  28
ENDBRANCH   7  27
TORSDOF 8
ENDMDL
MODEL 6
REMARK VINA RESULT:     -10.0      2.400      7.865
REMARK  8 active torsions:
REMARK  status: ('A' for Active; 'I' for Inactive)
REMARK    1  A    between atoms: C_5  and  C_6 
REMARK    2  A    between atoms: C_11  and  C_12 
REMARK    3  A    between atoms: N_13  and  N_14 
REMARK    4  A    between atoms: C_20  and  C_21 
REMARK    5  A    between atoms: C_21  and  O_22 
REMARK    6  A    between atoms: O_22  and  N_23 
REMARK    7  A    between atoms: N_23  and  C_24 
REMARK    8  A    between atoms: C_24  and  C_25 
ROOT
HETATM    1  N   UNL     1       6.441  28.439  56.183  1.00  0.00    -0.180 N 
HETATM    2  C   UNL     1       7.618  27.910  56.733  1.00  0.00     0.282 C 
HETATM    3  O   UNL     1       8.542  28.562  57.219  1.00  0.00    -0.265 OA
HETATM    4  C   UNL     1       7.705  26.439  56.762  1.00  0.00     0.063 A 
HETATM    5  C   UNL     1       6.590  25.709  56.354  1.00  0.00     0.074 A 
HETATM    6  N   UNL     1       5.409  26.319  55.917  1.00  0.00    -0.230 NA
HETATM    7  C   UNL     1       5.373  27.618  55.848  1.00  0.00     0.157 C 
HETATM    8  C   UNL     1       8.865  25.794  57.211  1.00  0.00     0.019 A 
HETATM    9  C   UNL     1       8.908  24.401  57.252  1.00  0.00     0.001 A 
HETATM   10  C   UNL     1       7.799  23.661  56.848  1.00  0.00     0.002 A 
HETATM   11  C   UNL     1       6.646  24.314  56.401  1.00  0.00     0.032 A 
ENDROOT
BRANCH   1  12
HETATM   12  N   UNL     1       6.216  29.809  56.159  1.00  0.00    -0.174 NA
HETATM   13  C   UNL     1       5.564  30.328  57.148  1.00  0.00     0.154 C 
BRANCH  13  14
HETATM   14  C   UNL     1       5.262  31.740  57.121  1.00  0.00     0.031 A 
HETATM   15  C   UNL     1       5.569  32.746  58.091  1.00  0.00     0.100 A 
HETATM   16  N   UNL     1       5.179  33.957  57.654  1.00  0.00    -0.174 NA
HETATM   17  N   UNL     1       4.593  33.722  56.474  1.00  0.00    -0.288 N 
HETATM   18  H   UNL     1       4.204  34.509  55.966  1.00  0.00     0.188 HD
HETATM   19  C   UNL     1       4.613  32.415  56.107  1.00  0.00     0.124 A 
BRANCH  15  20
HETATM   20  C   UNL     1       6.198  32.599  59.407  1.00  0.00    -0.005 A 
HETATM   21  C   UNL     1       7.512  32.131  59.538  1.00  0.00     0.014 A 
HETATM   22  C   UNL     1       8.098  31.988  60.801  1.00  0.00     0.007 A 
HETATM   23  C   UNL     1       7.374  32.292  61.958  1.00  0.00    -0.062 A 
HETATM   24  C   UNL     1       7.992  32.143  63.316  1.00  0.00     0.048 C 
HETATM   25  C   UNL     1       6.057  32.751  61.833  1.00  0.00     0.007 A 
HETATM   26  C   UNL     1       5.476  32.899  60.570  1.00  0.00     0.014 A 
ENDBRANCH  15  20
ENDBRANCH  13  14
ENDBRANCH   1  12
BRANCH   7  27
HETATM   27  C   UNL     1       4.069  28.281  55.383  1.00  0.00     0.274 C 
BRANCH  27  28
HETATM   28  O   UNL     1       3.913  28.558  53.998  1.00  0.00    -0.293 OA
BRANCH  28  29
HETATM   29  N   UNL     1       3.772  27.344  53.316  1.00  0.00    -0.171 NA
HETATM   30  H   UNL     1       2.803  27.105  53.095  1.00  0.00     0.160 HD
BRANCH  29  31
HETATM   31  C   UNL     1       4.623  27.088  52.256  1.00  0.00     0.035 C 
HETATM   32  C   UNL     1       4.558  27.665  51.046  1.00  0.00     0.039 C 
BRANCH  31  33
HETATM   33  C   UNL     1       5.707  26.118  52.514  1.00  0.00    -0.014 A 
HETATM   34  C   UNL     1       7.024  26.571  52.672  1.00  0.00     0.013 A 
HETATM   35  C   UNL     1       8.060  25.666  52.913  1.00  0.00     0.001 A 
HETATM   36  C   UNL     1       7.785  24.302  53.003  1.00  0.00     0.000 A 
HETATM   37  C   UNL     1       6.478  23.841  52.856  1.00  0.00     0.001 A 
HETATM   38  C   UNL     1       5.442  24.746  52.612  1.00  0.00     0.013 A 
ENDBRANCH  31  33
ENDBRANCH  29  31
ENDBRANCH  28  29
ENDBRANCH  27  28
ENDBRANCH   7  27
TORSDOF 8
ENDMDL
MODEL 7
REMARK VINA RESULT:     -10.0      2.197      4.588
REMARK  8 active torsions:
REMARK  status: ('A' for Active; 'I' for Inactive)
REMARK    1  A    between atoms: C_5  and  C_6 
REMARK    2  A    between atoms: C_11  and  C_12 
REMARK    3  A    between atoms: N_13  and  N_14 
REMARK    4  A    between atoms: C_20  and  C_21 
REMARK    5  A    between atoms: C_21  and  O_22 
REMARK    6  A    between atoms: O_22  and  N_23 
REMARK    7  A    between atoms: N_23  and  C_24 
REMARK    8  A    between atoms: C_24  and  C_25 
ROOT
HETATM    1  N   UNL     1       6.417  26.840  54.949  1.00  0.00    -0.180 N 
HETATM    2  C   UNL     1       6.478  25.678  54.166  1.00  0.00     0.282 C 
HETATM    3  O   UNL     1       6.021  25.551  53.029  1.00  0.00    -0.265 OA
HETATM    4  C   UNL     1       7.201  24.542  54.763  1.00  0.00     0.063 A 
HETATM    5  C   UNL     1       7.848  24.744  55.980  1.00  0.00     0.074 A 
HETATM    6  N   UNL     1       7.827  25.972  56.648  1.00  0.00    -0.230 NA
HETATM    7  C   UNL     1       7.137  26.946  56.131  1.00  0.00     0.157 C 
HETATM    8  C   UNL     1       7.259  23.301  54.112  1.00  0.00     0.019 A 
HETATM    9  C   UNL     1       7.972  22.252  54.688  1.00  0.00     0.001 A 
HETATM   10  C   UNL     1       8.625  22.443  55.905  1.00  0.00     0.002 A 
HETATM   11  C   UNL     1       8.561  23.684  56.546  1.00  0.00     0.032 A 
ENDROOT
BRANCH   1  12
HETATM   12  N   UNL     1       5.818  27.997  54.469  1.00  0.00    -0.174 NA
HETATM   13  C   UNL     1       4.525  28.050  54.475  1.00  0.00     0.154 C 
BRANCH  13  14
HETATM   14  C   UNL     1       3.872  29.216  53.926  1.00  0.00     0.031 A 
HETATM   15  C   UNL     1       3.656  30.495  54.528  1.00  0.00     0.100 A 
HETATM   16  N   UNL     1       3.073  31.335  53.653  1.00  0.00    -0.174 NA
HETATM   17  N   UNL     1       2.873  30.598  52.553  1.00  0.00    -0.288 N 
HETATM   18  H   UNL     1       2.422  31.037  51.758  1.00  0.00     0.188 HD
HETATM   19  C   UNL     1       3.330  29.324  52.661  1.00  0.00     0.124 A 
BRANCH  15  20
HETATM   20  C   UNL     1       3.966  30.939  55.890  1.00  0.00    -0.005 A 
HETATM   21  C   UNL     1       5.052  31.783  56.152  1.00  0.00     0.014 A 
HETATM   22  C   UNL     1       5.340  32.193  57.459  1.00  0.00     0.007 A 
HETATM   23  C   UNL     1       4.560  31.749  58.531  1.00  0.00    -0.062 A 
HETATM   24  C   UNL     1       4.860  32.183  59.934  1.00  0.00     0.048 C 
HETATM   25  C   UNL     1       3.479  30.898  58.275  1.00  0.00     0.007 A 
HETATM   26  C   UNL     1       3.189  30.494  56.968  1.00  0.00     0.014 A 
ENDBRANCH  15  20
ENDBRANCH  13  14
ENDBRANCH   1  12
BRANCH   7  27
HETATM   27  C   UNL     1       7.132  28.296  56.862  1.00  0.00     0.274 C 
BRANCH  27  28
HETATM   28  O   UNL     1       8.379  28.922  57.125  1.00  0.00    -0.293 OA
BRANCH  28  29
HETATM   29  N   UNL     1       8.407  29.311  58.469  1.00  0.00    -0.171 NA
HETATM   30  H   UNL     1       8.540  28.535  59.121  1.00  0.00     0.160 HD
BRANCH  29  31
HETATM   31  C   UNL     1       9.167  30.414  58.814  1.00  0.00     0.035 C 
HETATM   32  C   UNL     1      10.136  30.960  58.063  1.00  0.00     0.039 C 
BRANCH  31  33
HETATM   33  C   UNL     1       8.843  31.046  60.109  1.00  0.00    -0.014 A 
HETATM   34  C   UNL     1       9.020  30.327  61.299  1.00  0.00     0.013 A 
HETATM   35  C   UNL     1       8.714  30.910  62.530  1.00  0.00     0.001 A 
HETATM   36  C   UNL     1       8.234  32.218  62.582  1.00  0.00     0.000 A 
HETATM   37  C   UNL     1       8.062  32.945  61.404  1.00  0.00     0.001 A 
HETATM   38  C   UNL     1       8.365  32.362  60.172  1.00  0.00     0.013 A 
ENDBRANCH  31  33
ENDBRANCH  29  31
ENDBRANCH  28  29
ENDBRANCH  27  28
ENDBRANCH   7  27
TORSDOF 8
ENDMDL
MODEL 8
REMARK VINA RESULT:      -9.9      1.264      1.736
REMARK  8 active torsions:
REMARK  status: ('A' for Active; 'I' for Inactive)
REMARK    1  A    between atoms: C_5  and  C_6 
REMARK    2  A    between atoms: C_11  and  C_12 
REMARK    3  A    between atoms: N_13  and  N_14 
REMARK    4  A    between atoms: C_20  and  C_21 
REMARK    5  A    between atoms: C_21  and  O_22 
REMARK    6  A    between atoms: O_22  and  N_23 
REMARK    7  A    between atoms: N_23  and  C_24 
REMARK    8  A    between atoms: C_24  and  C_25 
ROOT
HETATM    1  N   UNL     1       6.158  25.947  54.977  1.00  0.00    -0.180 N 
HETATM    2  C   UNL     1       6.331  25.022  53.937  1.00  0.00     0.282 C 
HETATM    3  O   UNL     1       5.759  25.049  52.847  1.00  0.00    -0.265 OA
HETATM    4  C   UNL     1       7.327  23.964  54.181  1.00  0.00     0.063 A 
HETATM    5  C   UNL     1       8.080  24.032  55.352  1.00  0.00     0.074 A 
HETATM    6  N   UNL     1       7.919  25.054  56.293  1.00  0.00    -0.230 NA
HETATM    7  C   UNL     1       6.996  25.947  56.083  1.00  0.00     0.157 C 
HETATM    8  C   UNL     1       7.529  22.935  53.252  1.00  0.00     0.019 A 
HETATM    9  C   UNL     1       8.497  21.962  53.498  1.00  0.00     0.001 A 
HETATM   10  C   UNL     1       9.258  22.021  54.664  1.00  0.00     0.002 A 
HETATM   11  C   UNL     1       9.048  23.051  55.586  1.00  0.00     0.032 A 
ENDROOT
BRANCH   1  12
HETATM   12  N   UNL     1       5.294  27.025  54.839  1.00  0.00    -0.174 NA
HETATM   13  C   UNL     1       5.515  27.851  53.868  1.00  0.00     0.154 C 
BRANCH  13  14
HETATM   14  C   UNL     1       4.669  29.015  53.735  1.00  0.00     0.031 A 
HETATM   15  C   UNL     1       3.828  29.398  52.644  1.00  0.00     0.100 A 
HETATM   16  N   UNL     1       3.145  30.517  52.945  1.00  0.00    -0.174 NA
HETATM   17  N   UNL     1       3.580  30.866  54.163  1.00  0.00    -0.288 N 
HETATM   18  H   UNL     1       3.202  31.707  54.584  1.00  0.00     0.188 HD
HETATM   19  C   UNL     1       4.492  30.004  54.682  1.00  0.00     0.124 A 
BRANCH  15  20
HETATM   20  C   UNL     1       3.662  28.756  51.336  1.00  0.00    -0.005 A 
HETATM   21  C   UNL     1       2.547  29.020  50.530  1.00  0.00     0.014 A 
HETATM   22  C   UNL     1       2.399  28.394  49.288  1.00  0.00     0.007 A 
HETATM   23  C   UNL     1       3.352  27.477  48.836  1.00  0.00    -0.062 A 
HETATM   24  C   UNL     1       3.203  26.801  47.506  1.00  0.00     0.048 C 
HETATM   25  C   UNL     1       4.464  27.203  49.641  1.00  0.00     0.007 A 
HETATM   26  C   UNL     1       4.614  27.833  50.880  1.00  0.00     0.014 A 
ENDBRANCH  15  20
ENDBRANCH  13  14
ENDBRANCH   1  12
BRANCH   7  27
HETATM   27  C   UNL     1       6.835  27.075  57.112  1.00  0.00     0.274 C 
BRANCH  27  28
HETATM   28  O   UNL     1       7.988  27.509  57.819  1.00  0.00    -0.293 OA
BRANCH  28  29
HETATM   29  N   UNL     1       7.638  28.612  58.605  1.00  0.00    -0.171 NA
HETATM   30  H   UNL     1       7.331  28.366  59.549  1.00  0.00     0.160 HD
BRANCH  29  31
HETATM   31  C   UNL     1       8.480  29.709  58.604  1.00  0.00     0.035 C 
HETATM   32  C   UNL     1       9.397  29.987  57.665  1.00  0.00     0.039 C 
BRANCH  31  33
HETATM   33  C   UNL     1       8.313  30.657  59.725  1.00  0.00    -0.014 A 
HETATM   34  C   UNL     1       7.274  31.597  59.692  1.00  0.00     0.013 A 
HETATM   35  C   UNL     1       7.106  32.502  60.742  1.00  0.00     0.001 A 
HETATM   36  C   UNL     1       7.972  32.469  61.836  1.00  0.00     0.000 A 
HETATM   37  C   UNL     1       9.002  31.532  61.882  1.00  0.00     0.001 A 
HETATM   38  C   UNL     1       9.173  30.628  60.831  1.00  0.00     0.013 A 
ENDBRANCH  31  33
ENDBRANCH  29  31
ENDBRANCH  28  29
ENDBRANCH  27  28
ENDBRANCH   7  27
TORSDOF 8
ENDMDL
MODEL 9
REMARK VINA RESULT:      -9.9      5.121      9.617
REMARK  8 active torsions:
REMARK  status: ('A' for Active; 'I' for Inactive)
REMARK    1  A    between atoms: C_5  and  C_6 
REMARK    2  A    between atoms: C_11  and  C_12 
REMARK    3  A    between atoms: N_13  and  N_14 
REMARK    4  A    between atoms: C_20  and  C_21 
REMARK    5  A    between atoms: C_21  and  O_22 
REMARK    6  A    between atoms: O_22  and  N_23 
REMARK    7  A    between atoms: N_23  and  C_24 
REMARK    8  A    between atoms: C_24  and  C_25 
ROOT
HETATM    1  N   UNL     1       7.323  32.108  60.528  1.00  0.00    -0.180 N 
HETATM    2  C   UNL     1       8.042  32.429  61.688  1.00  0.00     0.282 C 
HETATM    3  O   UNL     1       9.268  32.453  61.792  1.00  0.00    -0.265 OA
HETATM    4  C   UNL     1       7.230  32.814  62.857  1.00  0.00     0.063 A 
HETATM    5  C   UNL     1       5.853  32.935  62.686  1.00  0.00     0.074 A 
HETATM    6  N   UNL     1       5.223  32.699  61.460  1.00  0.00    -0.230 NA
HETATM    7  C   UNL     1       5.951  32.307  60.456  1.00  0.00     0.157 C 
HETATM    8  C   UNL     1       7.830  33.077  64.096  1.00  0.00     0.019 A 
HETATM    9  C   UNL     1       7.039  33.465  65.177  1.00  0.00     0.001 A 
HETATM   10  C   UNL     1       5.661  33.591  65.017  1.00  0.00     0.002 A 
HETATM   11  C   UNL     1       5.073  33.326  63.777  1.00  0.00     0.032 A 
ENDROOT
BRANCH   1  12
HETATM   12  N   UNL     1       7.978  31.792  59.345  1.00  0.00    -0.174 NA
HETATM   13  C   UNL     1       8.539  30.629  59.262  1.00  0.00     0.154 C 
BRANCH  13  14
HETATM   14  C   UNL     1       9.279  30.294  58.068  1.00  0.00     0.031 A 
HETATM   15  C   UNL     1       9.020  29.270  57.104  1.00  0.00     0.100 A 
HETATM   16  N   UNL     1       9.906  29.336  56.095  1.00  0.00    -0.174 NA
HETATM   17  N   UNL     1      10.736  30.331  56.434  1.00  0.00    -0.288 N 
HETATM   18  H   UNL     1      11.506  30.546  55.810  1.00  0.00     0.188 HD
HETATM   19  C   UNL     1      10.409  30.938  57.604  1.00  0.00     0.124 A 
BRANCH  15  20
HETATM   20  C   UNL     1       7.981  28.234  57.114  1.00  0.00    -0.005 A 
HETATM   21  C   UNL     1       8.305  26.878  57.252  1.00  0.00     0.014 A 
HETATM   22  C   UNL     1       7.304  25.901  57.253  1.00  0.00     0.007 A 
HETATM   23  C   UNL     1       5.962  26.259  57.095  1.00  0.00    -0.062 A 
HETATM   24  C   UNL     1       4.881  25.219  57.094  1.00  0.00     0.048 C 
HETATM   25  C   UNL     1       5.634  27.612  56.947  1.00  0.00     0.007 A 
HETATM   26  C   UNL     1       6.635  28.588  56.953  1.00  0.00     0.014 A 
ENDBRANCH  15  20
ENDBRANCH  13  14
ENDBRANCH   1  12
BRANCH   7  27
HETATM   27  C   UNL     1       5.255  32.065  59.109  1.00  0.00     0.274 C 
BRANCH  27  28
HETATM   28  O   UNL     1       4.637  33.169  58.464  1.00  0.00    -0.293 OA
BRANCH  28  29
HETATM   29  N   UNL     1       3.376  33.370  59.038  1.00  0.00    -0.171 NA
HETATM   30  H   UNL     1       3.220  32.830  59.892  1.00  0.00     0.160 HD
BRANCH  29  31
HETATM   31  C   UNL     1       2.909  34.666  59.152  1.00  0.00     0.035 C 
HETATM   32  C   UNL     1       2.181  35.317  58.232  1.00  0.00     0.039 C 
BRANCH  31  33
HETATM   33  C   UNL     1       3.223  35.360  60.417  1.00  0.00    -0.014 A 
HETATM   34  C   UNL     1       4.270  36.291  60.461  1.00  0.00     0.013 A 
HETATM   35  C   UNL     1       4.580  36.951  61.651  1.00  0.00     0.001 A 
HETATM   36  C   UNL     1       3.842  36.692  62.805  1.00  0.00     0.000 A 
HETATM   37  C   UNL     1       2.792  35.775  62.771  1.00  0.00     0.001 A 
HETATM   38  C   UNL     1       2.483  35.111  61.582  1.00  0.00     0.013 A 
ENDBRANCH  31  33
ENDBRANCH  29  31
ENDBRANCH  28  29
ENDBRANCH  27  28
ENDBRANCH   7  27
TORSDOF 8
ENDMDL
MODEL 10
REMARK VINA RESULT:      -9.6      3.170      7.329
REMARK  8 active torsions:
REMARK  status: ('A' for Active; 'I' for Inactive)
REMARK    1  A    between atoms: C_5  and  C_6 
REMARK    2  A    between atoms: C_11  and  C_12 
REMARK    3  A    between atoms: N_13  and  N_14 
REMARK    4  A    between atoms: C_20  and  C_21 
REMARK    5  A    between atoms: C_21  and  O_22 
REMARK    6  A    between atoms: O_22  and  N_23 
REMARK    7  A    between atoms: N_23  and  C_24 
REMARK    8  A    between atoms: C_24  and  C_25 
ROOT
HETATM    1  N   UNL     1       5.826  30.219  57.641  1.00  0.00    -0.180 N 
HETATM    2  C   UNL     1       7.047  29.727  58.127  1.00  0.00     0.282 C 
HETATM    3  O   UNL     1       7.580  28.669  57.796  1.00  0.00    -0.265 OA
HETATM    4  C   UNL     1       7.753  30.601  59.081  1.00  0.00     0.063 A 
HETATM    5  C   UNL     1       7.220  31.864  59.331  1.00  0.00     0.074 A 
HETATM    6  N   UNL     1       6.049  32.321  58.719  1.00  0.00    -0.230 NA
HETATM    7  C   UNL     1       5.411  31.513  57.922  1.00  0.00     0.157 C 
HETATM    8  C   UNL     1       8.940  30.183  59.699  1.00  0.00     0.019 A 
HETATM    9  C   UNL     1       9.600  31.042  60.577  1.00  0.00     0.001 A 
HETATM   10  C   UNL     1       9.077  32.308  60.832  1.00  0.00     0.002 A 
HETATM   11  C   UNL     1       7.892  32.715  60.211  1.00  0.00     0.032 A 
ENDROOT
BRANCH   1  12
HETATM   12  N   UNL     1       5.100  29.515  56.689  1.00  0.00    -0.174 NA
HETATM   13  C   UNL     1       5.685  29.243  55.568  1.00  0.00     0.154 C 
BRANCH  13  14
HETATM   14  C   UNL     1       4.935  28.565  54.537  1.00  0.00     0.031 A 
HETATM   15  C   UNL     1       5.018  27.202  54.110  1.00  0.00     0.100 A 
HETATM   16  N   UNL     1       4.092  26.946  53.168  1.00  0.00    -0.174 NA
HETATM   17  N   UNL     1       3.482  28.119  52.960  1.00  0.00    -0.288 N 
HETATM   18  H   UNL     1       2.747  28.160  52.264  1.00  0.00     0.188 HD
HETATM   19  C   UNL     1       3.946  29.121  53.750  1.00  0.00     0.124 A 
BRANCH  15  20
HETATM   20  C   UNL     1       5.940  26.151  54.550  1.00  0.00    -0.005 A 
HETATM   21  C   UNL     1       5.880  25.624  55.847  1.00  0.00     0.014 A 
HETATM   22  C   UNL     1       6.772  24.626  56.255  1.00  0.00     0.007 A 
HETATM   23  C   UNL     1       7.755  24.151  55.381  1.00  0.00    -0.062 A 
HETATM   24  C   UNL     1       8.715  23.082  55.809  1.00  0.00     0.048 C 
HETATM   25  C   UNL     1       7.825  24.681  54.087  1.00  0.00     0.007 A 
HETATM   26  C   UNL     1       6.929  25.674  53.679  1.00  0.00     0.014 A 
ENDBRANCH  15  20
ENDBRANCH  13  14
ENDBRANCH   1  12
BRANCH   7  27
HETATM   27  C   UNL     1       4.134  32.027  57.242  1.00  0.00     0.274 C 
BRANCH  27  28
HETATM   28  O   UNL     1       3.290  32.904  57.973  1.00  0.00    -0.293 OA
BRANCH  28  29
HETATM   29  N   UNL     1       3.195  32.435  59.289  1.00  0.00    -0.171 NA
HETATM   30  H   UNL     1       3.870  31.701  59.516  1.00  0.00     0.160 HD
BRANCH  29  31
HETATM   31  C   UNL     1       3.077  33.364  60.307  1.00  0.00     0.035 C 
HETATM   32  C   UNL     1       2.091  34.264  60.430  1.00  0.00     0.039 C 
BRANCH  31  33
HETATM   33  C   UNL     1       4.120  33.317  61.351  1.00  0.00    -0.014 A 
HETATM   34  C   UNL     1       4.411  32.105  61.992  1.00  0.00     0.013 A 
HETATM   35  C   UNL     1       5.391  32.047  62.985  1.00  0.00     0.001 A 
HETATM   36  C   UNL     1       6.093  33.199  63.339  1.00  0.00     0.000 A 
HETATM   37  C   UNL     1       5.819  34.407  62.701  1.00  0.00     0.001 A 
HETATM   38  C   UNL     1       4.836  34.468  61.711  1.00  0.00     0.013 A 
ENDBRANCH  31  33
ENDBRANCH  29  31
ENDBRANCH  28  29
ENDBRANCH  27  28
ENDBRANCH   7  27
TORSDOF 8
ENDMDL
