MODEL 1
REMARK VINA RESULT:     -10.1      0.000      0.000
REMARK  5 active torsions:
REMARK  status: ('A' for Active; 'I' for Inactive)
REMARK    1  A    between atoms: C_5  and  C_6 
REMARK    2  A    between atoms: C_6  and  N_7 
REMARK       I    between atoms: N_7  and  C_8 
REMARK       I    between atoms: C_8  and  N_9 
REMARK    3  A    between atoms: N_9  and  C_10 
REMARK    4  A    between atoms: C_10  and  C_11 
REMARK    5  A    between atoms: N_14  and  C_15 
ROOT
HETATM    1  N   UNL     1       6.677  30.240  58.548  1.00  0.00    -0.339 N 
HETATM    2  C   UNL     1       6.560  29.535  57.385  1.00  0.00     0.316 C 
HETATM    3  N   UNL     1       5.664  28.509  57.488  1.00  0.00    -0.339 N 
HETATM    4  O   UNL     1       7.203  29.780  56.373  1.00  0.00    -0.247 OA
HETATM    5  H   UNL     1       6.147  29.957  59.357  1.00  0.00     0.164 HD
HETATM    6  H   UNL     1       4.989  28.532  58.235  1.00  0.00     0.164 HD
ENDROOT
BRANCH   3   7
HETATM    7  C   UNL     1       5.364  27.665  56.355  1.00  0.00     0.165 C 
BRANCH   7   8
HETATM    8  C   UNL     1       6.229  26.439  56.355  1.00  0.00    -0.016 A 
HETATM    9  C   UNL     1       6.207  25.431  55.395  1.00  0.00     0.021 A 
HETATM   10  C   UNL     1       5.256  25.293  54.248  1.00  0.00     0.069 C 
HETATM   11  N   UNL     1       7.199  24.497  55.694  1.00  0.00    -0.319 N 
HETATM   12  C   UNL     1       7.809  24.889  56.882  1.00  0.00     0.014 A 
HETATM   13  C   UNL     1       8.977  24.203  57.506  1.00  0.00     0.068 C 
HETATM   14  C   UNL     1       7.230  26.075  57.289  1.00  0.00     0.035 A 
BRANCH  11  15
HETATM   15  C   UNL     1       7.550  23.360  54.906  1.00  0.00     0.039 A 
HETATM   16  C   UNL     1       7.451  22.074  55.451  1.00  0.00     0.030 A 
HETATM   17  C   UNL     1       7.784  20.959  54.678  1.00  0.00     0.002 A 
HETATM   18  C   UNL     1       8.217  21.124  53.364  1.00  0.00     0.000 A 
HETATM   19  C   UNL     1       8.316  22.403  52.817  1.00  0.00     0.002 A 
HETATM   20  C   UNL     1       7.981  23.522  53.585  1.00  0.00     0.030 A 
ENDBRANCH  11  15
ENDBRANCH   7   8
ENDBRANCH   3   7
BRANCH   1  21
HETATM   21  C   UNL     1       7.662  31.285  58.711  1.00  0.00     0.162 C 
BRANCH  21  22
HETATM   22  C   UNL     1       7.715  31.831  60.115  1.00  0.00    -0.040 A 
HETATM   23  C   UNL     1       6.626  32.546  60.633  1.00  0.00     0.009 A 
HETATM   24  C   UNL     1       6.624  32.983  61.961  1.00  0.00     0.007 A 
HETATM   25  C   UNL     1       7.708  32.710  62.799  1.00  0.00    -0.062 A 
HETATM   26  C   UNL     1       7.702  33.140  64.236  1.00  0.00     0.048 C 
HETATM   27  C   UNL     1       8.795  31.992  62.289  1.00  0.00     0.007 A 
HETATM   28  C   UNL     1       8.796  31.551  60.964  1.00  0.00     0.009 A 
ENDBRANCH  21  22
ENDBRANCH   1  21
TORSDOF 5
ENDMDL
MODEL 2
REMARK VINA RESULT:     -10.1      1.738      2.976
REMARK  5 active torsions:
REMARK  status: ('A' for Active; 'I' for Inactive)
REMARK    1  A    between atoms: C_5  and  C_6 
REMARK    2  A    between atoms: C_6  and  N_7 
REMARK       I    between atoms: N_7  and  C_8 
REMARK       I    between atoms: C_8  and  N_9 
REMARK    3  A    between atoms: N_9  and  C_10 
REMARK    4  A    between atoms: C_10  and  C_11 
REMARK    5  A    between atoms: N_14  and  C_15 
ROOT
HETATM    1  N   UNL     1       7.882  30.840  60.752  1.00  0.00    -0.339 N 
HETATM    2  C   UNL     1       7.826  31.015  59.399  1.00  0.00     0.316 C 
HETATM    3  N   UNL     1       7.383  29.897  58.751  1.00  0.00    -0.339 N 
HETATM    4  O   UNL     1       8.157  32.047  58.832  1.00  0.00    -0.247 OA
HETATM    5  H   UNL     1       7.635  29.949  61.151  1.00  0.00     0.164 HD
HETATM    6  H   UNL     1       6.883  29.200  59.278  1.00  0.00     0.164 HD
ENDROOT
BRANCH   3   7
HETATM    7  C   UNL     1       7.212  29.886  57.317  1.00  0.00     0.165 C 
BRANCH   7   8
HETATM    8  C   UNL     1       6.760  28.537  56.840  1.00  0.00    -0.016 A 
HETATM    9  C   UNL     1       7.250  27.865  55.724  1.00  0.00     0.021 A 
HETATM   10  C   UNL     1       8.224  28.381  54.712  1.00  0.00     0.069 C 
HETATM   11  N   UNL     1       6.641  26.613  55.643  1.00  0.00    -0.319 N 
HETATM   12  C   UNL     1       5.718  26.521  56.681  1.00  0.00     0.014 A 
HETATM   13  C   UNL     1       4.911  25.307  56.997  1.00  0.00     0.068 C 
HETATM   14  C   UNL     1       5.788  27.685  57.420  1.00  0.00     0.035 A 
BRANCH  11  15
HETATM   15  C   UNL     1       6.934  25.594  54.688  1.00  0.00     0.039 A 
HETATM   16  C   UNL     1       7.872  24.599  54.993  1.00  0.00     0.030 A 
HETATM   17  C   UNL     1       8.152  23.595  54.064  1.00  0.00     0.002 A 
HETATM   18  C   UNL     1       7.502  23.581  52.832  1.00  0.00     0.000 A 
HETATM   19  C   UNL     1       6.567  24.569  52.525  1.00  0.00     0.002 A 
HETATM   20  C   UNL     1       6.280  25.575  53.452  1.00  0.00     0.030 A 
ENDBRANCH  11  15
ENDBRANCH   7   8
ENDBRANCH   3   7
BRANCH   1  21
HETATM   21  C   UNL     1       8.446  31.844  61.627  1.00  0.00     0.162 C 
BRANCH  21  22
HETATM   22  C   UNL     1       7.496  32.276  62.716  1.00  0.00    -0.040 A 
HETATM   23  C   UNL     1       7.987  32.917  63.863  1.00  0.00     0.009 A 
HETATM   24  C   UNL     1       7.112  33.401  64.840  1.00  0.00     0.007 A 
HETATM   25  C   UNL     1       5.730  33.257  64.689  1.00  0.00    -0.062 A 
HETATM   26  C   UNL     1       4.779  33.806  65.712  1.00  0.00     0.048 C 
HETATM   27  C   UNL     1       5.235  32.624  63.544  1.00  0.00     0.007 A 
HETATM   28  C   UNL     1       6.108  32.144  62.564  1.00  0.00     0.009 A 
ENDBRANCH  21  22
ENDBRANCH   1  21
TORSDOF 5
ENDMDL
MODEL 3
REMARK VINA RESULT:      -9.7      1.410      2.470
REMARK  5 active torsions:
REMARK  status: ('A' for Active; 'I' for Inactive)
REMARK    1  A    between atoms: C_5  and  C_6 
REMARK    2  A    between atoms: C_6  and  N_7 
REMARK       I    between atoms: N_7  and  C_8 
REMARK       I    between atoms: C_8  and  N_9 
REMARK    3  A    between atoms: N_9  and  C_10 
REMARK    4  A    between atoms: C_10  and  C_11 
REMARK    5  A    between atoms: N_14  and  C_15 
ROOT
HETATM    1  N   UNL     1       6.989  31.104  59.430  1.00  0.00    -0.339 N 
HETATM    2  C   UNL     1       7.275  30.568  58.207  1.00  0.00     0.316 C 
HETATM    3  N   UNL     1       6.170  30.483  57.408  1.00  0.00    -0.339 N 
HETATM    4  O   UNL     1       8.388  30.186  57.874  1.00  0.00    -0.247 OA
HETATM    5  H   UNL     1       6.041  31.359  59.653  1.00  0.00     0.164 HD
HETATM    6  H   UNL     1       5.368  31.049  57.632  1.00  0.00     0.164 HD
ENDROOT
BRANCH   3   7
HETATM    7  C   UNL     1       6.264  29.981  56.057  1.00  0.00     0.165 C 
BRANCH   7   8
HETATM    8  C   UNL     1       6.120  28.487  56.028  1.00  0.00    -0.016 A 
HETATM    9  C   UNL     1       6.817  27.621  55.190  1.00  0.00     0.021 A 
HETATM   10  C   UNL     1       7.749  27.991  54.080  1.00  0.00     0.069 C 
HETATM   11  N   UNL     1       6.469  26.307  55.504  1.00  0.00    -0.319 N 
HETATM   12  C   UNL     1       5.503  26.349  56.505  1.00  0.00     0.014 A 
HETATM   13  C   UNL     1       4.923  25.153  57.180  1.00  0.00     0.068 C 
HETATM   14  C   UNL     1       5.289  27.673  56.836  1.00  0.00     0.035 A 
BRANCH  11  15
HETATM   15  C   UNL     1       7.028  25.129  54.926  1.00  0.00     0.039 A 
HETATM   16  C   UNL     1       6.544  24.654  53.700  1.00  0.00     0.030 A 
HETATM   17  C   UNL     1       7.097  23.506  53.128  1.00  0.00     0.002 A 
HETATM   18  C   UNL     1       8.128  22.829  53.776  1.00  0.00     0.000 A 
HETATM   19  C   UNL     1       8.613  23.298  54.996  1.00  0.00     0.002 A 
HETATM   20  C   UNL     1       8.066  24.449  55.572  1.00  0.00     0.030 A 
ENDBRANCH  11  15
ENDBRANCH   7   8
ENDBRANCH   3   7
BRANCH   1  21
HETATM   21  C   UNL     1       7.978  31.168  60.483  1.00  0.00     0.162 C 
BRANCH  21  22
HETATM   22  C   UNL     1       7.489  31.904  61.705  1.00  0.00    -0.040 A 
HETATM   23  C   UNL     1       8.347  32.102  62.796  1.00  0.00     0.009 A 
HETATM   24  C   UNL     1       7.938  32.858  63.899  1.00  0.00     0.007 A 
HETATM   25  C   UNL     1       6.664  33.433  63.932  1.00  0.00    -0.062 A 
HETATM   26  C   UNL     1       6.227  34.277  65.092  1.00  0.00     0.048 C 
HETATM   27  C   UNL     1       5.807  33.243  62.843  1.00  0.00     0.007 A 
HETATM   28  C   UNL     1       6.217  32.493  61.738  1.00  0.00     0.009 A 
ENDBRANCH  21  22
ENDBRANCH   1  21
TORSDOF 5
ENDMDL
MODEL 4
REMARK VINA RESULT:      -9.7      1.248      1.921
REMARK  5 active torsions:
REMARK  status: ('A' for Active; 'I' for Inactive)
REMARK    1  A    between atoms: C_5  and  C_6 
REMARK    2  A    between atoms: C_6  and  N_7 
REMARK       I    between atoms: N_7  and  C_8 
REMARK       I    between atoms: C_8  and  N_9 
REMARK    3  A    between atoms: N_9  and  C_10 
REMARK    4  A    between atoms: C_10  and  C_11 
REMARK    5  A    between atoms: N_14  and  C_15 
ROOT
HETATM    1  N   UNL     1       8.369  29.421  58.376  1.00  0.00    -0.339 N 
HETATM    2  C   UNL     1       7.460  29.137  57.397  1.00  0.00     0.316 C 
HETATM    3  N   UNL     1       7.162  27.805  57.340  1.00  0.00    -0.339 N 
HETATM    4  O   UNL     1       6.985  29.975  56.644  1.00  0.00    -0.247 OA
HETATM    5  H   UNL     1       8.752  28.675  58.934  1.00  0.00     0.164 HD
HETATM    6  H   UNL     1       7.370  27.229  58.139  1.00  0.00     0.164 HD
ENDROOT
BRANCH   3   7
HETATM    7  C   UNL     1       6.190  27.299  56.399  1.00  0.00     0.165 C 
BRANCH   7   8
HETATM    8  C   UNL     1       6.827  26.350  55.426  1.00  0.00    -0.016 A 
HETATM    9  C   UNL     1       7.165  25.026  55.688  1.00  0.00     0.021 A 
HETATM   10  C   UNL     1       7.080  24.312  57.000  1.00  0.00     0.069 C 
HETATM   11  N   UNL     1       7.668  24.445  54.523  1.00  0.00    -0.319 N 
HETATM   12  C   UNL     1       7.702  25.428  53.538  1.00  0.00     0.014 A 
HETATM   13  C   UNL     1       8.100  25.199  52.120  1.00  0.00     0.068 C 
HETATM   14  C   UNL     1       7.185  26.591  54.077  1.00  0.00     0.035 A 
BRANCH  11  15
HETATM   15  C   UNL     1       8.048  23.081  54.359  1.00  0.00     0.039 A 
HETATM   16  C   UNL     1       9.079  22.542  55.140  1.00  0.00     0.030 A 
HETATM   17  C   UNL     1       9.445  21.204  54.988  1.00  0.00     0.002 A 
HETATM   18  C   UNL     1       8.788  20.400  54.059  1.00  0.00     0.000 A 
HETATM   19  C   UNL     1       7.761  20.931  53.280  1.00  0.00     0.002 A 
HETATM   20  C   UNL     1       7.388  22.270  53.429  1.00  0.00     0.030 A 
ENDBRANCH  11  15
ENDBRANCH   7   8
ENDBRANCH   3   7
BRANCH   1  21
HETATM   21  C   UNL     1       8.930  30.745  58.533  1.00  0.00     0.162 C 
BRANCH  21  22
HETATM   22  C   UNL     1       8.622  31.359  59.875  1.00  0.00    -0.040 A 
HETATM   23  C   UNL     1       7.481  32.160  60.036  1.00  0.00     0.009 A 
HETATM   24  C   UNL     1       7.135  32.664  61.293  1.00  0.00     0.007 A 
HETATM   25  C   UNL     1       7.918  32.376  62.414  1.00  0.00    -0.062 A 
HETATM   26  C   UNL     1       7.536  32.880  63.774  1.00  0.00     0.048 C 
HETATM   27  C   UNL     1       9.053  31.573  62.259  1.00  0.00     0.007 A 
HETATM   28  C   UNL     1       9.398  31.065  61.005  1.00  0.00     0.009 A 
ENDBRANCH  21  22
ENDBRANCH   1  21
TORSDOF 5
ENDMDL
MODEL 5
REMARK VINA RESULT:      -9.4      5.508      9.896
REMARK  5 active torsions:
REMARK  status: ('A' for Active; 'I' for Inactive)
REMARK    1  A    between atoms: C_5  and  C_6 
REMARK    2  A    between atoms: C_6  and  N_7 
REMARK       I    between atoms: N_7  and  C_8 
REMARK       I    between atoms: C_8  and  N_9 
REMARK    3  A    between atoms: N_9  and  C_10 
REMARK    4  A    between atoms: C_10  and  C_11 
REMARK    5  A    between atoms: N_14  and  C_15 
ROOT
HETATM    1  N   UNL     1       6.007  26.070  54.881  1.00  0.00    -0.339 N 
HETATM    2  C   UNL     1       6.174  27.112  54.014  1.00  0.00     0.316 C 
HETATM    3  N   UNL     1       4.998  27.500  53.439  1.00  0.00    -0.339 N 
HETATM    4  O   UNL     1       7.257  27.622  53.764  1.00  0.00    -0.247 OA
HETATM    5  H   UNL     1       5.092  25.670  55.009  1.00  0.00     0.164 HD
HETATM    6  H   UNL     1       4.133  27.231  53.879  1.00  0.00     0.164 HD
ENDROOT
BRANCH   3   7
HETATM    7  C   UNL     1       4.949  28.613  52.520  1.00  0.00     0.165 C 
BRANCH   7   8
HETATM    8  C   UNL     1       4.506  28.167  51.158  1.00  0.00    -0.016 A 
HETATM    9  C   UNL     1       3.339  28.566  50.513  1.00  0.00     0.021 A 
HETATM   10  C   UNL     1       2.239  29.412  51.073  1.00  0.00     0.069 C 
HETATM   11  N   UNL     1       3.306  28.000  49.239  1.00  0.00    -0.319 N 
HETATM   12  C   UNL     1       4.431  27.191  49.103  1.00  0.00     0.014 A 
HETATM   13  C   UNL     1       4.813  26.467  47.857  1.00  0.00     0.068 C 
HETATM   14  C   UNL     1       5.172  27.292  50.264  1.00  0.00     0.035 A 
BRANCH  11  15
HETATM   15  C   UNL     1       2.315  28.233  48.239  1.00  0.00     0.039 A 
HETATM   16  C   UNL     1       2.387  29.379  47.437  1.00  0.00     0.030 A 
HETATM   17  C   UNL     1       1.424  29.604  46.451  1.00  0.00     0.002 A 
HETATM   18  C   UNL     1       0.389  28.690  46.263  1.00  0.00     0.000 A 
HETATM   19  C   UNL     1       0.315  27.547  47.058  1.00  0.00     0.002 A 
HETATM   20  C   UNL     1       1.277  27.316  48.045  1.00  0.00     0.030 A 
ENDBRANCH  11  15
ENDBRANCH   7   8
ENDBRANCH   3   7
BRANCH   1  21
HETATM   21  C   UNL     1       7.133  25.410  55.504  1.00  0.00     0.162 C 
BRANCH  21  22
HETATM   22  C   UNL     1       7.516  24.124  54.816  1.00  0.00    -0.040 A 
HETATM   23  C   UNL     1       7.582  22.929  55.548  1.00  0.00     0.009 A 
HETATM   24  C   UNL     1       7.849  21.715  54.908  1.00  0.00     0.007 A 
HETATM   25  C   UNL     1       8.052  21.670  53.526  1.00  0.00    -0.062 A 
HETATM   26  C   UNL     1       8.302  20.368  52.824  1.00  0.00     0.048 C 
HETATM   27  C   UNL     1       7.981  22.858  52.792  1.00  0.00     0.007 A 
HETATM   28  C   UNL     1       7.709  24.071  53.428  1.00  0.00     0.009 A 
ENDBRANCH  21  22
ENDBRANCH   1  21
TORSDOF 5
ENDMDL
MODEL 6
REMARK VINA RESULT:      -9.3      4.774      8.170
REMARK  5 active torsions:
REMARK  status: ('A' for Active; 'I' for Inactive)
REMARK    1  A    between atoms: C_5  and  C_6 
REMARK    2  A    between atoms: C_6  and  N_7 
REMARK       I    between atoms: N_7  and  C_8 
REMARK       I    between atoms: C_8  and  N_9 
REMARK    3  A    between atoms: N_9  and  C_10 
REMARK    4  A    between atoms: C_10  and  C_11 
REMARK    5  A    between atoms: N_14  and  C_15 
ROOT
HETATM    1  N   UNL     1       5.444  29.209  51.918  1.00  0.00    -0.339 N 
HETATM    2  C   UNL     1       4.916  28.670  53.056  1.00  0.00     0.316 C 
HETATM    3  N   UNL     1       5.880  28.215  53.909  1.00  0.00    -0.339 N 
HETATM    4  O   UNL     1       3.715  28.584  53.275  1.00  0.00    -0.247 OA
HETATM    5  H   UNL     1       6.442  29.210  51.783  1.00  0.00     0.164 HD
HETATM    6  H   UNL     1       6.822  28.554  53.798  1.00  0.00     0.164 HD
ENDROOT
BRANCH   3   7
HETATM    7  C   UNL     1       5.534  27.645  55.190  1.00  0.00     0.165 C 
BRANCH   7   8
HETATM    8  C   UNL     1       6.356  26.423  55.474  1.00  0.00    -0.016 A 
HETATM    9  C   UNL     1       6.299  25.224  54.769  1.00  0.00     0.021 A 
HETATM   10  C   UNL     1       5.343  24.861  53.678  1.00  0.00     0.069 C 
HETATM   11  N   UNL     1       7.260  24.350  55.278  1.00  0.00    -0.319 N 
HETATM   12  C   UNL     1       7.885  24.982  56.349  1.00  0.00     0.014 A 
HETATM   13  C   UNL     1       9.030  24.418  57.120  1.00  0.00     0.068 C 
HETATM   14  C   UNL     1       7.346  26.248  56.472  1.00  0.00     0.035 A 
BRANCH  11  15
HETATM   15  C   UNL     1       7.571  23.054  54.772  1.00  0.00     0.039 A 
HETATM   16  C   UNL     1       7.464  21.933  55.605  1.00  0.00     0.030 A 
HETATM   17  C   UNL     1       7.758  20.661  55.109  1.00  0.00     0.002 A 
HETATM   18  C   UNL     1       8.161  20.504  53.784  1.00  0.00     0.000 A 
HETATM   19  C   UNL     1       8.268  21.617  52.951  1.00  0.00     0.002 A 
HETATM   20  C   UNL     1       7.972  22.892  53.441  1.00  0.00     0.030 A 
ENDBRANCH  11  15
ENDBRANCH   7   8
ENDBRANCH   3   7
BRANCH   1  21
HETATM   21  C   UNL     1       4.608  29.634  50.817  1.00  0.00     0.162 C 
BRANCH  21  22
HETATM   22  C   UNL     1       4.143  28.487  49.955  1.00  0.00    -0.040 A 
HETATM   23  C   UNL     1       2.825  28.458  49.476  1.00  0.00     0.009 A 
HETATM   24  C   UNL     1       2.404  27.448  48.605  1.00  0.00     0.007 A 
HETATM   25  C   UNL     1       3.291  26.450  48.193  1.00  0.00    -0.062 A 
HETATM   26  C   UNL     1       2.862  25.384  47.230  1.00  0.00     0.048 C 
HETATM   27  C   UNL     1       4.609  26.479  48.664  1.00  0.00     0.007 A 
HETATM   28  C   UNL     1       5.032  27.490  49.529  1.00  0.00     0.009 A 
ENDBRANCH  21  22
ENDBRANCH   1  21
TORSDOF 5
ENDMDL
MODEL 7
REMARK VINA RESULT:      -9.2      4.874      8.834
REMARK  5 active torsions:
REMARK  status: ('A' for Active; 'I' for Inactive)
REMARK    1  A    between atoms: C_5  and  C_6 
REMARK    2  A    between atoms: C_6  and  N_7 
REMARK       I    between atoms: N_7  and  C_8 
REMARK       I    between atoms: C_8  and  N_9 
REMARK    3  A    between atoms: N_9  and  C_10 
REMARK    4  A    between atoms: C_10  and  C_11 
REMARK    5  A    between atoms: N_14  and  C_15 
ROOT
HETATM    1  N   UNL     1       5.992  25.262  56.158  1.00  0.00    -0.339 N 
HETATM    2  C   UNL     1       6.084  26.575  55.793  1.00  0.00     0.316 C 
HETATM    3  N   UNL     1       4.902  27.064  55.315  1.00  0.00    -0.339 N 
HETATM    4  O   UNL     1       7.114  27.231  55.866  1.00  0.00    -0.247 OA
HETATM    5  H   UNL     1       5.122  24.770  56.033  1.00  0.00     0.164 HD
HETATM    6  H   UNL     1       4.052  26.569  55.532  1.00  0.00     0.164 HD
ENDROOT
BRANCH   3   7
HETATM    7  C   UNL     1       4.775  28.445  54.912  1.00  0.00     0.165 C 
BRANCH   7   8
HETATM    8  C   UNL     1       4.320  28.549  53.486  1.00  0.00    -0.016 A 
HETATM    9  C   UNL     1       4.991  28.035  52.380  1.00  0.00     0.021 A 
HETATM   10  C   UNL     1       6.340  27.388  52.361  1.00  0.00     0.069 C 
HETATM   11  N   UNL     1       4.226  28.264  51.236  1.00  0.00    -0.319 N 
HETATM   12  C   UNL     1       3.095  28.980  51.617  1.00  0.00     0.014 A 
HETATM   13  C   UNL     1       1.979  29.358  50.703  1.00  0.00     0.068 C 
HETATM   14  C   UNL     1       3.139  29.153  52.987  1.00  0.00     0.035 A 
BRANCH  11  15
HETATM   15  C   UNL     1       4.531  27.817  49.917  1.00  0.00     0.039 A 
HETATM   16  C   UNL     1       4.104  26.553  49.490  1.00  0.00     0.030 A 
HETATM   17  C   UNL     1       4.392  26.118  48.195  1.00  0.00     0.002 A 
HETATM   18  C   UNL     1       5.105  26.939  47.324  1.00  0.00     0.000 A 
HETATM   19  C   UNL     1       5.531  28.198  47.744  1.00  0.00     0.002 A 
HETATM   20  C   UNL     1       5.243  28.641  49.038  1.00  0.00     0.030 A 
ENDBRANCH  11  15
ENDBRANCH   7   8
ENDBRANCH   3   7
BRANCH   1  21
HETATM   21  C   UNL     1       7.152  24.502  56.568  1.00  0.00     0.162 C 
BRANCH  21  22
HETATM   22  C   UNL     1       7.544  23.443  55.570  1.00  0.00    -0.040 A 
HETATM   23  C   UNL     1       7.632  22.101  55.967  1.00  0.00     0.009 A 
HETATM   24  C   UNL     1       7.909  21.096  55.034  1.00  0.00     0.007 A 
HETATM   25  C   UNL     1       8.100  21.413  53.686  1.00  0.00    -0.062 A 
HETATM   26  C   UNL     1       8.361  20.341  52.670  1.00  0.00     0.048 C 
HETATM   27  C   UNL     1       8.008  22.750  53.284  1.00  0.00     0.007 A 
HETATM   28  C   UNL     1       7.726  23.753  54.214  1.00  0.00     0.009 A 
ENDBRANCH  21  22
ENDBRANCH   1  21
TORSDOF 5
ENDMDL
MODEL 8
REMARK VINA RESULT:      -9.0      1.630      9.987
REMARK  5 active torsions:
REMARK  status: ('A' for Active; 'I' for Inactive)
REMARK    1  A    between atoms: C_5  and  C_6 
REMARK    2  A    between atoms: C_6  and  N_7 
REMARK       I    between atoms: N_7  and  C_8 
REMARK       I    between atoms: C_8  and  N_9 
REMARK    3  A    between atoms: N_9  and  C_10 
REMARK    4  A    between atoms: C_10  and  C_11 
REMARK    5  A    between atoms: N_14  and  C_15 
ROOT
HETATM    1  N   UNL     1       5.831  27.406  57.055  1.00  0.00    -0.339 N 
HETATM    2  C   UNL     1       6.979  27.980  57.521  1.00  0.00     0.316 C 
HETATM    3  N   UNL     1       7.072  29.300  57.184  1.00  0.00    -0.339 N 
HETATM    4  O   UNL     1       7.836  27.373  58.148  1.00  0.00    -0.247 OA
HETATM    5  H   UNL     1       5.186  27.954  56.509  1.00  0.00     0.164 HD
HETATM    6  H   UNL     1       6.234  29.790  56.916  1.00  0.00     0.164 HD
ENDROOT
BRANCH   3   7
HETATM    7  C   UNL     1       8.192  30.102  57.616  1.00  0.00     0.165 C 
BRANCH   7   8
HETATM    8  C   UNL     1       7.939  30.695  58.971  1.00  0.00    -0.016 A 
HETATM    9  C   UNL     1       6.921  31.590  59.288  1.00  0.00     0.021 A 
HETATM   10  C   UNL     1       5.957  32.234  58.343  1.00  0.00     0.069 C 
HETATM   11  N   UNL     1       6.961  31.859  60.656  1.00  0.00    -0.319 N 
HETATM   12  C   UNL     1       8.047  31.175  61.193  1.00  0.00     0.014 A 
HETATM   13  C   UNL     1       8.394  31.132  62.642  1.00  0.00     0.068 C 
HETATM   14  C   UNL     1       8.646  30.456  60.176  1.00  0.00     0.035 A 
BRANCH  11  15
HETATM   15  C   UNL     1       6.034  32.664  61.382  1.00  0.00     0.039 A 
HETATM   16  C   UNL     1       6.391  33.961  61.773  1.00  0.00     0.030 A 
HETATM   17  C   UNL     1       5.482  34.755  62.475  1.00  0.00     0.002 A 
HETATM   18  C   UNL     1       4.219  34.259  62.791  1.00  0.00     0.000 A 
HETATM   19  C   UNL     1       3.859  32.969  62.404  1.00  0.00     0.002 A 
HETATM   20  C   UNL     1       4.764  32.170  61.698  1.00  0.00     0.030 A 
ENDBRANCH  11  15
ENDBRANCH   7   8
ENDBRANCH   3   7
BRANCH   1  21
HETATM   21  C   UNL     1       5.583  25.987  57.179  1.00  0.00     0.162 C 
BRANCH  21  22
HETATM   22  C   UNL     1       6.216  25.180  56.074  1.00  0.00    -0.040 A 
HETATM   23  C   UNL     1       7.277  24.309  56.359  1.00  0.00     0.009 A 
HETATM   24  C   UNL     1       7.816  23.490  55.362  1.00  0.00     0.007 A 
HETATM   25  C   UNL     1       7.304  23.523  54.062  1.00  0.00    -0.062 A 
HETATM   26  C   UNL     1       7.849  22.622  52.994  1.00  0.00     0.048 C 
HETATM   27  C   UNL     1       6.242  24.386  53.774  1.00  0.00     0.007 A 
HETATM   28  C   UNL     1       5.699  25.201  54.770  1.00  0.00     0.009 A 
ENDBRANCH  21  22
ENDBRANCH   1  21
TORSDOF 5
ENDMDL
MODEL 9
REMARK VINA RESULT:      -8.6      1.642      2.900
REMARK  5 active torsions:
REMARK  status: ('A' for Active; 'I' for Inactive)
REMARK    1  A    between atoms: C_5  and  C_6 
REMARK    2  A    between atoms: C_6  and  N_7 
REMARK       I    between atoms: N_7  and  C_8 
REMARK       I    between atoms: C_8  and  N_9 
REMARK    3  A    between atoms: N_9  and  C_10 
REMARK    4  A    between atoms: C_10  and  C_11 
REMARK    5  A    between atoms: N_14  and  C_15 
ROOT
HETATM    1  N   UNL     1       5.393  30.215  57.250  1.00  0.00    -0.339 N 
HETATM    2  C   UNL     1       6.546  29.491  57.150  1.00  0.00     0.316 C 
HETATM    3  N   UNL     1       6.359  28.174  57.460  1.00  0.00    -0.339 N 
HETATM    4  O   UNL     1       7.627  29.973  56.839  1.00  0.00    -0.247 OA
HETATM    5  H   UNL     1       4.545  29.763  57.552  1.00  0.00     0.164 HD
HETATM    6  H   UNL     1       5.424  27.802  57.439  1.00  0.00     0.164 HD
ENDROOT
BRANCH   3   7
HETATM    7  C   UNL     1       7.447  27.228  57.377  1.00  0.00     0.165 C 
BRANCH   7   8
HETATM    8  C   UNL     1       7.195  26.213  56.302  1.00  0.00    -0.016 A 
HETATM    9  C   UNL     1       7.850  24.992  56.168  1.00  0.00     0.021 A 
HETATM   10  C   UNL     1       9.004  24.491  56.978  1.00  0.00     0.069 C 
HETATM   11  N   UNL     1       7.296  24.293  55.096  1.00  0.00    -0.319 N 
HETATM   12  C   UNL     1       6.326  25.104  54.514  1.00  0.00     0.014 A 
HETATM   13  C   UNL     1       5.441  24.697  53.385  1.00  0.00     0.068 C 
HETATM   14  C   UNL     1       6.252  26.273  55.246  1.00  0.00     0.035 A 
BRANCH  11  15
HETATM   15  C   UNL     1       7.637  22.969  54.688  1.00  0.00     0.039 A 
HETATM   16  C   UNL     1       8.201  22.750  53.424  1.00  0.00     0.030 A 
HETATM   17  C   UNL     1       8.546  21.457  53.027  1.00  0.00     0.002 A 
HETATM   18  C   UNL     1       8.328  20.381  53.884  1.00  0.00     0.000 A 
HETATM   19  C   UNL     1       7.768  20.594  55.143  1.00  0.00     0.002 A 
HETATM   20  C   UNL     1       7.424  21.887  55.548  1.00  0.00     0.030 A 
ENDBRANCH  11  15
ENDBRANCH   7   8
ENDBRANCH   3   7
BRANCH   1  21
HETATM   21  C   UNL     1       5.380  31.653  57.096  1.00  0.00     0.162 C 
BRANCH  21  22
HETATM   22  C   UNL     1       5.185  32.383  58.401  1.00  0.00    -0.040 A 
HETATM   23  C   UNL     1       6.065  32.160  59.469  1.00  0.00     0.009 A 
HETATM   24  C   UNL     1       5.951  32.893  60.655  1.00  0.00     0.007 A 
HETATM   25  C   UNL     1       4.957  33.865  60.794  1.00  0.00    -0.062 A 
HETATM   26  C   UNL     1       4.848  34.684  62.046  1.00  0.00     0.048 C 
HETATM   27  C   UNL     1       4.080  34.096  59.729  1.00  0.00     0.007 A 
HETATM   28  C   UNL     1       4.197  33.368  58.543  1.00  0.00     0.009 A 
ENDBRANCH  21  22
ENDBRANCH   1  21
TORSDOF 5
ENDMDL
MODEL 10
REMARK VINA RESULT:      -8.5      2.252     10.096
REMARK  5 active torsions:
REMARK  status: ('A' for Active; 'I' for Inactive)
REMARK    1  A    between atoms: C_5  and  C_6 
REMARK    2  A    between atoms: C_6  and  N_7 
REMARK       I    between atoms: N_7  and  C_8 
REMARK       I    between atoms: C_8  and  N_9 
REMARK    3  A    between atoms: N_9  and  C_10 
REMARK    4  A    between atoms: C_10  and  C_11 
REMARK    5  A    between atoms: N_14  and  C_15 
ROOT
HETATM    1  N   UNL     1       7.376  25.678  56.231  1.00  0.00    -0.339 N 
HETATM    2  C   UNL     1       6.219  26.385  56.393  1.00  0.00     0.316 C 
HETATM    3  N   UNL     1       6.314  27.655  55.900  1.00  0.00    -0.339 N 
HETATM    4  O   UNL     1       5.219  25.938  56.939  1.00  0.00    -0.247 OA
HETATM    5  H   UNL     1       8.176  26.121  55.810  1.00  0.00     0.164 HD
HETATM    6  H   UNL     1       7.046  27.862  55.239  1.00  0.00     0.164 HD
ENDROOT
BRANCH   3   7
HETATM    7  C   UNL     1       5.186  28.555  55.936  1.00  0.00     0.165 C 
BRANCH   7   8
HETATM    8  C   UNL     1       5.434  29.690  56.886  1.00  0.00    -0.016 A 
HETATM    9  C   UNL     1       4.506  30.661  57.250  1.00  0.00     0.021 A 
HETATM   10  C   UNL     1       3.130  30.852  56.695  1.00  0.00     0.069 C 
HETATM   11  N   UNL     1       5.079  31.503  58.204  1.00  0.00    -0.319 N 
HETATM   12  C   UNL     1       6.395  31.094  58.397  1.00  0.00     0.014 A 
HETATM   13  C   UNL     1       7.332  31.683  59.397  1.00  0.00     0.068 C 
HETATM   14  C   UNL     1       6.620  29.986  57.604  1.00  0.00     0.035 A 
BRANCH  11  15
HETATM   15  C   UNL     1       4.424  32.571  58.885  1.00  0.00     0.039 A 
HETATM   16  C   UNL     1       3.677  32.310  60.042  1.00  0.00     0.030 A 
HETATM   17  C   UNL     1       3.044  33.356  60.717  1.00  0.00     0.002 A 
HETATM   18  C   UNL     1       3.152  34.661  60.241  1.00  0.00     0.000 A 
HETATM   19  C   UNL     1       3.894  34.926  59.091  1.00  0.00     0.002 A 
HETATM   20  C   UNL     1       4.533  33.883  58.413  1.00  0.00     0.030 A 
ENDBRANCH  11  15
ENDBRANCH   7   8
ENDBRANCH   3   7
BRANCH   1  21
HETATM   21  C   UNL     1       7.547  24.357  56.794  1.00  0.00     0.162 C 
BRANCH  21  22
HETATM   22  C   UNL     1       7.680  23.283  55.745  1.00  0.00    -0.040 A 
HETATM   23  C   UNL     1       7.528  23.603  54.388  1.00  0.00     0.009 A 
HETATM   24  C   UNL     1       7.735  22.637  53.398  1.00  0.00     0.007 A 
HETATM   25  C   UNL     1       8.102  21.333  53.744  1.00  0.00    -0.062 A 
HETATM   26  C   UNL     1       8.363  20.299  52.691  1.00  0.00     0.048 C 
HETATM   27  C   UNL     1       8.260  21.010  55.096  1.00  0.00     0.007 A 
HETATM   28  C   UNL     1       8.059  21.976  56.085  1.00  0.00     0.009 A 
ENDBRANCH  21  22
ENDBRANCH   1  21
TORSDOF 5
ENDMDL
