MODEL 1
REMARK VINA RESULT:      -9.1      0.000      0.000
REMARK  10 active torsions:
REMARK  status: ('A' for Active; 'I' for Inactive)
REMARK    1  A    between atoms: C_2  and  N_3 
REMARK    2  A    between atoms: N_3  and  C_4 
REMARK    3  A    between atoms: N_3  and  C_37 
REMARK    4  A    between atoms: C_7  and  C_8 
REMARK    5  A    between atoms: N_9  and  C_11 
REMARK    6  A    between atoms: C_11  and  C_12 
REMARK       I    between atoms: C_12  and  N_13 
REMARK    7  A    between atoms: N_13  and  C_14 
REMARK    8  A    between atoms: C_20  and  C_21 
REMARK    9  A    between atoms: C_21  and  O_22 
REMARK   10  A    between atoms: C_28  and  O_29 
ROOT
HETATM    1  C   UNL     1       5.508  27.488  51.241  1.00  0.00     0.228 C 
HETATM    2  N   UNL     1       5.186  28.574  52.261  1.00  0.00    -0.054 N 
HETATM    3  H   UNL     1       6.089  28.788  52.720  1.00  0.00     0.281 HD
HETATM    4  C   UNL     1       4.802  29.883  51.617  1.00  0.00     0.239 C 
HETATM    5  C   UNL     1       3.601  29.697  50.704  1.00  0.00     0.066 C 
HETATM    6  C   UNL     1       3.897  28.650  49.631  1.00  0.00     0.065 C 
HETATM    7  C   UNL     1       4.307  27.300  50.272  1.00  0.00     0.055 C 
HETATM    8  C   UNL     1       2.685  28.462  48.701  1.00  0.00     0.038 C 
HETATM    9  C   UNL     1       2.956  27.425  47.612  1.00  0.00     0.003 C 
HETATM   10  C   UNL     1       3.432  26.104  48.202  1.00  0.00     0.001 C 
HETATM   11  C   UNL     1       4.622  26.287  49.143  1.00  0.00     0.010 C 
ENDROOT
BRANCH   2  12
HETATM   12  C   UNL     1       4.314  28.199  53.469  1.00  0.00     0.338 C 
BRANCH  12  13
HETATM   13  C   UNL     1       5.195  28.150  54.726  1.00  0.00     0.248 C 
HETATM   14  N   UNL     1       5.825  29.334  55.033  1.00  0.00    -0.319 N 
HETATM   15  H   UNL     1       5.398  30.220  54.757  1.00  0.00     0.169 HD
HETATM   16  O   UNL     1       5.300  27.068  55.306  1.00  0.00    -0.271 OA
BRANCH  14  17
HETATM   17  C   UNL     1       6.925  29.470  55.875  1.00  0.00     0.094 A 
HETATM   18  S   UNL     1       8.445  28.894  55.396  1.00  0.00    -0.076 SA
HETATM   19  C   UNL     1       9.206  29.494  56.795  1.00  0.00    -0.012 A 
HETATM   20  C   UNL     1      10.679  29.292  56.969  1.00  0.00     0.057 C 
HETATM   21  C   UNL     1       8.313  30.131  57.647  1.00  0.00    -0.030 A 
HETATM   22  C   UNL     1       8.709  30.746  58.957  1.00  0.00     0.050 C 
HETATM   23  C   UNL     1       6.963  30.135  57.094  1.00  0.00     0.080 A 
BRANCH  23  24
HETATM   24  C   UNL     1       5.746  30.722  57.668  1.00  0.00     0.296 C 
HETATM   25  O   UNL     1       5.710  31.889  58.057  1.00  0.00    -0.259 OA
BRANCH  24  26
HETATM   26  O   UNL     1       4.692  29.866  57.716  1.00  0.00    -0.322 OA
HETATM   27  C   UNL     1       3.419  30.462  57.458  1.00  0.00     0.213 C 
ENDBRANCH  24  26
ENDBRANCH  23  24
ENDBRANCH  14  17
ENDBRANCH  12  13
ENDBRANCH   2  12
BRANCH   1  28
HETATM   28  C   UNL     1       6.068  26.243  51.913  1.00  0.00    -0.027 A 
HETATM   29  C   UNL     1       7.433  26.060  52.182  1.00  0.00     0.011 A 
HETATM   30  C   UNL     1       7.883  24.931  52.881  1.00  0.00     0.030 A 
HETATM   31  C   UNL     1       7.001  23.932  53.297  1.00  0.00     0.030 A 
HETATM   32  C   UNL     1       5.651  24.080  52.954  1.00  0.00     0.030 A 
HETATM   33  C   UNL     1       5.186  25.216  52.284  1.00  0.00     0.011 A 
BRANCH  31  34
HETATM   34  N   UNL     1       7.392  22.832  54.056  1.00  0.00    -0.382 N 
BRANCH  34  35
HETATM   35  C   UNL     1       7.349  22.911  55.524  1.00  0.00     0.118 C 
HETATM   36  C   UNL     1       8.721  23.242  56.096  1.00  0.00     0.026 C 
ENDBRANCH  34  35
BRANCH  34  37
HETATM   37  C   UNL     1       8.451  21.996  53.469  1.00  0.00     0.118 C 
HETATM   38  C   UNL     1       7.942  20.617  53.071  1.00  0.00     0.026 C 
ENDBRANCH  34  37
ENDBRANCH  31  34
ENDBRANCH   1  28
BRANCH   6  39
HETATM   39  O   UNL     1       5.006  29.143  48.872  1.00  0.00    -0.389 OA
HETATM   40  H   UNL     1       5.661  28.427  48.749  1.00  0.00     0.210 HD
ENDBRANCH   6  39
TORSDOF 10
ENDMDL
MODEL 2
REMARK VINA RESULT:      -9.1      2.375      8.109
REMARK  10 active torsions:
REMARK  status: ('A' for Active; 'I' for Inactive)
REMARK    1  A    between atoms: C_2  and  N_3 
REMARK    2  A    between atoms: N_3  and  C_4 
REMARK    3  A    between atoms: N_3  and  C_37 
REMARK    4  A    between atoms: C_7  and  C_8 
REMARK    5  A    between atoms: N_9  and  C_11 
REMARK    6  A    between atoms: C_11  and  C_12 
REMARK       I    between atoms: C_12  and  N_13 
REMARK    7  A    between atoms: N_13  and  C_14 
REMARK    8  A    between atoms: C_20  and  C_21 
REMARK    9  A    between atoms: C_21  and  O_22 
REMARK   10  A    between atoms: C_28  and  O_29 
ROOT
HETATM    1  C   UNL     1       7.533  24.756  54.572  1.00  0.00     0.228 C 
HETATM    2  N   UNL     1       6.852  24.647  53.213  1.00  0.00    -0.054 N 
HETATM    3  H   UNL     1       7.097  25.523  52.718  1.00  0.00     0.281 HD
HETATM    4  C   UNL     1       7.457  23.573  52.343  1.00  0.00     0.239 C 
HETATM    5  C   UNL     1       7.386  22.221  53.036  1.00  0.00     0.066 C 
HETATM    6  C   UNL     1       8.102  22.270  54.384  1.00  0.00     0.065 C 
HETATM    7  C   UNL     1       7.504  23.377  55.290  1.00  0.00     0.055 C 
HETATM    8  C   UNL     1       8.038  20.903  55.087  1.00  0.00     0.038 C 
HETATM    9  C   UNL     1       8.754  20.920  56.437  1.00  0.00     0.003 C 
HETATM   10  C   UNL     1       8.242  22.044  57.329  1.00  0.00     0.001 C 
HETATM   11  C   UNL     1       8.284  23.402  56.629  1.00  0.00     0.010 C 
ENDROOT
BRANCH   2  12
HETATM   12  C   UNL     1       5.317  24.692  53.165  1.00  0.00     0.338 C 
BRANCH  12  13
HETATM   13  C   UNL     1       4.873  26.056  52.615  1.00  0.00     0.248 C 
HETATM   14  N   UNL     1       5.085  26.229  51.267  1.00  0.00    -0.319 N 
HETATM   15  H   UNL     1       5.084  25.416  50.647  1.00  0.00     0.169 HD
HETATM   16  O   UNL     1       4.426  26.875  53.419  1.00  0.00    -0.271 OA
BRANCH  14  17
HETATM   17  C   UNL     1       5.112  27.452  50.603  1.00  0.00     0.094 A 
HETATM   18  S   UNL     1       5.528  28.867  51.435  1.00  0.00    -0.076 SA
HETATM   19  C   UNL     1       5.451  29.819  50.027  1.00  0.00    -0.012 A 
HETATM   20  C   UNL     1       5.750  31.282  50.116  1.00  0.00     0.057 C 
HETATM   21  C   UNL     1       5.099  29.073  48.909  1.00  0.00    -0.030 A 
HETATM   22  C   UNL     1       4.948  29.658  47.534  1.00  0.00     0.050 C 
HETATM   23  C   UNL     1       4.917  27.665  49.245  1.00  0.00     0.080 A 
BRANCH  23  24
HETATM   24  C   UNL     1       4.567  26.554  48.351  1.00  0.00     0.296 C 
HETATM   25  O   UNL     1       5.177  26.349  47.302  1.00  0.00    -0.259 OA
BRANCH  24  26
HETATM   26  O   UNL     1       3.533  25.794  48.797  1.00  0.00    -0.322 OA
HETATM   27  C   UNL     1       2.890  25.004  47.795  1.00  0.00     0.213 C 
ENDBRANCH  24  26
ENDBRANCH  23  24
ENDBRANCH  14  17
ENDBRANCH  12  13
ENDBRANCH   2  12
BRANCH   1  28
HETATM   28  C   UNL     1       7.029  25.962  55.351  1.00  0.00    -0.027 A 
HETATM   29  C   UNL     1       6.073  25.875  56.373  1.00  0.00     0.011 A 
HETATM   30  C   UNL     1       5.709  27.006  57.117  1.00  0.00     0.030 A 
HETATM   31  C   UNL     1       6.250  28.264  56.842  1.00  0.00     0.030 A 
HETATM   32  C   UNL     1       7.143  28.361  55.768  1.00  0.00     0.030 A 
HETATM   33  C   UNL     1       7.536  27.234  55.038  1.00  0.00     0.011 A 
BRANCH  31  34
HETATM   34  N   UNL     1       5.974  29.399  57.600  1.00  0.00    -0.382 N 
BRANCH  34  35
HETATM   35  C   UNL     1       4.609  29.946  57.618  1.00  0.00     0.118 C 
HETATM   36  C   UNL     1       4.161  30.349  56.219  1.00  0.00     0.026 C 
ENDBRANCH  34  35
BRANCH  34  37
HETATM   37  C   UNL     1       7.076  30.365  57.725  1.00  0.00     0.118 C 
HETATM   38  C   UNL     1       7.976  30.062  58.916  1.00  0.00     0.026 C 
ENDBRANCH  34  37
ENDBRANCH  31  34
ENDBRANCH   1  28
BRANCH   6  39
HETATM   39  O   UNL     1       9.468  22.601  54.112  1.00  0.00    -0.389 OA
HETATM   40  H   UNL     1       9.522  23.521  53.784  1.00  0.00     0.210 HD
ENDBRANCH   6  39
TORSDOF 10
ENDMDL
MODEL 3
REMARK VINA RESULT:      -9.0      1.420      2.219
REMARK  10 active torsions:
REMARK  status: ('A' for Active; 'I' for Inactive)
REMARK    1  A    between atoms: C_2  and  N_3 
REMARK    2  A    between atoms: N_3  and  C_4 
REMARK    3  A    between atoms: N_3  and  C_37 
REMARK    4  A    between atoms: C_7  and  C_8 
REMARK    5  A    between atoms: N_9  and  C_11 
REMARK    6  A    between atoms: C_11  and  C_12 
REMARK       I    between atoms: C_12  and  N_13 
REMARK    7  A    between atoms: N_13  and  C_14 
REMARK    8  A    between atoms: C_20  and  C_21 
REMARK    9  A    between atoms: C_21  and  O_22 
REMARK   10  A    between atoms: C_28  and  O_29 
ROOT
HETATM    1  C   UNL     1       5.443  27.672  51.559  1.00  0.00     0.228 C 
HETATM    2  N   UNL     1       4.935  28.742  52.518  1.00  0.00    -0.054 N 
HETATM    3  H   UNL     1       5.744  28.967  53.122  1.00  0.00     0.281 HD
HETATM    4  C   UNL     1       4.639  30.050  51.828  1.00  0.00     0.239 C 
HETATM    5  C   UNL     1       3.609  29.852  50.726  1.00  0.00     0.066 C 
HETATM    6  C   UNL     1       4.100  28.821  49.711  1.00  0.00     0.065 C 
HETATM    7  C   UNL     1       4.423  27.472  50.402  1.00  0.00     0.055 C 
HETATM    8  C   UNL     1       3.064  28.621  48.591  1.00  0.00     0.038 C 
HETATM    9  C   UNL     1       3.532  27.599  47.556  1.00  0.00     0.003 C 
HETATM   10  C   UNL     1       3.928  26.281  48.207  1.00  0.00     0.001 C 
HETATM   11  C   UNL     1       4.941  26.476  49.334  1.00  0.00     0.010 C 
ENDROOT
BRANCH   2  12
HETATM   12  C   UNL     1       3.881  28.340  53.562  1.00  0.00     0.338 C 
BRANCH  12  13
HETATM   13  C   UNL     1       4.367  28.770  54.954  1.00  0.00     0.248 C 
HETATM   14  N   UNL     1       5.331  29.750  54.949  1.00  0.00    -0.319 N 
HETATM   15  H   UNL     1       5.367  30.421  54.179  1.00  0.00     0.169 HD
HETATM   16  O   UNL     1       3.899  28.178  55.928  1.00  0.00    -0.271 OA
BRANCH  14  17
HETATM   17  C   UNL     1       6.177  30.057  56.011  1.00  0.00     0.094 A 
HETATM   18  S   UNL     1       5.656  31.088  57.250  1.00  0.00    -0.076 SA
HETATM   19  C   UNL     1       7.090  30.880  58.142  1.00  0.00    -0.012 A 
HETATM   20  C   UNL     1       7.246  31.588  59.451  1.00  0.00     0.057 C 
HETATM   21  C   UNL     1       7.986  30.032  57.504  1.00  0.00    -0.030 A 
HETATM   22  C   UNL     1       9.335  29.678  58.060  1.00  0.00     0.050 C 
HETATM   23  C   UNL     1       7.439  29.527  56.250  1.00  0.00     0.080 A 
BRANCH  23  24
HETATM   24  C   UNL     1       8.056  28.595  55.297  1.00  0.00     0.296 C 
HETATM   25  O   UNL     1       9.048  28.904  54.638  1.00  0.00    -0.259 OA
BRANCH  24  26
HETATM   26  O   UNL     1       7.436  27.387  55.229  1.00  0.00    -0.322 OA
HETATM   27  C   UNL     1       7.497  26.611  56.428  1.00  0.00     0.213 C 
ENDBRANCH  24  26
ENDBRANCH  23  24
ENDBRANCH  14  17
ENDBRANCH  12  13
ENDBRANCH   2  12
BRANCH   1  28
HETATM   28  C   UNL     1       5.907  26.431  52.306  1.00  0.00    -0.027 A 
HETATM   29  C   UNL     1       5.069  25.674  53.139  1.00  0.00     0.011 A 
HETATM   30  C   UNL     1       5.526  24.490  53.735  1.00  0.00     0.030 A 
HETATM   31  C   UNL     1       6.837  24.043  53.556  1.00  0.00     0.030 A 
HETATM   32  C   UNL     1       7.692  24.844  52.790  1.00  0.00     0.030 A 
HETATM   33  C   UNL     1       7.239  26.012  52.166  1.00  0.00     0.011 A 
BRANCH  31  34
HETATM   34  N   UNL     1       7.311  22.838  54.067  1.00  0.00    -0.382 N 
BRANCH  34  35
HETATM   35  C   UNL     1       7.462  22.673  55.520  1.00  0.00     0.118 C 
HETATM   36  C   UNL     1       8.818  23.183  55.992  1.00  0.00     0.026 C 
ENDBRANCH  34  35
BRANCH  34  37
HETATM   37  C   UNL     1       8.274  22.120  53.217  1.00  0.00     0.118 C 
HETATM   38  C   UNL     1       7.968  20.631  53.131  1.00  0.00     0.026 C 
ENDBRANCH  34  37
ENDBRANCH  31  34
ENDBRANCH   1  28
BRANCH   6  39
HETATM   39  O   UNL     1       5.310  29.341  49.151  1.00  0.00    -0.389 OA
HETATM   40  H   UNL     1       5.333  29.151  48.192  1.00  0.00     0.210 HD
ENDBRANCH   6  39
TORSDOF 10
ENDMDL
MODEL 4
REMARK VINA RESULT:      -8.7      2.100      6.175
REMARK  10 active torsions:
REMARK  status: ('A' for Active; 'I' for Inactive)
REMARK    1  A    between atoms: C_2  and  N_3 
REMARK    2  A    between atoms: N_3  and  C_4 
REMARK    3  A    between atoms: N_3  and  C_37 
REMARK    4  A    between atoms: C_7  and  C_8 
REMARK    5  A    between atoms: N_9  and  C_11 
REMARK    6  A    between atoms: C_11  and  C_12 
REMARK       I    between atoms: C_12  and  N_13 
REMARK    7  A    between atoms: N_13  and  C_14 
REMARK    8  A    between atoms: C_20  and  C_21 
REMARK    9  A    between atoms: C_21  and  O_22 
REMARK   10  A    between atoms: C_28  and  O_29 
ROOT
HETATM    1  C   UNL     1       6.821  23.566  54.632  1.00  0.00     0.228 C 
HETATM    2  N   UNL     1       7.191  24.385  55.862  1.00  0.00    -0.054 N 
HETATM    3  H   UNL     1       6.319  24.872  56.134  1.00  0.00     0.281 HD
HETATM    4  C   UNL     1       7.500  23.526  57.063  1.00  0.00     0.239 C 
HETATM    5  C   UNL     1       8.638  22.565  56.755  1.00  0.00     0.066 C 
HETATM    6  C   UNL     1       8.288  21.686  55.555  1.00  0.00     0.065 C 
HETATM    7  C   UNL     1       7.954  22.550  54.312  1.00  0.00     0.055 C 
HETATM    8  C   UNL     1       9.434  20.707  55.242  1.00  0.00     0.038 C 
HETATM    9  C   UNL     1       9.108  19.809  54.049  1.00  0.00     0.003 C 
HETATM   10  C   UNL     1       8.704  20.623  52.827  1.00  0.00     0.001 C 
HETATM   11  C   UNL     1       7.580  21.611  53.138  1.00  0.00     0.010 C 
ENDROOT
BRANCH   2  12
HETATM   12  C   UNL     1       8.155  25.568  55.683  1.00  0.00     0.338 C 
BRANCH  12  13
HETATM   13  C   UNL     1       7.926  26.577  56.818  1.00  0.00     0.248 C 
HETATM   14  N   UNL     1       7.773  27.880  56.408  1.00  0.00    -0.319 N 
HETATM   15  H   UNL     1       7.390  28.076  55.481  1.00  0.00     0.169 HD
HETATM   16  O   UNL     1       7.951  26.148  57.973  1.00  0.00    -0.271 OA
BRANCH  14  17
HETATM   17  C   UNL     1       7.912  29.004  57.217  1.00  0.00     0.094 A 
HETATM   18  S   UNL     1       9.449  29.540  57.681  1.00  0.00    -0.076 SA
HETATM   19  C   UNL     1       8.825  30.905  58.484  1.00  0.00    -0.012 A 
HETATM   20  C   UNL     1       9.768  31.857  59.149  1.00  0.00     0.057 C 
HETATM   21  C   UNL     1       7.439  30.964  58.416  1.00  0.00    -0.030 A 
HETATM   22  C   UNL     1       6.622  32.056  59.044  1.00  0.00     0.050 C 
HETATM   23  C   UNL     1       6.896  29.849  57.648  1.00  0.00     0.080 A 
BRANCH  23  24
HETATM   24  C   UNL     1       5.492  29.562  57.327  1.00  0.00     0.296 C 
HETATM   25  O   UNL     1       4.995  28.453  57.523  1.00  0.00    -0.259 OA
BRANCH  24  26
HETATM   26  O   UNL     1       4.817  30.624  56.813  1.00  0.00    -0.322 OA
HETATM   27  C   UNL     1       3.492  30.798  57.320  1.00  0.00     0.213 C 
ENDBRANCH  24  26
ENDBRANCH  23  24
ENDBRANCH  14  17
ENDBRANCH  12  13
ENDBRANCH   2  12
BRANCH   1  28
HETATM   28  C   UNL     1       6.337  24.455  53.497  1.00  0.00    -0.027 A 
HETATM   29  C   UNL     1       5.070  25.057  53.475  1.00  0.00     0.011 A 
HETATM   30  C   UNL     1       4.708  25.938  52.446  1.00  0.00     0.030 A 
HETATM   31  C   UNL     1       5.575  26.214  51.386  1.00  0.00     0.030 A 
HETATM   32  C   UNL     1       6.807  25.548  51.370  1.00  0.00     0.030 A 
HETATM   33  C   UNL     1       7.190  24.691  52.407  1.00  0.00     0.011 A 
BRANCH  31  34
HETATM   34  N   UNL     1       5.289  27.136  50.383  1.00  0.00    -0.382 N 
BRANCH  34  35
HETATM   35  C   UNL     1       5.437  28.574  50.654  1.00  0.00     0.118 C 
HETATM   36  C   UNL     1       4.080  29.236  50.861  1.00  0.00     0.026 C 
ENDBRANCH  34  35
BRANCH  34  37
HETATM   37  C   UNL     1       4.226  26.746  49.444  1.00  0.00     0.118 C 
HETATM   38  C   UNL     1       4.752  26.550  48.028  1.00  0.00     0.026 C 
ENDBRANCH  34  37
ENDBRANCH  31  34
ENDBRANCH   1  28
BRANCH   6  39
HETATM   39  O   UNL     1       7.117  20.945  55.917  1.00  0.00    -0.389 OA
HETATM   40  H   UNL     1       7.233  20.008  55.663  1.00  0.00     0.210 HD
ENDBRANCH   6  39
TORSDOF 10
ENDMDL
MODEL 5
REMARK VINA RESULT:      -8.6      2.300      6.335
REMARK  10 active torsions:
REMARK  status: ('A' for Active; 'I' for Inactive)
REMARK    1  A    between atoms: C_2  and  N_3 
REMARK    2  A    between atoms: N_3  and  C_4 
REMARK    3  A    between atoms: N_3  and  C_37 
REMARK    4  A    between atoms: C_7  and  C_8 
REMARK    5  A    between atoms: N_9  and  C_11 
REMARK    6  A    between atoms: C_11  and  C_12 
REMARK       I    between atoms: C_12  and  N_13 
REMARK    7  A    between atoms: N_13  and  C_14 
REMARK    8  A    between atoms: C_20  and  C_21 
REMARK    9  A    between atoms: C_21  and  O_22 
REMARK   10  A    between atoms: C_28  and  O_29 
ROOT
HETATM    1  C   UNL     1       6.357  25.824  54.772  1.00  0.00     0.228 C 
HETATM    2  N   UNL     1       6.757  26.763  55.904  1.00  0.00    -0.054 N 
HETATM    3  H   UNL     1       5.880  27.238  56.181  1.00  0.00     0.281 HD
HETATM    4  C   UNL     1       7.166  26.026  57.156  1.00  0.00     0.239 C 
HETATM    5  C   UNL     1       8.325  25.086  56.867  1.00  0.00     0.066 C 
HETATM    6  C   UNL     1       7.951  24.091  55.770  1.00  0.00     0.065 C 
HETATM    7  C   UNL     1       7.515  24.828  54.478  1.00  0.00     0.055 C 
HETATM    8  C   UNL     1       9.120  23.133  55.478  1.00  0.00     0.038 C 
HETATM    9  C   UNL     1       8.771  22.121  54.388  1.00  0.00     0.003 C 
HETATM   10  C   UNL     1       8.268  22.807  53.125  1.00  0.00     0.001 C 
HETATM   11  C   UNL     1       7.120  23.775  53.412  1.00  0.00     0.010 C 
ENDROOT
BRANCH   2  12
HETATM   12  C   UNL     1       7.658  27.961  55.569  1.00  0.00     0.338 C 
BRANCH  12  13
HETATM   13  C   UNL     1       6.967  29.252  56.035  1.00  0.00     0.248 C 
HETATM   14  N   UNL     1       7.372  29.708  57.268  1.00  0.00    -0.319 N 
HETATM   15  H   UNL     1       8.316  29.499  57.599  1.00  0.00     0.169 HD
HETATM   16  O   UNL     1       6.095  29.726  55.304  1.00  0.00    -0.271 OA
BRANCH  14  17
HETATM   17  C   UNL     1       6.676  30.615  58.062  1.00  0.00     0.094 A 
HETATM   18  S   UNL     1       4.996  30.770  57.914  1.00  0.00    -0.076 SA
HETATM   19  C   UNL     1       4.902  31.889  59.192  1.00  0.00    -0.012 A 
HETATM   20  C   UNL     1       3.567  32.440  59.584  1.00  0.00     0.057 C 
HETATM   21  C   UNL     1       6.148  32.165  59.741  1.00  0.00    -0.030 A 
HETATM   22  C   UNL     1       6.361  33.124  60.876  1.00  0.00     0.050 C 
HETATM   23  C   UNL     1       7.199  31.396  59.085  1.00  0.00     0.080 A 
BRANCH  23  24
HETATM   24  C   UNL     1       8.638  31.384  59.381  1.00  0.00     0.296 C 
HETATM   25  O   UNL     1       9.380  32.300  59.029  1.00  0.00    -0.259 OA
BRANCH  24  26
HETATM   26  O   UNL     1       9.048  30.288  60.072  1.00  0.00    -0.322 OA
HETATM   27  C   UNL     1       9.237  30.496  61.473  1.00  0.00     0.213 C 
ENDBRANCH  24  26
ENDBRANCH  23  24
ENDBRANCH  14  17
ENDBRANCH  12  13
ENDBRANCH   2  12
BRANCH   1  28
HETATM   28  C   UNL     1       5.776  26.590  53.593  1.00  0.00    -0.027 A 
HETATM   29  C   UNL     1       6.393  26.654  52.335  1.00  0.00     0.011 A 
HETATM   30  C   UNL     1       5.770  27.302  51.260  1.00  0.00     0.030 A 
HETATM   31  C   UNL     1       4.538  27.942  51.410  1.00  0.00     0.030 A 
HETATM   32  C   UNL     1       3.965  27.945  52.687  1.00  0.00     0.030 A 
HETATM   33  C   UNL     1       4.563  27.276  53.760  1.00  0.00     0.011 A 
BRANCH  31  34
HETATM   34  N   UNL     1       3.849  28.534  50.354  1.00  0.00    -0.382 N 
BRANCH  34  35
HETATM   35  C   UNL     1       2.862  29.589  50.632  1.00  0.00     0.118 C 
HETATM   36  C   UNL     1       1.471  29.174  50.169  1.00  0.00     0.026 C 
ENDBRANCH  34  35
BRANCH  34  37
HETATM   37  C   UNL     1       3.579  27.662  49.201  1.00  0.00     0.118 C 
HETATM   38  C   UNL     1       4.348  28.094  47.960  1.00  0.00     0.026 C 
ENDBRANCH  34  37
ENDBRANCH  31  34
ENDBRANCH   1  28
BRANCH   6  39
HETATM   39  O   UNL     1       6.834  23.341  56.259  1.00  0.00    -0.389 OA
HETATM   40  H   UNL     1       6.032  23.900  56.236  1.00  0.00     0.210 HD
ENDBRANCH   6  39
TORSDOF 10
ENDMDL
MODEL 6
REMARK VINA RESULT:      -8.6      2.539      7.794
REMARK  10 active torsions:
REMARK  status: ('A' for Active; 'I' for Inactive)
REMARK    1  A    between atoms: C_2  and  N_3 
REMARK    2  A    between atoms: N_3  and  C_4 
REMARK    3  A    between atoms: N_3  and  C_37 
REMARK    4  A    between atoms: C_7  and  C_8 
REMARK    5  A    between atoms: N_9  and  C_11 
REMARK    6  A    between atoms: C_11  and  C_12 
REMARK       I    between atoms: C_12  and  N_13 
REMARK    7  A    between atoms: N_13  and  C_14 
REMARK    8  A    between atoms: C_20  and  C_21 
REMARK    9  A    between atoms: C_21  and  O_22 
REMARK   10  A    between atoms: C_28  and  O_29 
ROOT
HETATM    1  C   UNL     1       7.805  24.627  54.736  1.00  0.00     0.228 C 
HETATM    2  N   UNL     1       7.056  24.596  53.410  1.00  0.00    -0.054 N 
HETATM    3  H   UNL     1       7.353  25.454  52.913  1.00  0.00     0.281 HD
HETATM    4  C   UNL     1       7.523  23.485  52.502  1.00  0.00     0.239 C 
HETATM    5  C   UNL     1       7.366  22.136  53.184  1.00  0.00     0.066 C 
HETATM    6  C   UNL     1       8.144  22.103  54.499  1.00  0.00     0.065 C 
HETATM    7  C   UNL     1       7.688  23.246  55.442  1.00  0.00     0.055 C 
HETATM    8  C   UNL     1       7.993  20.737  55.191  1.00  0.00     0.038 C 
HETATM    9  C   UNL     1       8.768  20.674  56.506  1.00  0.00     0.003 C 
HETATM   10  C   UNL     1       8.398  21.825  57.431  1.00  0.00     0.001 C 
HETATM   11  C   UNL     1       8.527  23.183  56.743  1.00  0.00     0.010 C 
ENDROOT
BRANCH   2  12
HETATM   12  C   UNL     1       5.530  24.775  53.434  1.00  0.00     0.338 C 
BRANCH  12  13
HETATM   13  C   UNL     1       5.062  25.269  52.057  1.00  0.00     0.248 C 
HETATM   14  N   UNL     1       5.367  26.582  51.783  1.00  0.00    -0.319 N 
HETATM   15  H   UNL     1       6.189  27.011  52.215  1.00  0.00     0.169 HD
HETATM   16  O   UNL     1       4.424  24.481  51.357  1.00  0.00    -0.271 OA
BRANCH  14  17
HETATM   17  C   UNL     1       4.768  27.363  50.799  1.00  0.00     0.094 A 
HETATM   18  S   UNL     1       4.712  26.824  49.195  1.00  0.00    -0.076 SA
HETATM   19  C   UNL     1       3.797  28.165  48.686  1.00  0.00    -0.012 A 
HETATM   20  C   UNL     1       3.389  28.270  47.250  1.00  0.00     0.057 C 
HETATM   21  C   UNL     1       3.530  29.044  49.729  1.00  0.00    -0.030 A 
HETATM   22  C   UNL     1       2.750  30.315  49.564  1.00  0.00     0.050 C 
HETATM   23  C   UNL     1       4.088  28.560  50.987  1.00  0.00     0.080 A 
BRANCH  23  24
HETATM   24  C   UNL     1       4.008  29.179  52.316  1.00  0.00     0.296 C 
HETATM   25  O   UNL     1       4.410  30.324  52.523  1.00  0.00    -0.259 OA
BRANCH  24  26
HETATM   26  O   UNL     1       3.452  28.379  53.263  1.00  0.00    -0.322 OA
HETATM   27  C   UNL     1       4.134  28.368  54.518  1.00  0.00     0.213 C 
ENDBRANCH  24  26
ENDBRANCH  23  24
ENDBRANCH  14  17
ENDBRANCH  12  13
ENDBRANCH   2  12
BRANCH   1  28
HETATM   28  C   UNL     1       7.445  25.861  55.550  1.00  0.00    -0.027 A 
HETATM   29  C   UNL     1       6.704  25.811  56.740  1.00  0.00     0.011 A 
HETATM   30  C   UNL     1       6.475  26.970  57.495  1.00  0.00     0.030 A 
HETATM   31  C   UNL     1       6.938  28.218  57.071  1.00  0.00     0.030 A 
HETATM   32  C   UNL     1       7.607  28.275  55.843  1.00  0.00     0.030 A 
HETATM   33  C   UNL     1       7.867  27.121  55.096  1.00  0.00     0.011 A 
BRANCH  31  34
HETATM   34  N   UNL     1       6.798  29.382  57.823  1.00  0.00    -0.382 N 
BRANCH  34  35
HETATM   35  C   UNL     1       5.953  30.475  57.320  1.00  0.00     0.118 C 
HETATM   36  C   UNL     1       4.493  30.258  57.697  1.00  0.00     0.026 C 
ENDBRANCH  34  35
BRANCH  34  37
HETATM   37  C   UNL     1       7.970  29.767  58.626  1.00  0.00     0.118 C 
HETATM   38  C   UNL     1       7.959  31.246  58.989  1.00  0.00     0.026 C 
ENDBRANCH  34  37
ENDBRANCH  31  34
ENDBRANCH   1  28
BRANCH   6  39
HETATM   39  O   UNL     1       9.520  22.317  54.166  1.00  0.00    -0.389 OA
HETATM   40  H   UNL     1       9.978  22.732  54.924  1.00  0.00     0.210 HD
ENDBRANCH   6  39
TORSDOF 10
ENDMDL
MODEL 7
REMARK VINA RESULT:      -8.5      2.151      6.389
REMARK  10 active torsions:
REMARK  status: ('A' for Active; 'I' for Inactive)
REMARK    1  A    between atoms: C_2  and  N_3 
REMARK    2  A    between atoms: N_3  and  C_4 
REMARK    3  A    between atoms: N_3  and  C_37 
REMARK    4  A    between atoms: C_7  and  C_8 
REMARK    5  A    between atoms: N_9  and  C_11 
REMARK    6  A    between atoms: C_11  and  C_12 
REMARK       I    between atoms: C_12  and  N_13 
REMARK    7  A    between atoms: N_13  and  C_14 
REMARK    8  A    between atoms: C_20  and  C_21 
REMARK    9  A    between atoms: C_21  and  O_22 
REMARK   10  A    between atoms: C_28  and  O_29 
ROOT
HETATM    1  C   UNL     1       6.833  24.230  54.567  1.00  0.00     0.228 C 
HETATM    2  N   UNL     1       7.373  25.145  55.658  1.00  0.00    -0.054 N 
HETATM    3  H   UNL     1       6.565  25.721  55.951  1.00  0.00     0.281 HD
HETATM    4  C   UNL     1       7.745  24.398  56.915  1.00  0.00     0.239 C 
HETATM    5  C   UNL     1       8.784  23.329  56.613  1.00  0.00     0.066 C 
HETATM    6  C   UNL     1       8.264  22.356  55.557  1.00  0.00     0.065 C 
HETATM    7  C   UNL     1       7.863  23.106  54.261  1.00  0.00     0.055 C 
HETATM    8  C   UNL     1       9.309  21.269  55.252  1.00  0.00     0.038 C 
HETATM    9  C   UNL     1       8.812  20.276  54.203  1.00  0.00     0.003 C 
HETATM   10  C   UNL     1       8.341  20.983  52.939  1.00  0.00     0.001 C 
HETATM   11  C   UNL     1       7.317  22.078  53.238  1.00  0.00     0.010 C 
ENDROOT
BRANCH   2  12
HETATM   12  C   UNL     1       8.387  26.230  55.260  1.00  0.00     0.338 C 
BRANCH  12  13
HETATM   13  C   UNL     1       7.736  27.610  55.432  1.00  0.00     0.248 C 
HETATM   14  N   UNL     1       7.630  28.037  56.735  1.00  0.00    -0.319 N 
HETATM   15  H   UNL     1       8.307  27.714  57.429  1.00  0.00     0.169 HD
HETATM   16  O   UNL     1       7.329  28.178  54.417  1.00  0.00    -0.271 OA
BRANCH  14  17
HETATM   17  C   UNL     1       6.786  29.047  57.188  1.00  0.00     0.094 A 
HETATM   18  S   UNL     1       5.168  29.097  56.690  1.00  0.00    -0.076 SA
HETATM   19  C   UNL     1       4.814  30.432  57.685  1.00  0.00    -0.012 A 
HETATM   20  C   UNL     1       3.425  30.987  57.696  1.00  0.00     0.057 C 
HETATM   21  C   UNL     1       5.925  30.861  58.401  1.00  0.00    -0.030 A 
HETATM   22  C   UNL     1       5.903  32.024  59.349  1.00  0.00     0.050 C 
HETATM   23  C   UNL     1       7.090  30.028  58.123  1.00  0.00     0.080 A 
BRANCH  23  24
HETATM   24  C   UNL     1       8.441  30.135  58.689  1.00  0.00     0.296 C 
HETATM   25  O   UNL     1       8.641  30.092  59.903  1.00  0.00    -0.259 OA
BRANCH  24  26
HETATM   26  O   UNL     1       9.419  30.275  57.756  1.00  0.00    -0.322 OA
HETATM   27  C   UNL     1      10.367  31.309  58.028  1.00  0.00     0.213 C 
ENDBRANCH  24  26
ENDBRANCH  23  24
ENDBRANCH  14  17
ENDBRANCH  12  13
ENDBRANCH   2  12
BRANCH   1  28
HETATM   28  C   UNL     1       6.295  25.027  53.388  1.00  0.00    -0.027 A 
HETATM   29  C   UNL     1       6.961  25.127  52.157  1.00  0.00     0.011 A 
HETATM   30  C   UNL     1       6.379  25.804  51.076  1.00  0.00     0.030 A 
HETATM   31  C   UNL     1       5.139  26.436  51.195  1.00  0.00     0.030 A 
HETATM   32  C   UNL     1       4.516  26.403  52.448  1.00  0.00     0.030 A 
HETATM   33  C   UNL     1       5.074  25.705  53.526  1.00  0.00     0.011 A 
BRANCH  31  34
HETATM   34  N   UNL     1       4.490  27.056  50.130  1.00  0.00    -0.382 N 
BRANCH  34  35
HETATM   35  C   UNL     1       4.636  26.508  48.773  1.00  0.00     0.118 C 
HETATM   36  C   UNL     1       3.417  25.683  48.381  1.00  0.00     0.026 C 
ENDBRANCH  34  35
BRANCH  34  37
HETATM   37  C   UNL     1       4.331  28.514  50.242  1.00  0.00     0.118 C 
HETATM   38  C   UNL     1       4.663  29.231  48.940  1.00  0.00     0.026 C 
ENDBRANCH  34  37
ENDBRANCH  31  34
ENDBRANCH   1  28
BRANCH   6  39
HETATM   39  O   UNL     1       7.090  21.746  56.105  1.00  0.00    -0.389 OA
HETATM   40  H   UNL     1       6.300  22.248  55.823  1.00  0.00     0.210 HD
ENDBRANCH   6  39
TORSDOF 10
ENDMDL
MODEL 8
REMARK VINA RESULT:      -8.5      2.086      7.167
REMARK  10 active torsions:
REMARK  status: ('A' for Active; 'I' for Inactive)
REMARK    1  A    between atoms: C_2  and  N_3 
REMARK    2  A    between atoms: N_3  and  C_4 
REMARK    3  A    between atoms: N_3  and  C_37 
REMARK    4  A    between atoms: C_7  and  C_8 
REMARK    5  A    between atoms: N_9  and  C_11 
REMARK    6  A    between atoms: C_11  and  C_12 
REMARK       I    between atoms: C_12  and  N_13 
REMARK    7  A    between atoms: N_13  and  C_14 
REMARK    8  A    between atoms: C_20  and  C_21 
REMARK    9  A    between atoms: C_21  and  O_22 
REMARK   10  A    between atoms: C_28  and  O_29 
ROOT
HETATM    1  C   UNL     1       5.615  27.720  55.905  1.00  0.00     0.228 C 
HETATM    2  N   UNL     1       4.825  28.368  54.775  1.00  0.00    -0.054 N 
HETATM    3  H   UNL     1       4.093  27.680  54.529  1.00  0.00     0.281 HD
HETATM    4  C   UNL     1       4.036  29.571  55.231  1.00  0.00     0.239 C 
HETATM    5  C   UNL     1       4.958  30.613  55.845  1.00  0.00     0.066 C 
HETATM    6  C   UNL     1       5.736  30.019  57.018  1.00  0.00     0.065 C 
HETATM    7  C   UNL     1       6.544  28.773  56.574  1.00  0.00     0.055 C 
HETATM    8  C   UNL     1       6.666  31.071  57.647  1.00  0.00     0.038 C 
HETATM    9  C   UNL     1       7.452  30.506  58.829  1.00  0.00     0.003 C 
HETATM   10  C   UNL     1       8.203  29.237  58.448  1.00  0.00     0.001 C 
HETATM   11  C   UNL     1       7.288  28.196  57.804  1.00  0.00     0.010 C 
ENDROOT
BRANCH   2  12
HETATM   12  C   UNL     1       5.523  28.563  53.420  1.00  0.00     0.338 C 
BRANCH  12  13
HETATM   13  C   UNL     1       4.839  27.674  52.372  1.00  0.00     0.248 C 
HETATM   14  N   UNL     1       4.985  28.100  51.073  1.00  0.00    -0.319 N 
HETATM   15  H   UNL     1       5.813  28.637  50.807  1.00  0.00     0.169 HD
HETATM   16  O   UNL     1       4.189  26.710  52.781  1.00  0.00    -0.271 OA
BRANCH  14  17
HETATM   17  C   UNL     1       4.195  27.703  49.998  1.00  0.00     0.094 A 
HETATM   18  S   UNL     1       4.479  26.221  49.228  1.00  0.00    -0.076 SA
HETATM   19  C   UNL     1       3.140  26.405  48.194  1.00  0.00    -0.012 A 
HETATM   20  C   UNL     1       2.830  25.330  47.201  1.00  0.00     0.057 C 
HETATM   21  C   UNL     1       2.466  27.600  48.416  1.00  0.00    -0.030 A 
HETATM   22  C   UNL     1       1.254  28.025  47.640  1.00  0.00     0.050 C 
HETATM   23  C   UNL     1       3.078  28.362  49.499  1.00  0.00     0.080 A 
BRANCH  23  24
HETATM   24  C   UNL     1       2.659  29.656  50.051  1.00  0.00     0.296 C 
HETATM   25  O   UNL     1       2.262  29.768  51.211  1.00  0.00    -0.259 OA
BRANCH  24  26
HETATM   26  O   UNL     1       2.759  30.688  49.173  1.00  0.00    -0.322 OA
HETATM   27  C   UNL     1       4.039  31.323  49.134  1.00  0.00     0.213 C 
ENDBRANCH  24  26
ENDBRANCH  23  24
ENDBRANCH  14  17
ENDBRANCH  12  13
ENDBRANCH   2  12
BRANCH   1  28
HETATM   28  C   UNL     1       6.249  26.410  55.460  1.00  0.00    -0.027 A 
HETATM   29  C   UNL     1       7.341  26.341  54.581  1.00  0.00     0.011 A 
HETATM   30  C   UNL     1       7.940  25.112  54.272  1.00  0.00     0.030 A 
HETATM   31  C   UNL     1       7.449  23.912  54.792  1.00  0.00     0.030 A 
HETATM   32  C   UNL     1       6.311  23.978  55.604  1.00  0.00     0.030 A 
HETATM   33  C   UNL     1       5.723  25.202  55.943  1.00  0.00     0.011 A 
BRANCH  31  34
HETATM   34  N   UNL     1       8.056  22.678  54.573  1.00  0.00    -0.382 N 
BRANCH  34  35
HETATM   35  C   UNL     1       9.106  22.210  55.491  1.00  0.00     0.118 C 
HETATM   36  C   UNL     1       8.544  21.228  56.511  1.00  0.00     0.026 C 
ENDBRANCH  34  35
BRANCH  34  37
HETATM   37  C   UNL     1       8.178  22.269  53.165  1.00  0.00     0.118 C 
HETATM   38  C   UNL     1       8.026  20.764  52.986  1.00  0.00     0.026 C 
ENDBRANCH  34  37
ENDBRANCH  31  34
ENDBRANCH   1  28
BRANCH   6  39
HETATM   39  O   UNL     1       4.765  29.604  57.986  1.00  0.00    -0.389 OA
HETATM   40  H   UNL     1       3.911  30.042  57.800  1.00  0.00     0.210 HD
ENDBRANCH   6  39
TORSDOF 10
ENDMDL
MODEL 9
REMARK VINA RESULT:      -8.0      2.291      8.125
REMARK  10 active torsions:
REMARK  status: ('A' for Active; 'I' for Inactive)
REMARK    1  A    between atoms: C_2  and  N_3 
REMARK    2  A    between atoms: N_3  and  C_4 
REMARK    3  A    between atoms: N_3  and  C_37 
REMARK    4  A    between atoms: C_7  and  C_8 
REMARK    5  A    between atoms: N_9  and  C_11 
REMARK    6  A    between atoms: C_11  and  C_12 
REMARK       I    between atoms: C_12  and  N_13 
REMARK    7  A    between atoms: N_13  and  C_14 
REMARK    8  A    between atoms: C_20  and  C_21 
REMARK    9  A    between atoms: C_21  and  O_22 
REMARK   10  A    between atoms: C_28  and  O_29 
ROOT
HETATM    1  C   UNL     1       7.582  26.151  54.684  1.00  0.00     0.228 C 
HETATM    2  N   UNL     1       6.551  26.313  53.574  1.00  0.00    -0.054 N 
HETATM    3  H   UNL     1       6.843  27.161  53.057  1.00  0.00     0.281 HD
HETATM    4  C   UNL     1       6.637  25.223  52.535  1.00  0.00     0.239 C 
HETATM    5  C   UNL     1       6.454  23.857  53.177  1.00  0.00     0.066 C 
HETATM    6  C   UNL     1       7.501  23.630  54.266  1.00  0.00     0.065 C 
HETATM    7  C   UNL     1       7.439  24.748  55.338  1.00  0.00     0.055 C 
HETATM    8  C   UNL     1       7.324  22.246  54.916  1.00  0.00     0.038 C 
HETATM    9  C   UNL     1       8.365  21.989  56.005  1.00  0.00     0.003 C 
HETATM   10  C   UNL     1       8.382  23.106  57.040  1.00  0.00     0.001 C 
HETATM   11  C   UNL     1       8.538  24.484  56.398  1.00  0.00     0.010 C 
ENDROOT
BRANCH   2  12
HETATM   12  C   UNL     1       5.111  26.681  53.968  1.00  0.00     0.338 C 
BRANCH  12  13
HETATM   13  C   UNL     1       4.707  27.970  53.239  1.00  0.00     0.248 C 
HETATM   14  N   UNL     1       3.772  27.800  52.245  1.00  0.00    -0.319 N 
HETATM   15  H   UNL     1       3.102  27.031  52.308  1.00  0.00     0.169 HD
HETATM   16  O   UNL     1       5.280  29.011  53.565  1.00  0.00    -0.271 OA
BRANCH  14  17
HETATM   17  C   UNL     1       3.506  28.705  51.221  1.00  0.00     0.094 A 
HETATM   18  S   UNL     1       3.145  30.320  51.579  1.00  0.00    -0.076 SA
HETATM   19  C   UNL     1       3.073  30.757  49.937  1.00  0.00    -0.012 A 
HETATM   20  C   UNL     1       2.774  32.177  49.570  1.00  0.00     0.057 C 
HETATM   21  C   UNL     1       3.314  29.678  49.096  1.00  0.00    -0.030 A 
HETATM   22  C   UNL     1       3.303  29.773  47.598  1.00  0.00     0.050 C 
HETATM   23  C   UNL     1       3.591  28.464  49.856  1.00  0.00     0.080 A 
BRANCH  23  24
HETATM   24  C   UNL     1       3.913  27.125  49.346  1.00  0.00     0.296 C 
HETATM   25  O   UNL     1       4.964  26.556  49.638  1.00  0.00    -0.259 OA
BRANCH  24  26
HETATM   26  O   UNL     1       2.950  26.594  48.548  1.00  0.00    -0.322 OA
HETATM   27  C   UNL     1       3.419  25.642  47.591  1.00  0.00     0.213 C 
ENDBRANCH  24  26
ENDBRANCH  23  24
ENDBRANCH  14  17
ENDBRANCH  12  13
ENDBRANCH   2  12
BRANCH   1  28
HETATM   28  C   UNL     1       7.595  27.358  55.611  1.00  0.00    -0.027 A 
HETATM   29  C   UNL     1       8.294  28.540  55.328  1.00  0.00     0.011 A 
HETATM   30  C   UNL     1       8.201  29.653  56.176  1.00  0.00     0.030 A 
HETATM   31  C   UNL     1       7.446  29.611  57.351  1.00  0.00     0.030 A 
HETATM   32  C   UNL     1       6.816  28.403  57.670  1.00  0.00     0.030 A 
HETATM   33  C   UNL     1       6.877  27.296  56.816  1.00  0.00     0.011 A 
BRANCH  31  34
HETATM   34  N   UNL     1       7.265  30.713  58.184  1.00  0.00    -0.382 N 
BRANCH  34  35
HETATM   35  C   UNL     1       8.018  30.801  59.444  1.00  0.00     0.118 C 
HETATM   36  C   UNL     1       9.324  31.562  59.250  1.00  0.00     0.026 C 
ENDBRANCH  34  35
BRANCH  34  37
HETATM   37  C   UNL     1       5.919  31.305  58.174  1.00  0.00     0.118 C 
HETATM   38  C   UNL     1       5.691  32.235  59.358  1.00  0.00     0.026 C 
ENDBRANCH  34  37
ENDBRANCH  31  34
ENDBRANCH   1  28
BRANCH   6  39
HETATM   39  O   UNL     1       8.780  23.693  53.624  1.00  0.00    -0.389 OA
HETATM   40  H   UNL     1       9.471  23.871  54.293  1.00  0.00     0.210 HD
ENDBRANCH   6  39
TORSDOF 10
ENDMDL
MODEL 10
REMARK VINA RESULT:      -8.0      2.615      6.204
REMARK  10 active torsions:
REMARK  status: ('A' for Active; 'I' for Inactive)
REMARK    1  A    between atoms: C_2  and  N_3 
REMARK    2  A    between atoms: N_3  and  C_4 
REMARK    3  A    between atoms: N_3  and  C_37 
REMARK    4  A    between atoms: C_7  and  C_8 
REMARK    5  A    between atoms: N_9  and  C_11 
REMARK    6  A    between atoms: C_11  and  C_12 
REMARK       I    between atoms: C_12  and  N_13 
REMARK    7  A    between atoms: N_13  and  C_14 
REMARK    8  A    between atoms: C_20  and  C_21 
REMARK    9  A    between atoms: C_21  and  O_22 
REMARK   10  A    between atoms: C_28  and  O_29 
ROOT
HETATM    1  C   UNL     1       5.867  26.223  54.768  1.00  0.00     0.228 C 
HETATM    2  N   UNL     1       6.163  26.891  56.104  1.00  0.00    -0.054 N 
HETATM    3  H   UNL     1       5.250  27.248  56.435  1.00  0.00     0.281 HD
HETATM    4  C   UNL     1       6.562  25.905  57.174  1.00  0.00     0.239 C 
HETATM    5  C   UNL     1       7.785  25.112  56.741  1.00  0.00     0.066 C 
HETATM    6  C   UNL     1       7.515  24.382  55.426  1.00  0.00     0.065 C 
HETATM    7  C   UNL     1       7.091  25.377  54.316  1.00  0.00     0.055 C 
HETATM    8  C   UNL     1       8.748  23.574  54.986  1.00  0.00     0.038 C 
HETATM    9  C   UNL     1       8.504  22.826  53.676  1.00  0.00     0.003 C 
HETATM   10  C   UNL     1       8.016  23.762  52.579  1.00  0.00     0.001 C 
HETATM   11  C   UNL     1       6.803  24.582  53.018  1.00  0.00     0.010 C 
ENDROOT
BRANCH   2  12
HETATM   12  C   UNL     1       7.007  28.176  56.102  1.00  0.00     0.338 C 
BRANCH  12  13
HETATM   13  C   UNL     1       6.529  29.090  57.239  1.00  0.00     0.248 C 
HETATM   14  N   UNL     1       7.426  30.065  57.609  1.00  0.00    -0.319 N 
HETATM   15  H   UNL     1       8.089  30.429  56.921  1.00  0.00     0.169 HD
HETATM   16  O   UNL     1       5.433  28.844  57.745  1.00  0.00    -0.271 OA
BRANCH  14  17
HETATM   17  C   UNL     1       7.404  30.772  58.808  1.00  0.00     0.094 A 
HETATM   18  S   UNL     1       8.646  30.573  59.941  1.00  0.00    -0.076 SA
HETATM   19  C   UNL     1       8.006  31.761  60.978  1.00  0.00    -0.012 A 
HETATM   20  C   UNL     1       8.719  32.078  62.254  1.00  0.00     0.057 C 
HETATM   21  C   UNL     1       6.835  32.317  60.479  1.00  0.00    -0.030 A 
HETATM   22  C   UNL     1       6.052  33.381  61.190  1.00  0.00     0.050 C 
HETATM   23  C   UNL     1       6.486  31.746  59.182  1.00  0.00     0.080 A 
BRANCH  23  24
HETATM   24  C   UNL     1       5.345  32.076  58.319  1.00  0.00     0.296 C 
HETATM   25  O   UNL     1       4.187  31.821  58.649  1.00  0.00    -0.259 OA
BRANCH  24  26
HETATM   26  O   UNL     1       5.694  32.684  57.155  1.00  0.00    -0.322 OA
HETATM   27  C   UNL     1       4.891  32.329  56.027  1.00  0.00     0.213 C 
ENDBRANCH  24  26
ENDBRANCH  23  24
ENDBRANCH  14  17
ENDBRANCH  12  13
ENDBRANCH   2  12
BRANCH   1  28
HETATM   28  C   UNL     1       5.292  27.213  53.766  1.00  0.00    -0.027 A 
HETATM   29  C   UNL     1       4.026  27.801  53.903  1.00  0.00     0.011 A 
HETATM   30  C   UNL     1       3.581  28.773  52.996  1.00  0.00     0.030 A 
HETATM   31  C   UNL     1       4.361  29.160  51.903  1.00  0.00     0.030 A 
HETATM   32  C   UNL     1       5.589  28.512  51.726  1.00  0.00     0.030 A 
HETATM   33  C   UNL     1       6.055  27.562  52.641  1.00  0.00     0.011 A 
BRANCH  31  34
HETATM   34  N   UNL     1       3.993  30.172  51.021  1.00  0.00    -0.382 N 
BRANCH  34  35
HETATM   35  C   UNL     1       4.528  31.530  51.207  1.00  0.00     0.118 C 
HETATM   36  C   UNL     1       5.686  31.798  50.254  1.00  0.00     0.026 C 
ENDBRANCH  34  35
BRANCH  34  37
HETATM   37  C   UNL     1       2.637  30.067  50.460  1.00  0.00     0.118 C 
HETATM   38  C   UNL     1       2.553  29.032  49.346  1.00  0.00     0.026 C 
ENDBRANCH  34  37
ENDBRANCH  31  34
ENDBRANCH   1  28
BRANCH   6  39
HETATM   39  O   UNL     1       6.423  23.488  55.670  1.00  0.00    -0.389 OA
HETATM   40  H   UNL     1       6.709  22.786  56.288  1.00  0.00     0.210 HD
ENDBRANCH   6  39
TORSDOF 10
ENDMDL
