MODEL 1
REMARK VINA RESULT:      -8.9      0.000      0.000
REMARK  7 active torsions:
REMARK  status: ('A' for Active; 'I' for Inactive)
REMARK    1  A    between atoms: C_8  and  C_9 
REMARK    2  A    between atoms: C_9  and  N_10 
REMARK    3  A    between atoms: C_9  and  C_14 
REMARK       I    between atoms: C_14  and  N_15 
REMARK    4  A    between atoms: N_15  and  C_16 
REMARK    5  A    between atoms: C_16  and  C_17 
REMARK    6  A    between atoms: C_17  and  C_18 
REMARK    7  A    between atoms: C_20  and  C_21 
ROOT
HETATM    1  C   UNL     1       5.491  26.736  55.002  1.00  0.00     0.253 C 
HETATM    2  N   UNL     1       5.336  25.399  54.724  1.00  0.00    -0.359 N 
HETATM    3  O   UNL     1       6.068  27.536  54.263  1.00  0.00    -0.271 OA
HETATM    4  H   UNL     1       4.670  24.848  55.258  1.00  0.00     0.162 HD
ENDROOT
BRANCH   1   5
HETATM    5  C   UNL     1       4.962  27.231  56.365  1.00  0.00     0.311 C 
BRANCH   5   6
HETATM    6  C   UNL     1       6.003  27.973  57.130  1.00  0.00     0.031 A 
HETATM    7  C   UNL     1       6.006  29.294  57.564  1.00  0.00     0.035 A 
HETATM    8  C   UNL     1       5.014  30.395  57.470  1.00  0.00     0.070 C 
HETATM    9  N   UNL     1       7.199  29.474  58.216  1.00  0.00    -0.282 N 
HETATM   10  H   UNL     1       7.552  30.308  58.677  1.00  0.00     0.189 HD
HETATM   11  N   UNL     1       7.965  28.379  58.216  1.00  0.00    -0.179 NA
HETATM   12  C   UNL     1       7.252  27.455  57.577  1.00  0.00     0.061 A 
HETATM   13  C   UNL     1       7.811  26.085  57.413  1.00  0.00     0.073 C 
ENDBRANCH   5   6
BRANCH   5  14
HETATM   14  N   UNL     1       4.485  26.048  57.155  1.00  0.00    -0.062 N 
HETATM   15  H   UNL     1       5.102  25.242  57.014  1.00  0.00     0.275 HD
HETATM   16  H   UNL     1       4.566  26.291  58.152  1.00  0.00     0.275 HD
HETATM   17  H   UNL     1       3.514  25.803  56.943  1.00  0.00     0.275 HD
ENDBRANCH   5  14
ENDBRANCH   1   5
BRANCH   2  18
HETATM   18  C   UNL     1       5.722  24.830  53.437  1.00  0.00     0.127 C 
BRANCH  18  19
HETATM   19  C   UNL     1       7.227  24.556  53.344  1.00  0.00     0.058 C 
BRANCH  19  20
HETATM   20  C   UNL     1       7.608  23.117  53.616  1.00  0.00    -0.056 A 
HETATM   21  C   UNL     1       7.789  22.671  54.934  1.00  0.00     0.023 A 
HETATM   22  C   UNL     1       8.163  21.344  55.205  1.00  0.00     0.048 A 
HETATM   23  C   UNL     1       8.349  20.460  54.133  1.00  0.00     0.016 A 
HETATM   24  C   UNL     1       8.179  20.897  52.820  1.00  0.00     0.001 A 
HETATM   25  C   UNL     1       7.815  22.219  52.562  1.00  0.00     0.007 A 
BRANCH  22  26
HETATM   26  C   UNL     1       8.361  20.860  56.622  1.00  0.00     0.417 C 
HETATM   27  F   UNL     1       9.548  20.217  56.809  1.00  0.00    -0.166 F 
HETATM   28  F   UNL     1       8.356  21.888  57.516  1.00  0.00    -0.166 F 
HETATM   29  F   UNL     1       7.393  19.997  57.029  1.00  0.00    -0.166 F 
ENDBRANCH  22  26
ENDBRANCH  19  20
ENDBRANCH  18  19
ENDBRANCH   2  18
TORSDOF 7
ENDMDL
MODEL 2
REMARK VINA RESULT:      -8.9      4.770      6.976
REMARK  7 active torsions:
REMARK  status: ('A' for Active; 'I' for Inactive)
REMARK    1  A    between atoms: C_8  and  C_9 
REMARK    2  A    between atoms: C_9  and  N_10 
REMARK    3  A    between atoms: C_9  and  C_14 
REMARK       I    between atoms: C_14  and  N_15 
REMARK    4  A    between atoms: N_15  and  C_16 
REMARK    5  A    between atoms: C_16  and  C_17 
REMARK    6  A    between atoms: C_17  and  C_18 
REMARK    7  A    between atoms: C_20  and  C_21 
ROOT
HETATM    1  C   UNL     1       4.870  27.390  50.305  1.00  0.00     0.253 C 
HETATM    2  N   UNL     1       5.766  26.379  50.556  1.00  0.00    -0.359 N 
HETATM    3  O   UNL     1       4.233  27.987  51.175  1.00  0.00    -0.271 OA
HETATM    4  H   UNL     1       6.411  26.084  49.828  1.00  0.00     0.162 HD
ENDROOT
BRANCH   1   5
HETATM    5  C   UNL     1       4.610  27.739  48.824  1.00  0.00     0.311 C 
BRANCH   5   6
HETATM    6  C   UNL     1       3.193  27.490  48.434  1.00  0.00     0.031 A 
HETATM    7  C   UNL     1       2.568  26.296  48.092  1.00  0.00     0.035 A 
HETATM    8  C   UNL     1       3.037  24.888  48.027  1.00  0.00     0.070 C 
HETATM    9  N   UNL     1       1.265  26.619  47.814  1.00  0.00    -0.282 N 
HETATM   10  H   UNL     1       0.502  26.005  47.539  1.00  0.00     0.189 HD
HETATM   11  N   UNL     1       1.013  27.925  47.933  1.00  0.00    -0.179 NA
HETATM   12  C   UNL     1       2.164  28.468  48.322  1.00  0.00     0.061 A 
HETATM   13  C   UNL     1       2.232  29.934  48.572  1.00  0.00     0.073 C 
ENDBRANCH   5   6
BRANCH   5  14
HETATM   14  N   UNL     1       5.531  26.922  47.967  1.00  0.00    -0.062 N 
HETATM   15  H   UNL     1       6.511  27.095  48.215  1.00  0.00     0.275 HD
HETATM   16  H   UNL     1       5.359  25.931  48.186  1.00  0.00     0.275 HD
HETATM   17  H   UNL     1       5.378  27.080  46.967  1.00  0.00     0.275 HD
ENDBRANCH   5  14
ENDBRANCH   1   5
BRANCH   2  18
HETATM   18  C   UNL     1       6.154  26.014  51.914  1.00  0.00     0.127 C 
BRANCH  18  19
HETATM   19  C   UNL     1       7.519  25.320  51.969  1.00  0.00     0.058 C 
BRANCH  19  20
HETATM   20  C   UNL     1       7.659  24.325  53.100  1.00  0.00    -0.056 A 
HETATM   21  C   UNL     1       7.862  22.964  52.824  1.00  0.00     0.023 A 
HETATM   22  C   UNL     1       7.973  22.023  53.861  1.00  0.00     0.048 A 
HETATM   23  C   UNL     1       7.884  22.465  55.189  1.00  0.00     0.016 A 
HETATM   24  C   UNL     1       7.673  23.813  55.473  1.00  0.00     0.001 A 
HETATM   25  C   UNL     1       7.557  24.738  54.434  1.00  0.00     0.007 A 
BRANCH  22  26
HETATM   26  C   UNL     1       8.191  20.557  53.568  1.00  0.00     0.417 C 
HETATM   27  F   UNL     1       8.281  19.793  54.693  1.00  0.00    -0.166 F 
HETATM   28  F   UNL     1       7.166  20.026  52.846  1.00  0.00    -0.166 F 
HETATM   29  F   UNL     1       9.324  20.320  52.856  1.00  0.00    -0.166 F 
ENDBRANCH  22  26
ENDBRANCH  19  20
ENDBRANCH  18  19
ENDBRANCH   2  18
TORSDOF 7
ENDMDL
MODEL 3
REMARK VINA RESULT:      -8.8      2.690      4.796
REMARK  7 active torsions:
REMARK  status: ('A' for Active; 'I' for Inactive)
REMARK    1  A    between atoms: C_8  and  C_9 
REMARK    2  A    between atoms: C_9  and  N_10 
REMARK    3  A    between atoms: C_9  and  C_14 
REMARK       I    between atoms: C_14  and  N_15 
REMARK    4  A    between atoms: N_15  and  C_16 
REMARK    5  A    between atoms: C_16  and  C_17 
REMARK    6  A    between atoms: C_17  and  C_18 
REMARK    7  A    between atoms: C_20  and  C_21 
ROOT
HETATM    1  C   UNL     1       6.398  26.491  55.204  1.00  0.00     0.253 C 
HETATM    2  N   UNL     1       7.580  26.357  55.891  1.00  0.00    -0.359 N 
HETATM    3  O   UNL     1       5.424  25.749  55.346  1.00  0.00    -0.271 OA
HETATM    4  H   UNL     1       8.253  27.119  55.891  1.00  0.00     0.162 HD
ENDROOT
BRANCH   1   5
HETATM    5  C   UNL     1       6.333  27.607  54.140  1.00  0.00     0.311 C 
BRANCH   5   6
HETATM    6  C   UNL     1       6.005  27.070  52.789  1.00  0.00     0.031 A 
HETATM    7  C   UNL     1       6.668  26.108  52.036  1.00  0.00     0.035 A 
HETATM    8  C   UNL     1       7.866  25.267  52.293  1.00  0.00     0.070 C 
HETATM    9  N   UNL     1       5.958  25.986  50.870  1.00  0.00    -0.282 N 
HETATM   10  H   UNL     1       6.134  25.370  50.079  1.00  0.00     0.189 HD
HETATM   11  N   UNL     1       4.906  26.807  50.810  1.00  0.00    -0.179 NA
HETATM   12  C   UNL     1       4.908  27.461  51.969  1.00  0.00     0.061 A 
HETATM   13  C   UNL     1       3.838  28.458  52.246  1.00  0.00     0.073 C 
ENDBRANCH   5   6
BRANCH   5  14
HETATM   14  N   UNL     1       7.654  28.318  54.105  1.00  0.00    -0.062 N 
HETATM   15  H   UNL     1       8.224  28.070  54.920  1.00  0.00     0.275 HD
HETATM   16  H   UNL     1       8.171  27.967  53.286  1.00  0.00     0.275 HD
HETATM   17  H   UNL     1       7.549  29.333  54.032  1.00  0.00     0.275 HD
ENDBRANCH   5  14
ENDBRANCH   1   5
BRANCH   2  18
HETATM   18  C   UNL     1       7.735  25.393  56.976  1.00  0.00     0.127 C 
BRANCH  18  19
HETATM   19  C   UNL     1       8.965  24.496  56.794  1.00  0.00     0.058 C 
BRANCH  19  20
HETATM   20  C   UNL     1       8.637  23.083  56.365  1.00  0.00    -0.056 A 
HETATM   21  C   UNL     1       8.563  22.756  55.002  1.00  0.00     0.023 A 
HETATM   22  C   UNL     1       8.240  21.454  54.586  1.00  0.00     0.048 A 
HETATM   23  C   UNL     1       7.995  20.473  55.557  1.00  0.00     0.016 A 
HETATM   24  C   UNL     1       8.057  20.790  56.913  1.00  0.00     0.001 A 
HETATM   25  C   UNL     1       8.372  22.089  57.315  1.00  0.00     0.007 A 
BRANCH  22  26
HETATM   26  C   UNL     1       8.159  21.098  53.120  1.00  0.00     0.417 C 
HETATM   27  F   UNL     1       8.016  22.186  52.311  1.00  0.00    -0.166 F 
HETATM   28  F   UNL     1       9.284  20.465  52.687  1.00  0.00    -0.166 F 
HETATM   29  F   UNL     1       7.120  20.271  52.830  1.00  0.00    -0.166 F 
ENDBRANCH  22  26
ENDBRANCH  19  20
ENDBRANCH  18  19
ENDBRANCH   2  18
TORSDOF 7
ENDMDL
MODEL 4
REMARK VINA RESULT:      -8.8      1.981      2.811
REMARK  7 active torsions:
REMARK  status: ('A' for Active; 'I' for Inactive)
REMARK    1  A    between atoms: C_8  and  C_9 
REMARK    2  A    between atoms: C_9  and  N_10 
REMARK    3  A    between atoms: C_9  and  C_14 
REMARK       I    between atoms: C_14  and  N_15 
REMARK    4  A    between atoms: N_15  and  C_16 
REMARK    5  A    between atoms: C_16  and  C_17 
REMARK    6  A    between atoms: C_17  and  C_18 
REMARK    7  A    between atoms: C_20  and  C_21 
ROOT
HETATM    1  C   UNL     1       7.952  27.536  57.072  1.00  0.00     0.253 C 
HETATM    2  N   UNL     1       7.394  26.946  55.964  1.00  0.00    -0.359 N 
HETATM    3  O   UNL     1       7.966  27.031  58.196  1.00  0.00    -0.271 OA
HETATM    4  H   UNL     1       7.607  27.307  55.039  1.00  0.00     0.162 HD
ENDROOT
BRANCH   1   5
HETATM    5  C   UNL     1       8.533  28.955  56.888  1.00  0.00     0.311 C 
BRANCH   5   6
HETATM    6  C   UNL     1       7.779  29.972  57.674  1.00  0.00     0.031 A 
HETATM    7  C   UNL     1       6.406  30.133  57.821  1.00  0.00     0.035 A 
HETATM    8  C   UNL     1       5.234  29.374  57.313  1.00  0.00     0.070 C 
HETATM    9  N   UNL     1       6.240  31.218  58.642  1.00  0.00    -0.282 N 
HETATM   10  H   UNL     1       5.376  31.632  58.984  1.00  0.00     0.189 HD
HETATM   11  N   UNL     1       7.396  31.774  59.015  1.00  0.00    -0.179 NA
HETATM   12  C   UNL     1       8.341  31.024  58.452  1.00  0.00     0.061 A 
HETATM   13  C   UNL     1       9.773  31.357  58.684  1.00  0.00     0.073 C 
ENDBRANCH   5   6
BRANCH   5  14
HETATM   14  N   UNL     1       8.500  29.303  55.429  1.00  0.00    -0.062 N 
HETATM   15  H   UNL     1       9.220  28.786  54.913  1.00  0.00     0.275 HD
HETATM   16  H   UNL     1       7.599  28.977  55.054  1.00  0.00     0.275 HD
HETATM   17  H   UNL     1       8.592  30.310  55.266  1.00  0.00     0.275 HD
ENDBRANCH   5  14
ENDBRANCH   1   5
BRANCH   2  18
HETATM   18  C   UNL     1       6.886  25.578  55.994  1.00  0.00     0.127 C 
BRANCH  18  19
HETATM   19  C   UNL     1       6.607  25.024  54.593  1.00  0.00     0.058 C 
BRANCH  19  20
HETATM   20  C   UNL     1       7.193  23.651  54.347  1.00  0.00    -0.056 A 
HETATM   21  C   UNL     1       7.529  22.821  55.427  1.00  0.00     0.023 A 
HETATM   22  C   UNL     1       8.093  21.551  55.218  1.00  0.00     0.048 A 
HETATM   23  C   UNL     1       8.312  21.116  53.903  1.00  0.00     0.016 A 
HETATM   24  C   UNL     1       7.989  21.937  52.824  1.00  0.00     0.001 A 
HETATM   25  C   UNL     1       7.436  23.199  53.044  1.00  0.00     0.007 A 
BRANCH  22  26
HETATM   26  C   UNL     1       8.458  20.656  56.378  1.00  0.00     0.417 C 
HETATM   27  F   UNL     1       8.316  21.263  57.590  1.00  0.00    -0.166 F 
HETATM   28  F   UNL     1       7.672  19.545  56.430  1.00  0.00    -0.166 F 
HETATM   29  F   UNL     1       9.742  20.213  56.324  1.00  0.00    -0.166 F 
ENDBRANCH  22  26
ENDBRANCH  19  20
ENDBRANCH  18  19
ENDBRANCH   2  18
TORSDOF 7
ENDMDL
MODEL 5
REMARK VINA RESULT:      -8.7      0.245      1.848
REMARK  7 active torsions:
REMARK  status: ('A' for Active; 'I' for Inactive)
REMARK    1  A    between atoms: C_8  and  C_9 
REMARK    2  A    between atoms: C_9  and  N_10 
REMARK    3  A    between atoms: C_9  and  C_14 
REMARK       I    between atoms: C_14  and  N_15 
REMARK    4  A    between atoms: N_15  and  C_16 
REMARK    5  A    between atoms: C_16  and  C_17 
REMARK    6  A    between atoms: C_17  and  C_18 
REMARK    7  A    between atoms: C_20  and  C_21 
ROOT
HETATM    1  C   UNL     1       5.542  26.995  54.883  1.00  0.00     0.253 C 
HETATM    2  N   UNL     1       5.573  25.637  54.678  1.00  0.00    -0.359 N 
HETATM    3  O   UNL     1       5.952  27.829  54.074  1.00  0.00    -0.271 OA
HETATM    4  H   UNL     1       5.027  25.024  55.278  1.00  0.00     0.162 HD
ENDROOT
BRANCH   1   5
HETATM    5  C   UNL     1       5.021  27.482  56.252  1.00  0.00     0.311 C 
BRANCH   5   6
HETATM    6  C   UNL     1       6.080  28.182  57.034  1.00  0.00     0.031 A 
HETATM    7  C   UNL     1       7.297  27.698  57.500  1.00  0.00     0.035 A 
HETATM    8  C   UNL     1       7.986  26.389  57.370  1.00  0.00     0.070 C 
HETATM    9  N   UNL     1       7.888  28.742  58.163  1.00  0.00    -0.282 N 
HETATM   10  H   UNL     1       8.793  28.770  58.628  1.00  0.00     0.189 HD
HETATM   11  N   UNL     1       7.137  29.847  58.175  1.00  0.00    -0.179 NA
HETATM   12  C   UNL     1       6.045  29.533  57.483  1.00  0.00     0.061 A 
HETATM   13  C   UNL     1       4.988  30.561  57.280  1.00  0.00     0.073 C 
ENDBRANCH   5   6
BRANCH   5  14
HETATM   14  N   UNL     1       4.508  26.301  57.021  1.00  0.00    -0.062 N 
HETATM   15  H   UNL     1       4.591  26.458  58.031  1.00  0.00     0.275 HD
HETATM   16  H   UNL     1       3.499  26.225  56.833  1.00  0.00     0.275 HD
HETATM   17  H   UNL     1       4.971  25.429  56.752  1.00  0.00     0.275 HD
ENDBRANCH   5  14
ENDBRANCH   1   5
BRANCH   2  18
HETATM   18  C   UNL     1       5.967  25.060  53.398  1.00  0.00     0.127 C 
BRANCH  18  19
HETATM   19  C   UNL     1       7.453  24.688  53.354  1.00  0.00     0.058 C 
BRANCH  19  20
HETATM   20  C   UNL     1       7.728  23.224  53.623  1.00  0.00    -0.056 A 
HETATM   21  C   UNL     1       7.901  22.767  54.938  1.00  0.00     0.023 A 
HETATM   22  C   UNL     1       8.177  21.416  55.206  1.00  0.00     0.048 A 
HETATM   23  C   UNL     1       8.274  20.519  54.133  1.00  0.00     0.016 A 
HETATM   24  C   UNL     1       8.112  20.966  52.822  1.00  0.00     0.001 A 
HETATM   25  C   UNL     1       7.845  22.311  52.568  1.00  0.00     0.007 A 
BRANCH  22  26
HETATM   26  C   UNL     1       8.365  20.921  56.621  1.00  0.00     0.417 C 
HETATM   27  F   UNL     1       7.387  20.061  57.022  1.00  0.00    -0.166 F 
HETATM   28  F   UNL     1       9.536  20.240  56.770  1.00  0.00    -0.166 F 
HETATM   29  F   UNL     1       8.388  21.924  57.537  1.00  0.00    -0.166 F 
ENDBRANCH  22  26
ENDBRANCH  19  20
ENDBRANCH  18  19
ENDBRANCH   2  18
TORSDOF 7
ENDMDL
MODEL 6
REMARK VINA RESULT:      -8.7      2.003      2.770
REMARK  7 active torsions:
REMARK  status: ('A' for Active; 'I' for Inactive)
REMARK    1  A    between atoms: C_8  and  C_9 
REMARK    2  A    between atoms: C_9  and  N_10 
REMARK    3  A    between atoms: C_9  and  C_14 
REMARK       I    between atoms: C_14  and  N_15 
REMARK    4  A    between atoms: N_15  and  C_16 
REMARK    5  A    between atoms: C_16  and  C_17 
REMARK    6  A    between atoms: C_17  and  C_18 
REMARK    7  A    between atoms: C_20  and  C_21 
ROOT
HETATM    1  C   UNL     1       5.116  27.462  54.138  1.00  0.00     0.253 C 
HETATM    2  N   UNL     1       6.269  26.923  53.620  1.00  0.00    -0.359 N 
HETATM    3  O   UNL     1       4.023  27.443  53.569  1.00  0.00    -0.271 OA
HETATM    4  H   UNL     1       7.073  26.778  54.224  1.00  0.00     0.162 HD
ENDROOT
BRANCH   1   5
HETATM    5  C   UNL     1       5.236  28.196  55.491  1.00  0.00     0.311 C 
BRANCH   5   6
HETATM    6  C   UNL     1       6.224  27.541  56.394  1.00  0.00     0.031 A 
HETATM    7  C   UNL     1       6.139  26.324  57.060  1.00  0.00     0.035 A 
HETATM    8  C   UNL     1       5.109  25.255  57.093  1.00  0.00     0.070 C 
HETATM    9  N   UNL     1       7.311  26.195  57.760  1.00  0.00    -0.282 N 
HETATM   10  H   UNL     1       7.615  25.429  58.355  1.00  0.00     0.189 HD
HETATM   11  N   UNL     1       8.129  27.241  57.609  1.00  0.00    -0.179 NA
HETATM   12  C   UNL     1       7.495  28.060  56.773  1.00  0.00     0.061 A 
HETATM   13  C   UNL     1       8.146  29.336  56.367  1.00  0.00     0.073 C 
ENDBRANCH   5   6
BRANCH   5  14
HETATM   14  N   UNL     1       3.885  28.230  56.142  1.00  0.00    -0.062 N 
HETATM   15  H   UNL     1       3.225  27.623  55.645  1.00  0.00     0.275 HD
HETATM   16  H   UNL     1       3.986  27.821  57.082  1.00  0.00     0.275 HD
HETATM   17  H   UNL     1       3.514  29.180  56.223  1.00  0.00     0.275 HD
ENDBRANCH   5  14
ENDBRANCH   1   5
BRANCH   2  18
HETATM   18  C   UNL     1       6.267  26.138  52.390  1.00  0.00     0.127 C 
BRANCH  18  19
HETATM   19  C   UNL     1       7.590  25.399  52.163  1.00  0.00     0.058 C 
BRANCH  19  20
HETATM   20  C   UNL     1       7.894  24.346  53.206  1.00  0.00    -0.056 A 
HETATM   21  C   UNL     1       7.935  22.989  52.850  1.00  0.00     0.023 A 
HETATM   22  C   UNL     1       8.195  21.996  53.809  1.00  0.00     0.048 A 
HETATM   23  C   UNL     1       8.422  22.380  55.138  1.00  0.00     0.016 A 
HETATM   24  C   UNL     1       8.375  23.725  55.502  1.00  0.00     0.001 A 
HETATM   25  C   UNL     1       8.108  24.703  54.543  1.00  0.00     0.007 A 
BRANCH  22  26
HETATM   26  C   UNL     1       8.239  20.534  53.430  1.00  0.00     0.417 C 
HETATM   27  F   UNL     1       9.309  20.214  52.651  1.00  0.00    -0.166 F 
HETATM   28  F   UNL     1       8.327  19.728  54.524  1.00  0.00    -0.166 F 
HETATM   29  F   UNL     1       7.136  20.129  52.746  1.00  0.00    -0.166 F 
ENDBRANCH  22  26
ENDBRANCH  19  20
ENDBRANCH  18  19
ENDBRANCH   2  18
TORSDOF 7
ENDMDL
MODEL 7
REMARK VINA RESULT:      -8.7      1.976      2.983
REMARK  7 active torsions:
REMARK  status: ('A' for Active; 'I' for Inactive)
REMARK    1  A    between atoms: C_8  and  C_9 
REMARK    2  A    between atoms: C_9  and  N_10 
REMARK    3  A    between atoms: C_9  and  C_14 
REMARK       I    between atoms: C_14  and  N_15 
REMARK    4  A    between atoms: N_15  and  C_16 
REMARK    5  A    between atoms: C_16  and  C_17 
REMARK    6  A    between atoms: C_17  and  C_18 
REMARK    7  A    between atoms: C_20  and  C_21 
ROOT
HETATM    1  C   UNL     1       4.945  28.322  55.452  1.00  0.00     0.253 C 
HETATM    2  N   UNL     1       5.584  27.882  54.318  1.00  0.00    -0.359 N 
HETATM    3  O   UNL     1       3.739  28.568  55.519  1.00  0.00    -0.271 OA
HETATM    4  H   UNL     1       6.520  27.492  54.386  1.00  0.00     0.162 HD
ENDROOT
BRANCH   1   5
HETATM    5  C   UNL     1       5.827  28.585  56.691  1.00  0.00     0.311 C 
BRANCH   5   6
HETATM    6  C   UNL     1       6.639  27.391  57.061  1.00  0.00     0.031 A 
HETATM    7  C   UNL     1       6.230  26.082  57.287  1.00  0.00     0.035 A 
HETATM    8  C   UNL     1       4.910  25.403  57.212  1.00  0.00     0.070 C 
HETATM    9  N   UNL     1       7.366  25.381  57.600  1.00  0.00    -0.282 N 
HETATM   10  H   UNL     1       7.464  24.392  57.817  1.00  0.00     0.189 HD
HETATM   11  N   UNL     1       8.464  26.142  57.611  1.00  0.00    -0.179 NA
HETATM   12  C   UNL     1       8.047  27.360  57.272  1.00  0.00     0.061 A 
HETATM   13  C   UNL     1       9.035  28.467  57.166  1.00  0.00     0.073 C 
ENDBRANCH   5   6
BRANCH   5  14
HETATM   14  N   UNL     1       4.943  28.982  57.837  1.00  0.00    -0.062 N 
HETATM   15  H   UNL     1       4.926  30.000  57.950  1.00  0.00     0.275 HD
HETATM   16  H   UNL     1       3.980  28.713  57.591  1.00  0.00     0.275 HD
HETATM   17  H   UNL     1       5.210  28.525  58.713  1.00  0.00     0.275 HD
ENDBRANCH   5  14
ENDBRANCH   1   5
BRANCH   2  18
HETATM   18  C   UNL     1       4.848  27.522  53.110  1.00  0.00     0.127 C 
BRANCH  18  19
HETATM   19  C   UNL     1       4.621  26.012  52.989  1.00  0.00     0.058 C 
BRANCH  19  20
HETATM   20  C   UNL     1       5.897  25.200  52.937  1.00  0.00    -0.056 A 
HETATM   21  C   UNL     1       6.188  24.275  53.951  1.00  0.00     0.023 A 
HETATM   22  C   UNL     1       7.377  23.527  53.930  1.00  0.00     0.048 A 
HETATM   23  C   UNL     1       8.276  23.713  52.870  1.00  0.00     0.016 A 
HETATM   24  C   UNL     1       7.999  24.636  51.863  1.00  0.00     0.001 A 
HETATM   25  C   UNL     1       6.818  25.379  51.898  1.00  0.00     0.007 A 
BRANCH  22  26
HETATM   26  C   UNL     1       7.695  22.531  55.021  1.00  0.00     0.417 C 
HETATM   27  F   UNL     1       6.916  22.682  56.128  1.00  0.00    -0.166 F 
HETATM   28  F   UNL     1       7.501  21.247  54.609  1.00  0.00    -0.166 F 
HETATM   29  F   UNL     1       8.982  22.605  55.449  1.00  0.00    -0.166 F 
ENDBRANCH  22  26
ENDBRANCH  19  20
ENDBRANCH  18  19
ENDBRANCH   2  18
TORSDOF 7
ENDMDL
MODEL 8
REMARK VINA RESULT:      -8.5      4.472      6.627
REMARK  7 active torsions:
REMARK  status: ('A' for Active; 'I' for Inactive)
REMARK    1  A    between atoms: C_8  and  C_9 
REMARK    2  A    between atoms: C_9  and  N_10 
REMARK    3  A    between atoms: C_9  and  C_14 
REMARK       I    between atoms: C_14  and  N_15 
REMARK    4  A    between atoms: N_15  and  C_16 
REMARK    5  A    between atoms: C_16  and  C_17 
REMARK    6  A    between atoms: C_17  and  C_18 
REMARK    7  A    between atoms: C_20  and  C_21 
ROOT
HETATM    1  C   UNL     1       4.901  27.289  50.739  1.00  0.00     0.253 C 
HETATM    2  N   UNL     1       5.822  26.270  50.779  1.00  0.00    -0.359 N 
HETATM    3  O   UNL     1       4.256  27.682  51.713  1.00  0.00    -0.271 OA
HETATM    4  H   UNL     1       6.469  26.145  50.005  1.00  0.00     0.162 HD
ENDROOT
BRANCH   1   5
HETATM    5  C   UNL     1       4.621  27.922  49.358  1.00  0.00     0.311 C 
BRANCH   5   6
HETATM    6  C   UNL     1       3.237  27.635  48.885  1.00  0.00     0.031 A 
HETATM    7  C   UNL     1       2.719  26.473  48.325  1.00  0.00     0.035 A 
HETATM    8  C   UNL     1       3.302  25.137  48.038  1.00  0.00     0.070 C 
HETATM    9  N   UNL     1       1.400  26.737  48.062  1.00  0.00    -0.282 N 
HETATM   10  H   UNL     1       0.695  26.122  47.661  1.00  0.00     0.189 HD
HETATM   11  N   UNL     1       1.039  27.980  48.392  1.00  0.00    -0.179 NA
HETATM   12  C   UNL     1       2.134  28.535  48.906  1.00  0.00     0.061 A 
HETATM   13  C   UNL     1       2.077  29.937  49.403  1.00  0.00     0.073 C 
ENDBRANCH   5   6
BRANCH   5  14
HETATM   14  N   UNL     1       5.622  27.394  48.374  1.00  0.00    -0.062 N 
HETATM   15  H   UNL     1       6.355  26.858  48.850  1.00  0.00     0.275 HD
HETATM   16  H   UNL     1       5.133  26.720  47.768  1.00  0.00     0.275 HD
HETATM   17  H   UNL     1       6.032  28.135  47.798  1.00  0.00     0.275 HD
ENDBRANCH   5  14
ENDBRANCH   1   5
BRANCH   2  18
HETATM   18  C   UNL     1       6.230  25.650  52.035  1.00  0.00     0.127 C 
BRANCH  18  19
HETATM   19  C   UNL     1       7.554  24.889  51.912  1.00  0.00     0.058 C 
BRANCH  19  20
HETATM   20  C   UNL     1       7.781  23.870  53.008  1.00  0.00    -0.056 A 
HETATM   21  C   UNL     1       7.927  24.285  54.341  1.00  0.00     0.023 A 
HETATM   22  C   UNL     1       8.159  23.356  55.368  1.00  0.00     0.048 A 
HETATM   23  C   UNL     1       8.238  21.994  55.044  1.00  0.00     0.016 A 
HETATM   24  C   UNL     1       8.103  21.573  53.722  1.00  0.00     0.001 A 
HETATM   25  C   UNL     1       7.880  22.506  52.709  1.00  0.00     0.007 A 
BRANCH  22  26
HETATM   26  C   UNL     1       8.317  23.799  56.804  1.00  0.00     0.417 C 
HETATM   27  F   UNL     1       7.300  24.596  57.234  1.00  0.00    -0.166 F 
HETATM   28  F   UNL     1       8.343  22.742  57.662  1.00  0.00    -0.166 F 
HETATM   29  F   UNL     1       9.463  24.496  57.021  1.00  0.00    -0.166 F 
ENDBRANCH  22  26
ENDBRANCH  19  20
ENDBRANCH  18  19
ENDBRANCH   2  18
TORSDOF 7
ENDMDL
MODEL 9
REMARK VINA RESULT:      -8.4      1.676      2.252
REMARK  7 active torsions:
REMARK  status: ('A' for Active; 'I' for Inactive)
REMARK    1  A    between atoms: C_8  and  C_9 
REMARK    2  A    between atoms: C_9  and  N_10 
REMARK    3  A    between atoms: C_9  and  C_14 
REMARK       I    between atoms: C_14  and  N_15 
REMARK    4  A    between atoms: N_15  and  C_16 
REMARK    5  A    between atoms: C_16  and  C_17 
REMARK    6  A    between atoms: C_17  and  C_18 
REMARK    7  A    between atoms: C_20  and  C_21 
ROOT
HETATM    1  C   UNL     1       5.627  28.442  55.784  1.00  0.00     0.253 C 
HETATM    2  N   UNL     1       6.187  27.470  54.989  1.00  0.00    -0.359 N 
HETATM    3  O   UNL     1       4.538  28.334  56.350  1.00  0.00    -0.271 OA
HETATM    4  H   UNL     1       7.169  27.530  54.736  1.00  0.00     0.162 HD
ENDROOT
BRANCH   1   5
HETATM    5  C   UNL     1       6.400  29.773  55.906  1.00  0.00     0.311 C 
BRANCH   5   6
HETATM    6  C   UNL     1       6.966  29.965  57.271  1.00  0.00     0.031 A 
HETATM    7  C   UNL     1       6.522  30.783  58.304  1.00  0.00     0.035 A 
HETATM    8  C   UNL     1       5.358  31.694  58.448  1.00  0.00     0.070 C 
HETATM    9  N   UNL     1       7.399  30.591  59.340  1.00  0.00    -0.282 N 
HETATM   10  H   UNL     1       7.391  31.011  60.266  1.00  0.00     0.189 HD
HETATM   11  N   UNL     1       8.378  29.732  59.044  1.00  0.00    -0.179 NA
HETATM   12  C   UNL     1       8.125  29.330  57.801  1.00  0.00     0.061 A 
HETATM   13  C   UNL     1       9.026  28.335  57.158  1.00  0.00     0.073 C 
ENDBRANCH   5   6
BRANCH   5  14
HETATM   14  N   UNL     1       5.470  30.902  55.570  1.00  0.00    -0.062 N 
HETATM   15  H   UNL     1       4.809  30.625  54.837  1.00  0.00     0.275 HD
HETATM   16  H   UNL     1       4.898  31.089  56.405  1.00  0.00     0.275 HD
HETATM   17  H   UNL     1       5.972  31.754  55.303  1.00  0.00     0.275 HD
ENDBRANCH   5  14
ENDBRANCH   1   5
BRANCH   2  18
HETATM   18  C   UNL     1       5.593  26.144  54.861  1.00  0.00     0.127 C 
BRANCH  18  19
HETATM   19  C   UNL     1       6.309  25.094  55.717  1.00  0.00     0.058 C 
BRANCH  19  20
HETATM   20  C   UNL     1       6.960  23.988  54.916  1.00  0.00    -0.056 A 
HETATM   21  C   UNL     1       7.360  22.800  55.546  1.00  0.00     0.023 A 
HETATM   22  C   UNL     1       7.985  21.770  54.823  1.00  0.00     0.048 A 
HETATM   23  C   UNL     1       8.201  21.943  53.449  1.00  0.00     0.016 A 
HETATM   24  C   UNL     1       7.815  23.124  52.815  1.00  0.00     0.001 A 
HETATM   25  C   UNL     1       7.202  24.143  53.546  1.00  0.00     0.007 A 
BRANCH  22  26
HETATM   26  C   UNL     1       8.418  20.490  55.498  1.00  0.00     0.417 C 
HETATM   27  F   UNL     1       9.484  20.657  56.330  1.00  0.00    -0.166 F 
HETATM   28  F   UNL     1       7.429  19.963  56.271  1.00  0.00    -0.166 F 
HETATM   29  F   UNL     1       8.774  19.519  54.617  1.00  0.00    -0.166 F 
ENDBRANCH  22  26
ENDBRANCH  19  20
ENDBRANCH  18  19
ENDBRANCH   2  18
TORSDOF 7
ENDMDL
MODEL 10
REMARK VINA RESULT:      -8.2      2.449      3.718
REMARK  7 active torsions:
REMARK  status: ('A' for Active; 'I' for Inactive)
REMARK    1  A    between atoms: C_8  and  C_9 
REMARK    2  A    between atoms: C_9  and  N_10 
REMARK    3  A    between atoms: C_9  and  C_14 
REMARK       I    between atoms: C_14  and  N_15 
REMARK    4  A    between atoms: N_15  and  C_16 
REMARK    5  A    between atoms: C_16  and  C_17 
REMARK    6  A    between atoms: C_17  and  C_18 
REMARK    7  A    between atoms: C_20  and  C_21 
ROOT
HETATM    1  C   UNL     1       7.355  27.831  56.916  1.00  0.00     0.253 C 
HETATM    2  N   UNL     1       8.262  26.800  56.946  1.00  0.00    -0.359 N 
HETATM    3  O   UNL     1       6.178  27.732  57.270  1.00  0.00    -0.271 OA
HETATM    4  H   UNL     1       9.254  26.999  56.853  1.00  0.00     0.162 HD
ENDROOT
BRANCH   1   5
HETATM    5  C   UNL     1       7.844  29.174  56.333  1.00  0.00     0.311 C 
BRANCH   5   6
HETATM    6  C   UNL     1       8.467  30.040  57.374  1.00  0.00     0.031 A 
HETATM    7  C   UNL     1       9.811  30.232  57.673  1.00  0.00     0.035 A 
HETATM    8  C   UNL     1      11.068  29.709  57.078  1.00  0.00     0.070 C 
HETATM    9  N   UNL     1       9.842  31.121  58.716  1.00  0.00    -0.282 N 
HETATM   10  H   UNL     1      10.649  31.509  59.198  1.00  0.00     0.189 HD
HETATM   11  N   UNL     1       8.625  31.496  59.119  1.00  0.00    -0.179 NA
HETATM   12  C   UNL     1       7.779  30.864  58.309  1.00  0.00     0.061 A 
HETATM   13  C   UNL     1       6.315  31.079  58.470  1.00  0.00     0.073 C 
ENDBRANCH   5   6
BRANCH   5  14
HETATM   14  N   UNL     1       6.679  29.881  55.705  1.00  0.00    -0.062 N 
HETATM   15  H   UNL     1       5.882  29.244  55.595  1.00  0.00     0.275 HD
HETATM   16  H   UNL     1       6.366  30.606  56.365  1.00  0.00     0.275 HD
HETATM   17  H   UNL     1       6.921  30.315  54.811  1.00  0.00     0.275 HD
ENDBRANCH   5  14
ENDBRANCH   1   5
BRANCH   2  18
HETATM   18  C   UNL     1       7.942  25.510  57.548  1.00  0.00     0.127 C 
BRANCH  18  19
HETATM   19  C   UNL     1       8.787  24.368  56.974  1.00  0.00     0.058 C 
BRANCH  19  20
HETATM   20  C   UNL     1       8.334  23.893  55.611  1.00  0.00    -0.056 A 
HETATM   21  C   UNL     1       8.483  22.547  55.245  1.00  0.00     0.023 A 
HETATM   22  C   UNL     1       8.087  22.092  53.976  1.00  0.00     0.048 A 
HETATM   23  C   UNL     1       7.529  23.007  53.072  1.00  0.00     0.016 A 
HETATM   24  C   UNL     1       7.385  24.348  53.424  1.00  0.00     0.001 A 
HETATM   25  C   UNL     1       7.789  24.790  54.684  1.00  0.00     0.007 A 
BRANCH  22  26
HETATM   26  C   UNL     1       8.248  20.643  53.578  1.00  0.00     0.417 C 
HETATM   27  F   UNL     1       7.208  20.173  52.834  1.00  0.00    -0.166 F 
HETATM   28  F   UNL     1       9.361  20.445  52.819  1.00  0.00    -0.166 F 
HETATM   29  F   UNL     1       8.359  19.808  54.645  1.00  0.00    -0.166 F 
ENDBRANCH  22  26
ENDBRANCH  19  20
ENDBRANCH  18  19
ENDBRANCH   2  18
TORSDOF 7
ENDMDL
