MODEL 1
REMARK VINA RESULT:     -10.2      0.000      0.000
REMARK  8 active torsions:
REMARK  status: ('A' for Active; 'I' for Inactive)
REMARK    1  A    between atoms: O_2  and  C_3 
REMARK    2  A    between atoms: C_4  and  O_5 
REMARK    3  A    between atoms: C_13  and  C_14 
REMARK    4  A    between atoms: C_14  and  N_15 
REMARK    5  A    between atoms: C_19  and  C_20 
REMARK    6  A    between atoms: C_20  and  O_21 
REMARK    7  A    between atoms: C_20  and  C_22 
REMARK    8  A    between atoms: C_20  and  C_28 
ROOT
HETATM    1  N   UNL     1       4.681  27.043  51.149  1.00  0.00    -0.064 N 
HETATM    2  H   UNL     1       3.655  26.981  51.145  1.00  0.00     0.280 HD
HETATM    3  C   UNL     1       5.176  25.609  51.221  1.00  0.00     0.236 C 
HETATM    4  C   UNL     1       4.768  24.980  52.544  1.00  0.00     0.036 C 
HETATM    5  C   UNL     1       5.266  25.764  53.782  1.00  0.00     0.033 C 
HETATM    6  C   UNL     1       4.689  27.191  53.644  1.00  0.00     0.036 C 
HETATM    7  C   UNL     1       5.056  27.887  52.342  1.00  0.00     0.236 C 
ENDROOT
BRANCH   1   8
HETATM    8  C   UNL     1       5.069  27.706  49.815  1.00  0.00     0.313 C 
BRANCH   8   9
HETATM    9  C   UNL     1       3.944  27.691  48.779  1.00  0.00     0.133 A 
HETATM   10  N   UNL     1       3.859  26.589  47.971  1.00  0.00    -0.309 N 
HETATM   11  C   UNL     1       2.794  26.356  47.139  1.00  0.00     0.259 A 
HETATM   12  H   UNL     1       4.537  25.839  47.987  1.00  0.00     0.170 HD
HETATM   13  C   UNL     1       1.789  27.427  47.065  1.00  0.00     0.064 A 
HETATM   14  O   UNL     1       2.683  25.297  46.538  1.00  0.00    -0.267 OA
HETATM   15  C   UNL     1       1.997  28.553  47.862  1.00  0.00     0.077 A 
HETATM   16  C   UNL     1       0.666  27.303  46.242  1.00  0.00     0.059 A 
HETATM   17  C   UNL     1       1.061  29.588  47.817  1.00  0.00     0.072 A 
HETATM   18  N   UNL     1       3.086  28.659  48.748  1.00  0.00    -0.233 NA
HETATM   19  C   UNL     1      -0.068  29.491  46.993  1.00  0.00     0.103 A 
HETATM   20  C   UNL     1      -0.274  28.334  46.210  1.00  0.00     0.102 A 
BRANCH  19  21
HETATM   21  O   UNL     1      -1.042  30.455  46.909  1.00  0.00    -0.353 OA
HETATM   22  C   UNL     1      -0.688  31.702  46.325  1.00  0.00     0.210 C 
ENDBRANCH  19  21
BRANCH  20  23
HETATM   23  O   UNL     1      -1.416  28.317  45.451  1.00  0.00    -0.353 OA
HETATM   24  C   UNL     1      -1.297  28.580  44.060  1.00  0.00     0.210 C 
ENDBRANCH  20  23
ENDBRANCH   8   9
ENDBRANCH   1   8
BRANCH   5  25
HETATM   25  C   UNL     1       6.835  25.700  54.013  1.00  0.00     0.116 C 
BRANCH  25  26
HETATM   26  O   UNL     1       7.442  26.210  52.812  1.00  0.00    -0.380 OA
HETATM   27  H   UNL     1       6.987  27.056  52.627  1.00  0.00     0.211 HD
ENDBRANCH  25  26
BRANCH  25  28
HETATM   28  C   UNL     1       7.256  26.628  55.175  1.00  0.00    -0.019 A 
HETATM   29  C   UNL     1       6.936  26.332  56.512  1.00  0.00     0.010 A 
HETATM   30  C   UNL     1       7.302  27.188  57.557  1.00  0.00     0.001 A 
HETATM   31  C   UNL     1       7.986  28.368  57.292  1.00  0.00     0.000 A 
HETATM   32  C   UNL     1       8.304  28.697  55.981  1.00  0.00     0.001 A 
HETATM   33  C   UNL     1       7.941  27.841  54.936  1.00  0.00     0.010 A 
ENDBRANCH  25  28
BRANCH  25  34
HETATM   34  C   UNL     1       7.341  24.246  54.184  1.00  0.00    -0.019 A 
HETATM   35  C   UNL     1       8.029  23.572  53.155  1.00  0.00     0.010 A 
HETATM   36  C   UNL     1       8.466  22.251  53.309  1.00  0.00     0.001 A 
HETATM   37  C   UNL     1       8.237  21.573  54.499  1.00  0.00     0.000 A 
HETATM   38  C   UNL     1       7.571  22.213  55.537  1.00  0.00     0.001 A 
HETATM   39  C   UNL     1       7.128  23.530  55.381  1.00  0.00     0.010 A 
ENDBRANCH  25  34
ENDBRANCH   5  25
TORSDOF 8
ENDMDL
MODEL 2
REMARK VINA RESULT:     -10.0      5.762     10.747
REMARK  8 active torsions:
REMARK  status: ('A' for Active; 'I' for Inactive)
REMARK    1  A    between atoms: O_2  and  C_3 
REMARK    2  A    between atoms: C_4  and  O_5 
REMARK    3  A    between atoms: C_13  and  C_14 
REMARK    4  A    between atoms: C_14  and  N_15 
REMARK    5  A    between atoms: C_19  and  C_20 
REMARK    6  A    between atoms: C_20  and  O_21 
REMARK    7  A    between atoms: C_20  and  C_22 
REMARK    8  A    between atoms: C_20  and  C_28 
ROOT
HETATM    1  N   UNL     1       6.866  27.645  56.894  1.00  0.00    -0.064 N 
HETATM    2  H   UNL     1       6.276  27.671  57.734  1.00  0.00     0.280 HD
HETATM    3  C   UNL     1       5.927  27.331  55.744  1.00  0.00     0.236 C 
HETATM    4  C   UNL     1       5.341  25.937  55.912  1.00  0.00     0.036 C 
HETATM    5  C   UNL     1       6.412  24.826  56.026  1.00  0.00     0.033 C 
HETATM    6  C   UNL     1       7.296  25.207  57.235  1.00  0.00     0.036 C 
HETATM    7  C   UNL     1       7.918  26.592  57.138  1.00  0.00     0.236 C 
ENDROOT
BRANCH   1   8
HETATM    8  C   UNL     1       7.469  29.055  56.759  1.00  0.00     0.313 C 
BRANCH   8   9
HETATM    9  C   UNL     1       7.372  29.883  58.041  1.00  0.00     0.133 A 
HETATM   10  N   UNL     1       8.355  29.696  58.977  1.00  0.00    -0.309 N 
HETATM   11  C   UNL     1       8.501  30.504  60.075  1.00  0.00     0.259 A 
HETATM   12  H   UNL     1       9.081  28.999  58.883  1.00  0.00     0.170 HD
HETATM   13  C   UNL     1       7.458  31.522  60.268  1.00  0.00     0.064 A 
HETATM   14  O   UNL     1       9.470  30.395  60.813  1.00  0.00    -0.267 OA
HETATM   15  C   UNL     1       6.447  31.589  59.309  1.00  0.00     0.077 A 
HETATM   16  C   UNL     1       7.499  32.395  61.359  1.00  0.00     0.059 A 
HETATM   17  C   UNL     1       5.442  32.547  59.461  1.00  0.00     0.072 A 
HETATM   18  N   UNL     1       6.434  30.764  58.168  1.00  0.00    -0.233 NA
HETATM   19  C   UNL     1       5.456  33.426  60.551  1.00  0.00     0.103 A 
HETATM   20  C   UNL     1       6.499  33.360  61.500  1.00  0.00     0.102 A 
BRANCH  19  21
HETATM   21  O   UNL     1       4.517  34.407  60.758  1.00  0.00    -0.353 OA
HETATM   22  C   UNL     1       3.157  34.005  60.865  1.00  0.00     0.210 C 
ENDBRANCH  19  21
BRANCH  20  23
HETATM   23  O   UNL     1       6.443  34.273  62.521  1.00  0.00    -0.353 OA
HETATM   24  C   UNL     1       6.170  33.794  63.831  1.00  0.00     0.210 C 
ENDBRANCH  20  23
ENDBRANCH   8   9
ENDBRANCH   1   8
BRANCH   5  25
HETATM   25  C   UNL     1       7.209  24.540  54.683  1.00  0.00     0.116 C 
BRANCH  25  26
HETATM   26  O   UNL     1       8.429  25.298  54.768  1.00  0.00    -0.380 OA
HETATM   27  H   UNL     1       8.932  25.076  53.959  1.00  0.00     0.211 HD
ENDBRANCH  25  26
BRANCH  25  28
HETATM   28  C   UNL     1       7.597  23.047  54.583  1.00  0.00    -0.019 A 
HETATM   29  C   UNL     1       7.989  22.465  53.364  1.00  0.00     0.010 A 
HETATM   30  C   UNL     1       8.318  21.107  53.277  1.00  0.00     0.001 A 
HETATM   31  C   UNL     1       8.251  20.295  54.401  1.00  0.00     0.000 A 
HETATM   32  C   UNL     1       7.853  20.835  55.617  1.00  0.00     0.001 A 
HETATM   33  C   UNL     1       7.527  22.192  55.706  1.00  0.00     0.010 A 
ENDBRANCH  25  28
BRANCH  25  34
HETATM   34  C   UNL     1       6.451  25.054  53.434  1.00  0.00    -0.019 A 
HETATM   35  C   UNL     1       5.261  24.447  52.984  1.00  0.00     0.010 A 
HETATM   36  C   UNL     1       4.592  24.904  51.843  1.00  0.00     0.001 A 
HETATM   37  C   UNL     1       5.088  25.986  51.127  1.00  0.00     0.000 A 
HETATM   38  C   UNL     1       6.254  26.613  51.550  1.00  0.00     0.001 A 
HETATM   39  C   UNL     1       6.926  26.153  52.686  1.00  0.00     0.010 A 
ENDBRANCH  25  34
ENDBRANCH   5  25
TORSDOF 8
ENDMDL
MODEL 3
REMARK VINA RESULT:      -9.9      6.067     12.024
REMARK  8 active torsions:
REMARK  status: ('A' for Active; 'I' for Inactive)
REMARK    1  A    between atoms: O_2  and  C_3 
REMARK    2  A    between atoms: C_4  and  O_5 
REMARK    3  A    between atoms: C_13  and  C_14 
REMARK    4  A    between atoms: C_14  and  N_15 
REMARK    5  A    between atoms: C_19  and  C_20 
REMARK    6  A    between atoms: C_20  and  O_21 
REMARK    7  A    between atoms: C_20  and  C_22 
REMARK    8  A    between atoms: C_20  and  C_28 
ROOT
HETATM    1  N   UNL     1       7.036  28.968  57.783  1.00  0.00    -0.064 N 
HETATM    2  H   UNL     1       6.548  28.792  58.669  1.00  0.00     0.280 HD
HETATM    3  C   UNL     1       5.944  29.107  56.736  1.00  0.00     0.236 C 
HETATM    4  C   UNL     1       5.203  27.787  56.575  1.00  0.00     0.036 C 
HETATM    5  C   UNL     1       6.126  26.600  56.210  1.00  0.00     0.033 C 
HETATM    6  C   UNL     1       7.177  26.512  57.340  1.00  0.00     0.036 C 
HETATM    7  C   UNL     1       7.961  27.798  57.560  1.00  0.00     0.236 C 
ENDROOT
BRANCH   1   8
HETATM    8  C   UNL     1       7.799  30.291  57.977  1.00  0.00     0.313 C 
BRANCH   8   9
HETATM    9  C   UNL     1       7.760  30.810  59.415  1.00  0.00     0.133 A 
HETATM   10  N   UNL     1       8.592  30.202  60.317  1.00  0.00    -0.309 N 
HETATM   11  C   UNL     1       8.801  30.690  61.582  1.00  0.00     0.259 A 
HETATM   12  H   UNL     1       9.163  29.400  60.089  1.00  0.00     0.170 HD
HETATM   13  C   UNL     1       7.980  31.846  61.971  1.00  0.00     0.064 A 
HETATM   14  O   UNL     1       9.654  30.205  62.312  1.00  0.00    -0.267 OA
HETATM   15  C   UNL     1       7.097  32.351  61.015  1.00  0.00     0.077 A 
HETATM   16  C   UNL     1       8.101  32.420  63.239  1.00  0.00     0.059 A 
HETATM   17  C   UNL     1       6.304  33.450  61.351  1.00  0.00     0.072 A 
HETATM   18  N   UNL     1       7.017  31.827  59.711  1.00  0.00    -0.233 NA
HETATM   19  C   UNL     1       6.400  34.037  62.619  1.00  0.00     0.103 A 
HETATM   20  C   UNL     1       7.316  33.527  63.566  1.00  0.00     0.102 A 
BRANCH  19  21
HETATM   21  O   UNL     1       5.671  35.130  63.017  1.00  0.00    -0.353 OA
HETATM   22  C   UNL     1       4.255  35.006  63.036  1.00  0.00     0.210 C 
ENDBRANCH  19  21
BRANCH  20  23
HETATM   23  O   UNL     1       7.357  34.177  64.772  1.00  0.00    -0.353 OA
HETATM   24  C   UNL     1       6.660  33.599  65.867  1.00  0.00     0.210 C 
ENDBRANCH  20  23
ENDBRANCH   8   9
ENDBRANCH   1   8
BRANCH   5  25
HETATM   25  C   UNL     1       6.729  26.663  54.743  1.00  0.00     0.116 C 
BRANCH  25  26
HETATM   26  O   UNL     1       7.926  27.457  54.831  1.00  0.00    -0.380 OA
HETATM   27  H   UNL     1       7.932  28.013  54.027  1.00  0.00     0.211 HD
ENDBRANCH  25  26
BRANCH  25  28
HETATM   28  C   UNL     1       7.142  25.255  54.259  1.00  0.00    -0.019 A 
HETATM   29  C   UNL     1       7.644  25.035  52.964  1.00  0.00     0.010 A 
HETATM   30  C   UNL     1       7.996  23.753  52.525  1.00  0.00     0.001 A 
HETATM   31  C   UNL     1       7.843  22.657  53.365  1.00  0.00     0.000 A 
HETATM   32  C   UNL     1       7.336  22.838  54.645  1.00  0.00     0.001 A 
HETATM   33  C   UNL     1       6.987  24.118  55.086  1.00  0.00     0.010 A 
ENDBRANCH  25  28
BRANCH  25  34
HETATM   34  C   UNL     1       5.784  27.391  53.754  1.00  0.00    -0.019 A 
HETATM   35  C   UNL     1       6.216  28.492  52.988  1.00  0.00     0.010 A 
HETATM   36  C   UNL     1       5.352  29.158  52.111  1.00  0.00     0.001 A 
HETATM   37  C   UNL     1       4.037  28.734  51.968  1.00  0.00     0.000 A 
HETATM   38  C   UNL     1       3.583  27.645  52.702  1.00  0.00     0.001 A 
HETATM   39  C   UNL     1       4.444  26.984  53.583  1.00  0.00     0.010 A 
ENDBRANCH  25  34
ENDBRANCH   5  25
TORSDOF 8
ENDMDL
MODEL 4
REMARK VINA RESULT:      -9.8      5.725     10.418
REMARK  8 active torsions:
REMARK  status: ('A' for Active; 'I' for Inactive)
REMARK    1  A    between atoms: O_2  and  C_3 
REMARK    2  A    between atoms: C_4  and  O_5 
REMARK    3  A    between atoms: C_13  and  C_14 
REMARK    4  A    between atoms: C_14  and  N_15 
REMARK    5  A    between atoms: C_19  and  C_20 
REMARK    6  A    between atoms: C_20  and  O_21 
REMARK    7  A    between atoms: C_20  and  C_22 
REMARK    8  A    between atoms: C_20  and  C_28 
ROOT
HETATM    1  N   UNL     1       6.766  27.787  56.782  1.00  0.00    -0.064 N 
HETATM    2  H   UNL     1       6.203  27.854  57.639  1.00  0.00     0.280 HD
HETATM    3  C   UNL     1       5.826  27.251  55.717  1.00  0.00     0.236 C 
HETATM    4  C   UNL     1       5.390  25.836  56.068  1.00  0.00     0.036 C 
HETATM    5  C   UNL     1       6.570  24.854  56.262  1.00  0.00     0.033 C 
HETATM    6  C   UNL     1       7.449  25.458  57.380  1.00  0.00     0.036 C 
HETATM    7  C   UNL     1       7.925  26.876  57.099  1.00  0.00     0.236 C 
ENDROOT
BRANCH   1   8
HETATM    8  C   UNL     1       7.219  29.223  56.462  1.00  0.00     0.313 C 
BRANCH   8   9
HETATM    9  C   UNL     1       6.571  30.279  57.358  1.00  0.00     0.133 A 
HETATM   10  N   UNL     1       5.284  30.640  57.062  1.00  0.00    -0.309 N 
HETATM   11  C   UNL     1       4.520  31.421  57.890  1.00  0.00     0.259 A 
HETATM   12  H   UNL     1       4.786  30.294  56.252  1.00  0.00     0.170 HD
HETATM   13  C   UNL     1       5.204  31.965  59.073  1.00  0.00     0.064 A 
HETATM   14  O   UNL     1       3.333  31.608  57.664  1.00  0.00    -0.267 OA
HETATM   15  C   UNL     1       6.542  31.613  59.254  1.00  0.00     0.077 A 
HETATM   16  C   UNL     1       4.528  32.784  59.982  1.00  0.00     0.059 A 
HETATM   17  C   UNL     1       7.220  32.111  60.368  1.00  0.00     0.072 A 
HETATM   18  N   UNL     1       7.214  30.732  58.385  1.00  0.00    -0.233 NA
HETATM   19  C   UNL     1       6.567  32.940  61.288  1.00  0.00     0.103 A 
HETATM   20  C   UNL     1       5.206  33.268  61.101  1.00  0.00     0.102 A 
BRANCH  19  21
HETATM   21  O   UNL     1       7.159  33.452  62.417  1.00  0.00    -0.353 OA
HETATM   22  C   UNL     1       7.846  32.546  63.269  1.00  0.00     0.210 C 
ENDBRANCH  19  21
BRANCH  20  23
HETATM   23  O   UNL     1       4.643  34.067  62.062  1.00  0.00    -0.353 OA
HETATM   24  C   UNL     1       3.537  33.555  62.793  1.00  0.00     0.210 C 
ENDBRANCH  20  23
ENDBRANCH   8   9
ENDBRANCH   1   8
BRANCH   5  25
HETATM   25  C   UNL     1       7.349  24.491  54.927  1.00  0.00     0.116 C 
BRANCH  25  26
HETATM   26  O   UNL     1       8.588  25.221  54.969  1.00  0.00    -0.380 OA
HETATM   27  H   UNL     1       8.342  26.162  54.870  1.00  0.00     0.211 HD
ENDBRANCH  25  26
BRANCH  25  28
HETATM   28  C   UNL     1       7.699  22.986  54.889  1.00  0.00    -0.019 A 
HETATM   29  C   UNL     1       8.140  22.358  53.710  1.00  0.00     0.010 A 
HETATM   30  C   UNL     1       8.435  20.990  53.678  1.00  0.00     0.001 A 
HETATM   31  C   UNL     1       8.285  20.213  54.820  1.00  0.00     0.000 A 
HETATM   32  C   UNL     1       7.837  20.799  55.996  1.00  0.00     0.001 A 
HETATM   33  C   UNL     1       7.545  22.166  56.030  1.00  0.00     0.010 A 
ENDBRANCH  25  28
BRANCH  25  34
HETATM   34  C   UNL     1       6.594  24.969  53.662  1.00  0.00    -0.019 A 
HETATM   35  C   UNL     1       7.129  25.950  52.802  1.00  0.00     0.010 A 
HETATM   36  C   UNL     1       6.433  26.393  51.672  1.00  0.00     0.001 A 
HETATM   37  C   UNL     1       5.188  25.859  51.363  1.00  0.00     0.000 A 
HETATM   38  C   UNL     1       4.637  24.882  52.184  1.00  0.00     0.001 A 
HETATM   39  C   UNL     1       5.329  24.445  53.317  1.00  0.00     0.010 A 
ENDBRANCH  25  34
ENDBRANCH   5  25
TORSDOF 8
ENDMDL
MODEL 5
REMARK VINA RESULT:      -9.7      1.110      2.169
REMARK  8 active torsions:
REMARK  status: ('A' for Active; 'I' for Inactive)
REMARK    1  A    between atoms: O_2  and  C_3 
REMARK    2  A    between atoms: C_4  and  O_5 
REMARK    3  A    between atoms: C_13  and  C_14 
REMARK    4  A    between atoms: C_14  and  N_15 
REMARK    5  A    between atoms: C_19  and  C_20 
REMARK    6  A    between atoms: C_20  and  O_21 
REMARK    7  A    between atoms: C_20  and  C_22 
REMARK    8  A    between atoms: C_20  and  C_28 
ROOT
HETATM    1  N   UNL     1       4.319  26.737  51.152  1.00  0.00    -0.064 N 
HETATM    2  H   UNL     1       3.301  26.701  51.286  1.00  0.00     0.280 HD
HETATM    3  C   UNL     1       4.813  25.321  51.386  1.00  0.00     0.236 C 
HETATM    4  C   UNL     1       4.573  24.915  52.833  1.00  0.00     0.036 C 
HETATM    5  C   UNL     1       5.228  25.869  53.859  1.00  0.00     0.033 C 
HETATM    6  C   UNL     1       4.646  27.271  53.572  1.00  0.00     0.036 C 
HETATM    7  C   UNL     1       4.847  27.747  52.141  1.00  0.00     0.236 C 
ENDROOT
BRANCH   1   8
HETATM    8  C   UNL     1       4.537  27.176  49.693  1.00  0.00     0.313 C 
BRANCH   8   9
HETATM    9  C   UNL     1       3.301  27.815  49.059  1.00  0.00     0.133 A 
HETATM   10  N   UNL     1       3.051  29.125  49.368  1.00  0.00    -0.309 N 
HETATM   11  C   UNL     1       2.100  29.874  48.725  1.00  0.00     0.259 A 
HETATM   12  H   UNL     1       3.599  29.648  50.037  1.00  0.00     0.170 HD
HETATM   13  C   UNL     1       1.261  29.154  47.755  1.00  0.00     0.064 A 
HETATM   14  O   UNL     1       1.998  31.075  48.928  1.00  0.00    -0.267 OA
HETATM   15  C   UNL     1       1.532  27.798  47.561  1.00  0.00     0.077 A 
HETATM   16  C   UNL     1       0.253  29.812  47.047  1.00  0.00     0.059 A 
HETATM   17  C   UNL     1       0.756  27.085  46.645  1.00  0.00     0.072 A 
HETATM   18  N   UNL     1       2.591  27.140  48.214  1.00  0.00    -0.233 NA
HETATM   19  C   UNL     1      -0.267  27.721  45.931  1.00  0.00     0.103 A 
HETATM   20  C   UNL     1      -0.512  29.099  46.122  1.00  0.00     0.102 A 
BRANCH  19  21
HETATM   21  O   UNL     1      -1.059  27.094  45.000  1.00  0.00    -0.353 OA
HETATM   22  C   UNL     1      -0.735  27.279  43.628  1.00  0.00     0.210 C 
ENDBRANCH  19  21
BRANCH  20  23
HETATM   23  O   UNL     1      -1.518  29.642  45.366  1.00  0.00    -0.353 OA
HETATM   24  C   UNL     1      -2.740  29.968  46.013  1.00  0.00     0.210 C 
ENDBRANCH  20  23
ENDBRANCH   8   9
ENDBRANCH   1   8
BRANCH   5  25
HETATM   25  C   UNL     1       6.814  25.803  53.899  1.00  0.00     0.116 C 
BRANCH  25  26
HETATM   26  O   UNL     1       7.270  26.233  52.605  1.00  0.00    -0.380 OA
HETATM   27  H   UNL     1       7.761  27.064  52.762  1.00  0.00     0.211 HD
ENDBRANCH  25  26
BRANCH  25  28
HETATM   28  C   UNL     1       7.378  26.795  54.942  1.00  0.00    -0.019 A 
HETATM   29  C   UNL     1       7.298  26.542  56.324  1.00  0.00     0.010 A 
HETATM   30  C   UNL     1       7.791  27.454  57.263  1.00  0.00     0.001 A 
HETATM   31  C   UNL     1       8.365  28.649  56.846  1.00  0.00     0.000 A 
HETATM   32  C   UNL     1       8.446  28.936  55.490  1.00  0.00     0.001 A 
HETATM   33  C   UNL     1       7.956  28.024  54.550  1.00  0.00     0.010 A 
ENDBRANCH  25  28
BRANCH  25  34
HETATM   34  C   UNL     1       7.334  24.357  54.096  1.00  0.00    -0.019 A 
HETATM   35  C   UNL     1       7.103  23.640  55.288  1.00  0.00     0.010 A 
HETATM   36  C   UNL     1       7.593  22.341  55.468  1.00  0.00     0.001 A 
HETATM   37  C   UNL     1       8.316  21.720  54.457  1.00  0.00     0.000 A 
HETATM   38  C   UNL     1       8.552  22.396  53.266  1.00  0.00     0.001 A 
HETATM   39  C   UNL     1       8.069  23.696  53.089  1.00  0.00     0.010 A 
ENDBRANCH  25  34
ENDBRANCH   5  25
TORSDOF 8
ENDMDL
MODEL 6
REMARK VINA RESULT:      -9.6      1.627      2.154
REMARK  8 active torsions:
REMARK  status: ('A' for Active; 'I' for Inactive)
REMARK    1  A    between atoms: O_2  and  C_3 
REMARK    2  A    between atoms: C_4  and  O_5 
REMARK    3  A    between atoms: C_13  and  C_14 
REMARK    4  A    between atoms: C_14  and  N_15 
REMARK    5  A    between atoms: C_19  and  C_20 
REMARK    6  A    between atoms: C_20  and  O_21 
REMARK    7  A    between atoms: C_20  and  C_22 
REMARK    8  A    between atoms: C_20  and  C_28 
ROOT
HETATM    1  N   UNL     1       4.573  26.312  50.951  1.00  0.00    -0.064 N 
HETATM    2  H   UNL     1       3.549  26.364  51.014  1.00  0.00     0.280 HD
HETATM    3  C   UNL     1       4.956  24.997  51.606  1.00  0.00     0.236 C 
HETATM    4  C   UNL     1       4.607  25.028  53.087  1.00  0.00     0.036 C 
HETATM    5  C   UNL     1       5.264  26.201  53.853  1.00  0.00     0.033 C 
HETATM    6  C   UNL     1       4.794  27.492  53.144  1.00  0.00     0.036 C 
HETATM    7  C   UNL     1       5.109  27.533  51.656  1.00  0.00     0.236 C 
ENDROOT
BRANCH   1   8
HETATM    8  C   UNL     1       4.904  26.309  49.448  1.00  0.00     0.313 C 
BRANCH   8   9
HETATM    9  C   UNL     1       3.895  27.087  48.602  1.00  0.00     0.133 A 
HETATM   10  N   UNL     1       2.617  26.599  48.554  1.00  0.00    -0.309 N 
HETATM   11  C   UNL     1       1.574  27.295  48.000  1.00  0.00     0.259 A 
HETATM   12  H   UNL     1       2.342  25.728  48.988  1.00  0.00     0.170 HD
HETATM   13  C   UNL     1       1.925  28.561  47.338  1.00  0.00     0.064 A 
HETATM   14  O   UNL     1       0.423  26.893  48.099  1.00  0.00    -0.267 OA
HETATM   15  C   UNL     1       3.266  28.943  47.363  1.00  0.00     0.077 A 
HETATM   16  C   UNL     1       0.945  29.350  46.730  1.00  0.00     0.059 A 
HETATM   17  C   UNL     1       3.633  30.140  46.745  1.00  0.00     0.072 A 
HETATM   18  N   UNL     1       4.252  28.193  48.033  1.00  0.00    -0.233 NA
HETATM   19  C   UNL     1       2.671  30.943  46.121  1.00  0.00     0.103 A 
HETATM   20  C   UNL     1       1.314  30.553  46.125  1.00  0.00     0.102 A 
BRANCH  19  21
HETATM   21  O   UNL     1       2.949  32.142  45.511  1.00  0.00    -0.353 OA
HETATM   22  C   UNL     1       3.591  32.104  44.244  1.00  0.00     0.210 C 
ENDBRANCH  19  21
BRANCH  20  23
HETATM   23  O   UNL     1       0.439  31.410  45.510  1.00  0.00    -0.353 OA
HETATM   24  C   UNL     1      -0.570  30.853  44.678  1.00  0.00     0.210 C 
ENDBRANCH  20  23
ENDBRANCH   8   9
ENDBRANCH   1   8
BRANCH   5  25
HETATM   25  C   UNL     1       6.836  26.073  54.028  1.00  0.00     0.116 C 
BRANCH  25  26
HETATM   26  O   UNL     1       7.419  26.521  52.791  1.00  0.00    -0.380 OA
HETATM   27  H   UNL     1       8.216  25.970  52.661  1.00  0.00     0.211 HD
ENDBRANCH  25  26
BRANCH  25  28
HETATM   28  C   UNL     1       7.342  27.014  55.144  1.00  0.00    -0.019 A 
HETATM   29  C   UNL     1       8.035  28.204  54.853  1.00  0.00     0.010 A 
HETATM   30  C   UNL     1       8.508  29.040  55.870  1.00  0.00     0.001 A 
HETATM   31  C   UNL     1       8.315  28.703  57.204  1.00  0.00     0.000 A 
HETATM   32  C   UNL     1       7.648  27.528  57.526  1.00  0.00     0.001 A 
HETATM   33  C   UNL     1       7.171  26.693  56.511  1.00  0.00     0.010 A 
ENDBRANCH  25  28
BRANCH  25  34
HETATM   34  C   UNL     1       7.284  24.604  54.225  1.00  0.00    -0.019 A 
HETATM   35  C   UNL     1       6.996  23.890  55.406  1.00  0.00     0.010 A 
HETATM   36  C   UNL     1       7.421  22.569  55.587  1.00  0.00     0.001 A 
HETATM   37  C   UNL     1       8.136  21.922  54.587  1.00  0.00     0.000 A 
HETATM   38  C   UNL     1       8.428  22.593  53.406  1.00  0.00     0.001 A 
HETATM   39  C   UNL     1       8.009  23.915  53.228  1.00  0.00     0.010 A 
ENDBRANCH  25  34
ENDBRANCH   5  25
TORSDOF 8
ENDMDL
MODEL 7
REMARK VINA RESULT:      -9.4      5.641      9.294
REMARK  8 active torsions:
REMARK  status: ('A' for Active; 'I' for Inactive)
REMARK    1  A    between atoms: O_2  and  C_3 
REMARK    2  A    between atoms: C_4  and  O_5 
REMARK    3  A    between atoms: C_13  and  C_14 
REMARK    4  A    between atoms: C_14  and  N_15 
REMARK    5  A    between atoms: C_19  and  C_20 
REMARK    6  A    between atoms: C_20  and  O_21 
REMARK    7  A    between atoms: C_20  and  C_22 
REMARK    8  A    between atoms: C_20  and  C_28 
ROOT
HETATM    1  N   UNL     1       7.008  27.506  57.014  1.00  0.00    -0.064 N 
HETATM    2  H   UNL     1       6.416  27.532  57.853  1.00  0.00     0.280 HD
HETATM    3  C   UNL     1       6.064  27.240  55.856  1.00  0.00     0.236 C 
HETATM    4  C   UNL     1       5.439  25.860  55.996  1.00  0.00     0.036 C 
HETATM    5  C   UNL     1       6.478  24.717  56.092  1.00  0.00     0.033 C 
HETATM    6  C   UNL     1       7.368  25.051  57.311  1.00  0.00     0.036 C 
HETATM    7  C   UNL     1       8.029  26.419  57.241  1.00  0.00     0.236 C 
ENDROOT
BRANCH   1   8
HETATM    8  C   UNL     1       7.651  28.901  56.908  1.00  0.00     0.313 C 
BRANCH   8   9
HETATM    9  C   UNL     1       6.834  30.000  57.590  1.00  0.00     0.133 A 
HETATM   10  N   UNL     1       7.284  30.445  58.804  1.00  0.00    -0.309 N 
HETATM   11  C   UNL     1       6.768  31.550  59.430  1.00  0.00     0.259 A 
HETATM   12  H   UNL     1       8.073  30.035  59.285  1.00  0.00     0.170 HD
HETATM   13  C   UNL     1       5.604  32.173  58.781  1.00  0.00     0.064 A 
HETATM   14  O   UNL     1       7.284  32.000  60.443  1.00  0.00    -0.267 OA
HETATM   15  C   UNL     1       5.160  31.604  57.587  1.00  0.00     0.077 A 
HETATM   16  C   UNL     1       4.989  33.298  59.335  1.00  0.00     0.059 A 
HETATM   17  C   UNL     1       4.059  32.172  56.943  1.00  0.00     0.072 A 
HETATM   18  N   UNL     1       5.815  30.514  56.981  1.00  0.00    -0.233 NA
HETATM   19  C   UNL     1       3.419  33.295  57.483  1.00  0.00     0.103 A 
HETATM   20  C   UNL     1       3.896  33.871  58.681  1.00  0.00     0.102 A 
BRANCH  19  21
HETATM   21  O   UNL     1       2.346  33.922  56.901  1.00  0.00    -0.353 OA
HETATM   22  C   UNL     1       2.115  33.686  55.518  1.00  0.00     0.210 C 
ENDBRANCH  19  21
BRANCH  20  23
HETATM   23  O   UNL     1       3.223  34.980  59.125  1.00  0.00    -0.353 OA
HETATM   24  C   UNL     1       3.896  36.231  59.086  1.00  0.00     0.210 C 
ENDBRANCH  20  23
ENDBRANCH   8   9
ENDBRANCH   1   8
BRANCH   5  25
HETATM   25  C   UNL     1       7.270  24.435  54.746  1.00  0.00     0.116 C 
BRANCH  25  26
HETATM   26  O   UNL     1       8.491  25.192  54.828  1.00  0.00    -0.380 OA
HETATM   27  H   UNL     1       9.089  24.665  55.394  1.00  0.00     0.211 HD
ENDBRANCH  25  26
BRANCH  25  28
HETATM   28  C   UNL     1       7.658  22.943  54.641  1.00  0.00    -0.019 A 
HETATM   29  C   UNL     1       8.100  22.376  53.431  1.00  0.00     0.010 A 
HETATM   30  C   UNL     1       8.428  21.019  53.338  1.00  0.00     0.001 A 
HETATM   31  C   UNL     1       8.312  20.190  54.447  1.00  0.00     0.000 A 
HETATM   32  C   UNL     1       7.864  20.715  55.653  1.00  0.00     0.001 A 
HETATM   33  C   UNL     1       7.539  22.072  55.748  1.00  0.00     0.010 A 
ENDBRANCH  25  28
BRANCH  25  34
HETATM   34  C   UNL     1       6.509  24.953  53.500  1.00  0.00    -0.019 A 
HETATM   35  C   UNL     1       5.263  24.416  53.114  1.00  0.00     0.010 A 
HETATM   36  C   UNL     1       4.590  24.874  51.976  1.00  0.00     0.001 A 
HETATM   37  C   UNL     1       5.137  25.887  51.199  1.00  0.00     0.000 A 
HETATM   38  C   UNL     1       6.359  26.444  51.558  1.00  0.00     0.001 A 
HETATM   39  C   UNL     1       7.035  25.982  52.691  1.00  0.00     0.010 A 
ENDBRANCH  25  34
ENDBRANCH   5  25
TORSDOF 8
ENDMDL
MODEL 8
REMARK VINA RESULT:      -9.4      2.420      4.394
REMARK  8 active torsions:
REMARK  status: ('A' for Active; 'I' for Inactive)
REMARK    1  A    between atoms: O_2  and  C_3 
REMARK    2  A    between atoms: C_4  and  O_5 
REMARK    3  A    between atoms: C_13  and  C_14 
REMARK    4  A    between atoms: C_14  and  N_15 
REMARK    5  A    between atoms: C_19  and  C_20 
REMARK    6  A    between atoms: C_20  and  O_21 
REMARK    7  A    between atoms: C_20  and  C_22 
REMARK    8  A    between atoms: C_20  and  C_28 
ROOT
HETATM    1  N   UNL     1       5.882  27.191  51.945  1.00  0.00    -0.064 N 
HETATM    2  H   UNL     1       6.506  27.666  51.282  1.00  0.00     0.280 HD
HETATM    3  C   UNL     1       6.541  27.340  53.305  1.00  0.00     0.236 C 
HETATM    4  C   UNL     1       7.864  26.588  53.330  1.00  0.00     0.036 C 
HETATM    5  C   UNL     1       7.729  25.087  52.980  1.00  0.00     0.033 C 
HETATM    6  C   UNL     1       7.086  25.032  51.575  1.00  0.00     0.036 C 
HETATM    7  C   UNL     1       5.756  25.764  51.472  1.00  0.00     0.236 C 
ENDROOT
BRANCH   1   8
HETATM    8  C   UNL     1       4.544  27.950  51.883  1.00  0.00     0.313 C 
BRANCH   8   9
HETATM    9  C   UNL     1       4.145  28.362  50.465  1.00  0.00     0.133 A 
HETATM   10  N   UNL     1       3.141  27.646  49.870  1.00  0.00    -0.309 N 
HETATM   11  C   UNL     1       2.553  28.026  48.691  1.00  0.00     0.259 A 
HETATM   12  H   UNL     1       2.716  26.833  50.295  1.00  0.00     0.170 HD
HETATM   13  C   UNL     1       3.148  29.192  48.021  1.00  0.00     0.064 A 
HETATM   14  O   UNL     1       1.569  27.443  48.260  1.00  0.00    -0.267 OA
HETATM   15  C   UNL     1       4.223  29.814  48.659  1.00  0.00     0.077 A 
HETATM   16  C   UNL     1       2.638  29.663  46.809  1.00  0.00     0.059 A 
HETATM   17  C   UNL     1       4.810  30.925  48.052  1.00  0.00     0.072 A 
HETATM   18  N   UNL     1       4.700  29.393  49.915  1.00  0.00    -0.233 NA
HETATM   19  C   UNL     1       4.323  31.410  46.831  1.00  0.00     0.103 A 
HETATM   20  C   UNL     1       3.220  30.783  46.211  1.00  0.00     0.102 A 
BRANCH  19  21
HETATM   21  O   UNL     1       4.832  32.508  46.183  1.00  0.00    -0.353 OA
HETATM   22  C   UNL     1       5.855  33.245  46.838  1.00  0.00     0.210 C 
ENDBRANCH  19  21
BRANCH  20  23
HETATM   23  O   UNL     1       2.797  31.338  45.031  1.00  0.00    -0.353 OA
HETATM   24  C   UNL     1       1.448  31.775  44.943  1.00  0.00     0.210 C 
ENDBRANCH  20  23
ENDBRANCH   8   9
ENDBRANCH   1   8
BRANCH   5  25
HETATM   25  C   UNL     1       6.991  24.218  54.084  1.00  0.00     0.116 C 
BRANCH  25  26
HETATM   26  O   UNL     1       5.607  24.159  53.695  1.00  0.00    -0.380 OA
HETATM   27  H   UNL     1       5.111  24.588  54.420  1.00  0.00     0.211 HD
ENDBRANCH  25  26
BRANCH  25  28
HETATM   28  C   UNL     1       7.531  22.770  54.094  1.00  0.00    -0.019 A 
HETATM   29  C   UNL     1       7.931  22.121  52.911  1.00  0.00     0.010 A 
HETATM   30  C   UNL     1       8.399  20.802  52.925  1.00  0.00     0.001 A 
HETATM   31  C   UNL     1       8.467  20.093  54.118  1.00  0.00     0.000 A 
HETATM   32  C   UNL     1       8.066  20.700  55.301  1.00  0.00     0.001 A 
HETATM   33  C   UNL     1       7.601  22.018  55.289  1.00  0.00     0.010 A 
ENDBRANCH  25  28
BRANCH  25  34
HETATM   34  C   UNL     1       7.032  24.889  55.479  1.00  0.00    -0.019 A 
HETATM   35  C   UNL     1       8.247  25.121  56.157  1.00  0.00     0.010 A 
HETATM   36  C   UNL     1       8.276  25.710  57.427  1.00  0.00     0.001 A 
HETATM   37  C   UNL     1       7.094  26.092  58.048  1.00  0.00     0.000 A 
HETATM   38  C   UNL     1       5.880  25.886  57.403  1.00  0.00     0.001 A 
HETATM   39  C   UNL     1       5.850  25.293  56.137  1.00  0.00     0.010 A 
ENDBRANCH  25  34
ENDBRANCH   5  25
TORSDOF 8
ENDMDL
MODEL 9
REMARK VINA RESULT:      -9.1      6.255     11.710
REMARK  8 active torsions:
REMARK  status: ('A' for Active; 'I' for Inactive)
REMARK    1  A    between atoms: O_2  and  C_3 
REMARK    2  A    between atoms: C_4  and  O_5 
REMARK    3  A    between atoms: C_13  and  C_14 
REMARK    4  A    between atoms: C_14  and  N_15 
REMARK    5  A    between atoms: C_19  and  C_20 
REMARK    6  A    between atoms: C_20  and  O_21 
REMARK    7  A    between atoms: C_20  and  C_22 
REMARK    8  A    between atoms: C_20  and  C_28 
ROOT
HETATM    1  N   UNL     1       6.953  29.368  58.002  1.00  0.00    -0.064 N 
HETATM    2  H   UNL     1       6.707  29.036  58.942  1.00  0.00     0.280 HD
HETATM    3  C   UNL     1       5.693  29.212  57.170  1.00  0.00     0.236 C 
HETATM    4  C   UNL     1       5.333  27.739  57.036  1.00  0.00     0.036 C 
HETATM    5  C   UNL     1       6.467  26.878  56.429  1.00  0.00     0.033 C 
HETATM    6  C   UNL     1       7.691  27.070  57.353  1.00  0.00     0.036 C 
HETATM    7  C   UNL     1       8.111  28.521  57.536  1.00  0.00     0.236 C 
ENDROOT
BRANCH   1   8
HETATM    8  C   UNL     1       7.339  30.850  58.166  1.00  0.00     0.313 C 
BRANCH   8   9
HETATM    9  C   UNL     1       6.471  31.595  59.181  1.00  0.00     0.133 A 
HETATM   10  N   UNL     1       5.228  31.989  58.765  1.00  0.00    -0.309 N 
HETATM   11  C   UNL     1       4.279  32.487  59.621  1.00  0.00     0.259 A 
HETATM   12  H   UNL     1       4.900  31.870  57.816  1.00  0.00     0.170 HD
HETATM   13  C   UNL     1       4.713  32.697  61.010  1.00  0.00     0.064 A 
HETATM   14  O   UNL     1       3.136  32.697  59.242  1.00  0.00    -0.267 OA
HETATM   15  C   UNL     1       6.025  32.344  61.329  1.00  0.00     0.077 A 
HETATM   16  C   UNL     1       3.834  33.209  61.968  1.00  0.00     0.059 A 
HETATM   17  C   UNL     1       6.467  32.528  62.640  1.00  0.00     0.072 A 
HETATM   18  N   UNL     1       6.897  31.760  60.391  1.00  0.00    -0.233 NA
HETATM   19  C   UNL     1       5.608  33.050  63.616  1.00  0.00     0.103 A 
HETATM   20  C   UNL     1       4.277  33.380  63.281  1.00  0.00     0.102 A 
BRANCH  19  21
HETATM   21  O   UNL     1       5.963  33.241  64.929  1.00  0.00    -0.353 OA
HETATM   22  C   UNL     1       7.258  33.763  65.193  1.00  0.00     0.210 C 
ENDBRANCH  19  21
BRANCH  20  23
HETATM   23  O   UNL     1       3.501  33.863  64.303  1.00  0.00    -0.353 OA
HETATM   24  C   UNL     1       3.577  35.250  64.601  1.00  0.00     0.210 C 
ENDBRANCH  20  23
ENDBRANCH   8   9
ENDBRANCH   1   8
BRANCH   5  25
HETATM   25  C   UNL     1       6.746  27.151  54.890  1.00  0.00     0.116 C 
BRANCH  25  26
HETATM   26  O   UNL     1       7.861  28.058  54.835  1.00  0.00    -0.380 OA
HETATM   27  H   UNL     1       8.116  28.104  53.893  1.00  0.00     0.211 HD
ENDBRANCH  25  26
BRANCH  25  28
HETATM   28  C   UNL     1       7.173  25.850  54.172  1.00  0.00    -0.019 A 
HETATM   29  C   UNL     1       7.698  25.862  52.867  1.00  0.00     0.010 A 
HETATM   30  C   UNL     1       8.061  24.679  52.215  1.00  0.00     0.001 A 
HETATM   31  C   UNL     1       7.899  23.451  52.845  1.00  0.00     0.000 A 
HETATM   32  C   UNL     1       7.370  23.403  54.128  1.00  0.00     0.001 A 
HETATM   33  C   UNL     1       7.008  24.585  54.782  1.00  0.00     0.010 A 
ENDBRANCH  25  28
BRANCH  25  34
HETATM   34  C   UNL     1       5.558  27.863  54.198  1.00  0.00    -0.019 A 
HETATM   35  C   UNL     1       4.469  27.144  53.663  1.00  0.00     0.010 A 
HETATM   36  C   UNL     1       3.408  27.791  53.021  1.00  0.00     0.001 A 
HETATM   37  C   UNL     1       3.401  29.176  52.905  1.00  0.00     0.000 A 
HETATM   38  C   UNL     1       4.454  29.915  53.430  1.00  0.00     0.001 A 
HETATM   39  C   UNL     1       5.517  29.267  54.066  1.00  0.00     0.010 A 
ENDBRANCH  25  34
ENDBRANCH   5  25
TORSDOF 8
ENDMDL
MODEL 10
REMARK VINA RESULT:      -9.0      5.092     10.859
REMARK  8 active torsions:
REMARK  status: ('A' for Active; 'I' for Inactive)
REMARK    1  A    between atoms: O_2  and  C_3 
REMARK    2  A    between atoms: C_4  and  O_5 
REMARK    3  A    between atoms: C_13  and  C_14 
REMARK    4  A    between atoms: C_14  and  N_15 
REMARK    5  A    between atoms: C_19  and  C_20 
REMARK    6  A    between atoms: C_20  and  O_21 
REMARK    7  A    between atoms: C_20  and  C_22 
REMARK    8  A    between atoms: C_20  and  C_28 
ROOT
HETATM    1  N   UNL     1       4.466  30.225  55.274  1.00  0.00    -0.064 N 
HETATM    2  H   UNL     1       3.595  30.139  55.812  1.00  0.00     0.280 HD
HETATM    3  C   UNL     1       4.064  30.070  53.818  1.00  0.00     0.236 C 
HETATM    4  C   UNL     1       3.530  28.667  53.569  1.00  0.00     0.036 C 
HETATM    5  C   UNL     1       4.527  27.548  53.954  1.00  0.00     0.033 C 
HETATM    6  C   UNL     1       4.851  27.761  55.450  1.00  0.00     0.036 C 
HETATM    7  C   UNL     1       5.392  29.145  55.778  1.00  0.00     0.236 C 
ENDROOT
BRANCH   1   8
HETATM    8  C   UNL     1       5.002  31.639  55.562  1.00  0.00     0.313 C 
BRANCH   8   9
HETATM    9  C   UNL     1       5.111  31.955  57.055  1.00  0.00     0.133 A 
HETATM   10  N   UNL     1       3.957  32.312  57.699  1.00  0.00    -0.309 N 
HETATM   11  C   UNL     1       3.871  32.430  59.063  1.00  0.00     0.259 A 
HETATM   12  H   UNL     1       3.074  32.438  57.223  1.00  0.00     0.170 HD
HETATM   13  C   UNL     1       5.133  32.273  59.803  1.00  0.00     0.064 A 
HETATM   14  O   UNL     1       2.796  32.612  59.615  1.00  0.00    -0.267 OA
HETATM   15  C   UNL     1       6.279  31.992  59.057  1.00  0.00     0.077 A 
HETATM   16  C   UNL     1       5.168  32.384  61.195  1.00  0.00     0.059 A 
HETATM   17  C   UNL     1       7.492  31.835  59.729  1.00  0.00     0.072 A 
HETATM   18  N   UNL     1       6.243  31.807  57.662  1.00  0.00    -0.233 NA
HETATM   19  C   UNL     1       7.555  31.950  61.123  1.00  0.00     0.103 A 
HETATM   20  C   UNL     1       6.382  32.213  61.864  1.00  0.00     0.102 A 
BRANCH  19  21
HETATM   21  O   UNL     1       8.705  31.790  61.856  1.00  0.00    -0.353 OA
HETATM   22  C   UNL     1       9.322  30.509  61.842  1.00  0.00     0.210 C 
ENDBRANCH  19  21
BRANCH  20  23
HETATM   23  O   UNL     1       6.534  32.288  63.224  1.00  0.00    -0.353 OA
HETATM   24  C   UNL     1       6.353  33.552  63.848  1.00  0.00     0.210 C 
ENDBRANCH  20  23
ENDBRANCH   8   9
ENDBRANCH   1   8
BRANCH   5  25
HETATM   25  C   UNL     1       5.796  27.444  53.006  1.00  0.00     0.116 C 
BRANCH  25  26
HETATM   26  O   UNL     1       6.698  28.485  53.421  1.00  0.00    -0.380 OA
HETATM   27  H   UNL     1       6.390  28.763  54.306  1.00  0.00     0.211 HD
ENDBRANCH  25  26
BRANCH  25  28
HETATM   28  C   UNL     1       6.522  26.095  53.210  1.00  0.00    -0.019 A 
HETATM   29  C   UNL     1       7.553  25.671  52.351  1.00  0.00     0.010 A 
HETATM   30  C   UNL     1       8.191  24.439  52.529  1.00  0.00     0.001 A 
HETATM   31  C   UNL     1       7.808  23.592  53.561  1.00  0.00     0.000 A 
HETATM   32  C   UNL     1       6.784  23.973  54.418  1.00  0.00     0.001 A 
HETATM   33  C   UNL     1       6.147  25.206  54.243  1.00  0.00     0.010 A 
ENDBRANCH  25  28
BRANCH  25  34
HETATM   34  C   UNL     1       5.443  27.724  51.524  1.00  0.00    -0.019 A 
HETATM   35  C   UNL     1       4.826  26.752  50.710  1.00  0.00     0.010 A 
HETATM   36  C   UNL     1       4.528  27.004  49.366  1.00  0.00     0.001 A 
HETATM   37  C   UNL     1       4.829  28.238  48.803  1.00  0.00     0.000 A 
HETATM   38  C   UNL     1       5.428  29.221  49.581  1.00  0.00     0.001 A 
HETATM   39  C   UNL     1       5.731  28.967  50.922  1.00  0.00     0.010 A 
ENDBRANCH  25  34
ENDBRANCH   5  25
TORSDOF 8
ENDMDL
