MODEL 1
REMARK VINA RESULT:     -10.2      0.000      0.000
REMARK  8 active torsions:
REMARK  status: ('A' for Active; 'I' for Inactive)
REMARK    1  A    between atoms: O_2  and  C_3 
REMARK    2  A    between atoms: C_5  and  O_6 
REMARK    3  A    between atoms: C_8  and  C_9 
REMARK    4  A    between atoms: N_10  and  C_12 
REMARK    5  A    between atoms: C_12  and  C_13 
REMARK       I    between atoms: C_13  and  N_14 
REMARK    6  A    between atoms: N_14  and  C_15 
REMARK    7  A    between atoms: C_16  and  C_17 
REMARK    8  A    between atoms: C_17  and  C_18 
ROOT
HETATM    1  C   UNL     1       5.711  27.275  56.845  1.00  0.00     0.338 C 
ENDROOT
BRANCH   1   2
HETATM    2  N   UNL     1       5.810  26.774  55.408  1.00  0.00    -0.054 N 
HETATM    3  C   UNL     1       7.255  26.470  54.950  1.00  0.00     0.224 C 
HETATM    4  C   UNL     1       7.547  27.617  53.979  1.00  0.00     0.040 C 
HETATM    5  C   UNL     1       6.220  27.850  53.288  1.00  0.00     0.030 C 
HETATM    6  C   UNL     1       5.217  27.756  54.417  1.00  0.00     0.236 C 
HETATM    7  H   UNL     1       5.296  25.892  55.375  1.00  0.00     0.281 HD
BRANCH   3   8
HETATM    8  C   UNL     1       7.446  25.105  54.299  1.00  0.00     0.006 A 
HETATM    9  C   UNL     1       7.480  23.965  55.132  1.00  0.00     0.079 A 
HETATM   10  C   UNL     1       7.633  22.689  54.579  1.00  0.00     0.074 A 
HETATM   11  C   UNL     1       7.786  22.516  53.203  1.00  0.00     0.070 A 
HETATM   12  C   UNL     1       7.806  23.633  52.376  1.00  0.00     0.037 A 
HETATM   13  C   UNL     1       7.646  24.916  52.917  1.00  0.00     0.015 A 
BRANCH   9  14
HETATM   14  O   UNL     1       7.356  24.212  56.476  1.00  0.00    -0.355 OA
HETATM   15  C   UNL     1       8.444  23.805  57.306  1.00  0.00     0.210 C 
ENDBRANCH   9  14
BRANCH  11  16
HETATM   16  O   UNL     1       7.927  21.219  52.803  1.00  0.00    -0.356 OA
HETATM   17  C   UNL     1       8.670  20.349  53.649  1.00  0.00     0.210 C 
ENDBRANCH  11  16
ENDBRANCH   3   8
ENDBRANCH   1   2
BRANCH   1  18
HETATM   18  C   UNL     1       7.033  27.813  57.395  1.00  0.00     0.248 C 
HETATM   19  N   UNL     1       7.295  29.128  57.031  1.00  0.00    -0.325 N 
HETATM   20  H   UNL     1       6.502  29.727  56.845  1.00  0.00     0.169 HD
HETATM   21  O   UNL     1       7.713  27.124  58.147  1.00  0.00    -0.271 OA
BRANCH  19  22
HETATM   22  C   UNL     1       8.456  29.816  57.456  1.00  0.00     0.041 A 
HETATM   23  C   UNL     1       8.444  30.937  58.308  1.00  0.00    -0.027 A 
HETATM   24  C   UNL     1       9.674  31.565  58.600  1.00  0.00     0.010 A 
HETATM   25  C   UNL     1      10.880  31.072  58.103  1.00  0.00     0.001 A 
HETATM   26  C   UNL     1      10.884  29.924  57.321  1.00  0.00     0.002 A 
HETATM   27  C   UNL     1       9.681  29.292  57.009  1.00  0.00     0.030 A 
BRANCH  23  28
HETATM   28  C   UNL     1       7.228  31.417  59.076  1.00  0.00     0.079 C 
BRANCH  28  29
HETATM   29  C   UNL     1       7.530  31.714  60.533  1.00  0.00    -0.054 A 
HETATM   30  C   UNL     1       8.300  30.825  61.297  1.00  0.00     0.007 A 
HETATM   31  C   UNL     1       8.553  31.084  62.646  1.00  0.00     0.001 A 
HETATM   32  C   UNL     1       8.040  32.233  63.245  1.00  0.00     0.000 A 
HETATM   33  C   UNL     1       7.274  33.124  62.497  1.00  0.00     0.001 A 
HETATM   34  C   UNL     1       7.018  32.866  61.149  1.00  0.00     0.007 A 
ENDBRANCH  28  29
ENDBRANCH  23  28
ENDBRANCH  19  22
ENDBRANCH   1  18
TORSDOF 8
ENDMDL
MODEL 2
REMARK VINA RESULT:      -9.5      5.242      9.439
REMARK  8 active torsions:
REMARK  status: ('A' for Active; 'I' for Inactive)
REMARK    1  A    between atoms: O_2  and  C_3 
REMARK    2  A    between atoms: C_5  and  O_6 
REMARK    3  A    between atoms: C_8  and  C_9 
REMARK    4  A    between atoms: N_10  and  C_12 
REMARK    5  A    between atoms: C_12  and  C_13 
REMARK       I    between atoms: C_13  and  N_14 
REMARK    6  A    between atoms: N_14  and  C_15 
REMARK    7  A    between atoms: C_16  and  C_17 
REMARK    8  A    between atoms: C_17  and  C_18 
ROOT
HETATM    1  C   UNL     1       5.349  26.474  50.659  1.00  0.00     0.338 C 
ENDROOT
BRANCH   1   2
HETATM    2  N   UNL     1       4.166  27.409  50.430  1.00  0.00    -0.054 N 
HETATM    3  C   UNL     1       4.236  28.192  49.099  1.00  0.00     0.224 C 
HETATM    4  C   UNL     1       4.553  29.616  49.565  1.00  0.00     0.040 C 
HETATM    5  C   UNL     1       3.780  29.751  50.859  1.00  0.00     0.030 C 
HETATM    6  C   UNL     1       4.014  28.423  51.547  1.00  0.00     0.236 C 
HETATM    7  H   UNL     1       3.336  26.815  50.383  1.00  0.00     0.281 HD
BRANCH   3   8
HETATM    8  C   UNL     1       2.968  28.134  48.255  1.00  0.00     0.006 A 
HETATM    9  C   UNL     1       2.656  26.923  47.598  1.00  0.00     0.079 A 
HETATM   10  C   UNL     1       1.494  26.815  46.828  1.00  0.00     0.074 A 
HETATM   11  C   UNL     1       0.635  27.903  46.667  1.00  0.00     0.070 A 
HETATM   12  C   UNL     1       0.956  29.116  47.266  1.00  0.00     0.037 A 
HETATM   13  C   UNL     1       2.114  29.235  48.045  1.00  0.00     0.015 A 
BRANCH   9  14
HETATM   14  O   UNL     1       3.560  25.906  47.774  1.00  0.00    -0.355 OA
HETATM   15  C   UNL     1       3.025  24.610  48.043  1.00  0.00     0.210 C 
ENDBRANCH   9  14
BRANCH  11  16
HETATM   16  O   UNL     1      -0.460  27.656  45.890  1.00  0.00    -0.356 OA
HETATM   17  C   UNL     1      -1.437  28.685  45.788  1.00  0.00     0.210 C 
ENDBRANCH  11  16
ENDBRANCH   3   8
ENDBRANCH   1   2
BRANCH   1  18
HETATM   18  C   UNL     1       5.319  25.774  52.018  1.00  0.00     0.248 C 
HETATM   19  N   UNL     1       6.077  26.413  52.992  1.00  0.00    -0.325 N 
HETATM   20  H   UNL     1       6.209  27.411  52.900  1.00  0.00     0.169 HD
HETATM   21  O   UNL     1       4.608  24.790  52.189  1.00  0.00    -0.271 OA
BRANCH  19  22
HETATM   22  C   UNL     1       6.162  25.936  54.322  1.00  0.00     0.041 A 
HETATM   23  C   UNL     1       7.018  24.900  54.738  1.00  0.00    -0.027 A 
HETATM   24  C   UNL     1       6.954  24.482  56.084  1.00  0.00     0.010 A 
HETATM   25  C   UNL     1       6.104  25.102  56.999  1.00  0.00     0.001 A 
HETATM   26  C   UNL     1       5.316  26.170  56.592  1.00  0.00     0.002 A 
HETATM   27  C   UNL     1       5.353  26.594  55.265  1.00  0.00     0.030 A 
BRANCH  23  28
HETATM   28  C   UNL     1       8.129  24.312  53.888  1.00  0.00     0.079 C 
BRANCH  28  29
HETATM   29  C   UNL     1       8.303  22.820  54.095  1.00  0.00    -0.054 A 
HETATM   30  C   UNL     1       8.996  22.330  55.212  1.00  0.00     0.007 A 
HETATM   31  C   UNL     1       9.181  20.957  55.385  1.00  0.00     0.001 A 
HETATM   32  C   UNL     1       8.677  20.059  54.447  1.00  0.00     0.000 A 
HETATM   33  C   UNL     1       7.987  20.532  53.333  1.00  0.00     0.001 A 
HETATM   34  C   UNL     1       7.802  21.905  53.156  1.00  0.00     0.007 A 
ENDBRANCH  28  29
ENDBRANCH  23  28
ENDBRANCH  19  22
ENDBRANCH   1  18
TORSDOF 8
ENDMDL
MODEL 3
REMARK VINA RESULT:      -9.4      2.173      3.754
REMARK  8 active torsions:
REMARK  status: ('A' for Active; 'I' for Inactive)
REMARK    1  A    between atoms: O_2  and  C_3 
REMARK    2  A    between atoms: C_5  and  O_6 
REMARK    3  A    between atoms: C_8  and  C_9 
REMARK    4  A    between atoms: N_10  and  C_12 
REMARK    5  A    between atoms: C_12  and  C_13 
REMARK       I    between atoms: C_13  and  N_14 
REMARK    6  A    between atoms: N_14  and  C_15 
REMARK    7  A    between atoms: C_16  and  C_17 
REMARK    8  A    between atoms: C_17  and  C_18 
ROOT
HETATM    1  C   UNL     1       6.292  28.043  53.701  1.00  0.00     0.338 C 
ENDROOT
BRANCH   1   2
HETATM    2  N   UNL     1       5.948  26.561  53.590  1.00  0.00    -0.054 N 
HETATM    3  C   UNL     1       7.110  25.687  53.066  1.00  0.00     0.224 C 
HETATM    4  C   UNL     1       6.647  25.328  51.651  1.00  0.00     0.040 C 
HETATM    5  C   UNL     1       5.149  25.162  51.794  1.00  0.00     0.030 C 
HETATM    6  C   UNL     1       4.754  26.317  52.689  1.00  0.00     0.236 C 
HETATM    7  H   UNL     1       5.741  26.242  54.538  1.00  0.00     0.281 HD
BRANCH   3   8
HETATM    8  C   UNL     1       7.408  24.448  53.903  1.00  0.00     0.006 A 
HETATM    9  C   UNL     1       7.657  24.618  55.283  1.00  0.00     0.079 A 
HETATM   10  C   UNL     1       7.915  23.510  56.097  1.00  0.00     0.074 A 
HETATM   11  C   UNL     1       7.964  22.222  55.562  1.00  0.00     0.070 A 
HETATM   12  C   UNL     1       7.772  22.046  54.197  1.00  0.00     0.037 A 
HETATM   13  C   UNL     1       7.505  23.147  53.372  1.00  0.00     0.015 A 
BRANCH   9  14
HETATM   14  O   UNL     1       7.625  25.914  55.734  1.00  0.00    -0.355 OA
HETATM   15  C   UNL     1       7.133  26.121  57.058  1.00  0.00     0.210 C 
ENDBRANCH   9  14
BRANCH  11  16
HETATM   16  O   UNL     1       8.226  21.237  56.470  1.00  0.00    -0.356 OA
HETATM   17  C   UNL     1       9.277  20.328  56.165  1.00  0.00     0.210 C 
ENDBRANCH  11  16
ENDBRANCH   3   8
ENDBRANCH   1   2
BRANCH   1  18
HETATM   18  C   UNL     1       5.606  28.741  54.876  1.00  0.00     0.248 C 
HETATM   19  N   UNL     1       6.205  29.941  55.238  1.00  0.00    -0.325 N 
HETATM   20  H   UNL     1       6.699  30.452  54.519  1.00  0.00     0.169 HD
HETATM   21  O   UNL     1       4.581  28.273  55.358  1.00  0.00    -0.271 OA
BRANCH  19  22
HETATM   22  C   UNL     1       5.708  30.751  56.288  1.00  0.00     0.041 A 
HETATM   23  C   UNL     1       5.943  30.507  57.654  1.00  0.00    -0.027 A 
HETATM   24  C   UNL     1       5.333  31.361  58.598  1.00  0.00     0.010 A 
HETATM   25  C   UNL     1       4.555  32.447  58.201  1.00  0.00     0.001 A 
HETATM   26  C   UNL     1       4.389  32.718  56.850  1.00  0.00     0.002 A 
HETATM   27  C   UNL     1       4.972  31.883  55.898  1.00  0.00     0.030 A 
BRANCH  23  28
HETATM   28  C   UNL     1       6.944  29.498  58.186  1.00  0.00     0.079 C 
BRANCH  28  29
HETATM   29  C   UNL     1       8.383  29.904  57.928  1.00  0.00    -0.054 A 
HETATM   30  C   UNL     1       9.199  29.140  57.081  1.00  0.00     0.007 A 
HETATM   31  C   UNL     1      10.532  29.498  56.868  1.00  0.00     0.001 A 
HETATM   32  C   UNL     1      11.064  30.621  57.499  1.00  0.00     0.000 A 
HETATM   33  C   UNL     1      10.264  31.388  58.342  1.00  0.00     0.001 A 
HETATM   34  C   UNL     1       8.932  31.031  58.558  1.00  0.00     0.007 A 
ENDBRANCH  28  29
ENDBRANCH  23  28
ENDBRANCH  19  22
ENDBRANCH   1  18
TORSDOF 8
ENDMDL
MODEL 4
REMARK VINA RESULT:      -9.4      2.244      9.524
REMARK  8 active torsions:
REMARK  status: ('A' for Active; 'I' for Inactive)
REMARK    1  A    between atoms: O_2  and  C_3 
REMARK    2  A    between atoms: C_5  and  O_6 
REMARK    3  A    between atoms: C_8  and  C_9 
REMARK    4  A    between atoms: N_10  and  C_12 
REMARK    5  A    between atoms: C_12  and  C_13 
REMARK       I    between atoms: C_13  and  N_14 
REMARK    6  A    between atoms: N_14  and  C_15 
REMARK    7  A    between atoms: C_16  and  C_17 
REMARK    8  A    between atoms: C_17  and  C_18 
ROOT
HETATM    1  C   UNL     1       5.849  28.399  57.205  1.00  0.00     0.338 C 
ENDROOT
BRANCH   1   2
HETATM    2  N   UNL     1       7.143  28.710  57.951  1.00  0.00    -0.054 N 
HETATM    3  C   UNL     1       7.528  30.206  57.938  1.00  0.00     0.224 C 
HETATM    4  C   UNL     1       8.726  30.235  56.985  1.00  0.00     0.040 C 
HETATM    5  C   UNL     1       9.447  28.936  57.274  1.00  0.00     0.030 C 
HETATM    6  C   UNL     1       8.322  27.932  57.399  1.00  0.00     0.236 C 
HETATM    7  H   UNL     1       6.981  28.453  58.926  1.00  0.00     0.281 HD
BRANCH   3   8
HETATM    8  C   UNL     1       7.868  30.792  59.304  1.00  0.00     0.006 A 
HETATM    9  C   UNL     1       7.256  32.008  59.681  1.00  0.00     0.079 A 
HETATM   10  C   UNL     1       7.520  32.575  60.932  1.00  0.00     0.074 A 
HETATM   11  C   UNL     1       8.413  31.972  61.819  1.00  0.00     0.070 A 
HETATM   12  C   UNL     1       9.061  30.802  61.440  1.00  0.00     0.037 A 
HETATM   13  C   UNL     1       8.800  30.221  60.193  1.00  0.00     0.015 A 
BRANCH   9  14
HETATM   14  O   UNL     1       6.416  32.561  58.748  1.00  0.00    -0.355 OA
HETATM   15  C   UNL     1       5.167  33.062  59.224  1.00  0.00     0.210 C 
ENDBRANCH   9  14
BRANCH  11  16
HETATM   16  O   UNL     1       8.576  32.633  63.002  1.00  0.00    -0.356 OA
HETATM   17  C   UNL     1       7.422  32.817  63.814  1.00  0.00     0.210 C 
ENDBRANCH  11  16
ENDBRANCH   3   8
ENDBRANCH   1   2
BRANCH   1  18
HETATM   18  C   UNL     1       6.058  28.100  55.720  1.00  0.00     0.248 C 
HETATM   19  N   UNL     1       5.812  26.777  55.378  1.00  0.00    -0.325 N 
HETATM   20  H   UNL     1       5.152  26.262  55.945  1.00  0.00     0.169 HD
HETATM   21  O   UNL     1       6.339  29.006  54.943  1.00  0.00    -0.271 OA
BRANCH  19  22
HETATM   22  C   UNL     1       5.928  26.302  54.049  1.00  0.00     0.041 A 
HETATM   23  C   UNL     1       6.983  25.493  53.587  1.00  0.00    -0.027 A 
HETATM   24  C   UNL     1       7.006  25.145  52.219  1.00  0.00     0.010 A 
HETATM   25  C   UNL     1       5.993  25.545  51.349  1.00  0.00     0.001 A 
HETATM   26  C   UNL     1       4.922  26.284  51.832  1.00  0.00     0.002 A 
HETATM   27  C   UNL     1       4.882  26.651  53.177  1.00  0.00     0.030 A 
BRANCH  23  28
HETATM   28  C   UNL     1       8.006  24.822  54.484  1.00  0.00     0.079 C 
BRANCH  28  29
HETATM   29  C   UNL     1       7.949  23.308  54.413  1.00  0.00    -0.054 A 
HETATM   30  C   UNL     1       7.605  22.553  55.544  1.00  0.00     0.007 A 
HETATM   31  C   UNL     1       7.583  21.158  55.485  1.00  0.00     0.001 A 
HETATM   32  C   UNL     1       7.903  20.502  54.298  1.00  0.00     0.000 A 
HETATM   33  C   UNL     1       8.245  21.240  53.168  1.00  0.00     0.001 A 
HETATM   34  C   UNL     1       8.271  22.635  53.224  1.00  0.00     0.007 A 
ENDBRANCH  28  29
ENDBRANCH  23  28
ENDBRANCH  19  22
ENDBRANCH   1  18
TORSDOF 8
ENDMDL
MODEL 5
REMARK VINA RESULT:      -9.1      2.731      9.858
REMARK  8 active torsions:
REMARK  status: ('A' for Active; 'I' for Inactive)
REMARK    1  A    between atoms: O_2  and  C_3 
REMARK    2  A    between atoms: C_5  and  O_6 
REMARK    3  A    between atoms: C_8  and  C_9 
REMARK    4  A    between atoms: N_10  and  C_12 
REMARK    5  A    between atoms: C_12  and  C_13 
REMARK       I    between atoms: C_13  and  N_14 
REMARK    6  A    between atoms: N_14  and  C_15 
REMARK    7  A    between atoms: C_16  and  C_17 
REMARK    8  A    between atoms: C_17  and  C_18 
ROOT
HETATM    1  C   UNL     1       6.836  31.340  57.703  1.00  0.00     0.338 C 
ENDROOT
BRANCH   1   2
HETATM    2  N   UNL     1       7.165  31.044  59.163  1.00  0.00    -0.054 N 
HETATM    3  C   UNL     1       7.562  32.295  59.980  1.00  0.00     0.224 C 
HETATM    4  C   UNL     1       9.067  32.098  60.183  1.00  0.00     0.040 C 
HETATM    5  C   UNL     1       9.213  30.602  60.358  1.00  0.00     0.030 C 
HETATM    6  C   UNL     1       8.287  30.035  59.304  1.00  0.00     0.236 C 
HETATM    7  H   UNL     1       6.309  30.676  59.581  1.00  0.00     0.281 HD
BRANCH   3   8
HETATM    8  C   UNL     1       6.821  32.458  61.303  1.00  0.00     0.006 A 
HETATM    9  C   UNL     1       5.411  32.531  61.275  1.00  0.00     0.079 A 
HETATM   10  C   UNL     1       4.686  32.660  62.464  1.00  0.00     0.074 A 
HETATM   11  C   UNL     1       5.336  32.749  63.695  1.00  0.00     0.070 A 
HETATM   12  C   UNL     1       6.725  32.730  63.733  1.00  0.00     0.037 A 
HETATM   13  C   UNL     1       7.463  32.594  62.549  1.00  0.00     0.015 A 
BRANCH   9  14
HETATM   14  O   UNL     1       4.841  32.469  60.028  1.00  0.00    -0.355 OA
HETATM   15  C   UNL     1       3.555  31.856  59.940  1.00  0.00     0.210 C 
ENDBRANCH   9  14
BRANCH  11  16
HETATM   16  O   UNL     1       4.505  32.873  64.771  1.00  0.00    -0.356 OA
HETATM   17  C   UNL     1       4.856  33.830  65.763  1.00  0.00     0.210 C 
ENDBRANCH  11  16
ENDBRANCH   3   8
ENDBRANCH   1   2
BRANCH   1  18
HETATM   18  C   UNL     1       5.997  30.250  57.035  1.00  0.00     0.248 C 
HETATM   19  N   UNL     1       6.102  30.236  55.650  1.00  0.00    -0.325 N 
HETATM   20  H   UNL     1       6.960  30.584  55.243  1.00  0.00     0.169 HD
HETATM   21  O   UNL     1       5.374  29.445  57.719  1.00  0.00    -0.271 OA
BRANCH  19  22
HETATM   22  C   UNL     1       5.421  29.290  54.846  1.00  0.00     0.041 A 
HETATM   23  C   UNL     1       5.975  28.068  54.421  1.00  0.00    -0.027 A 
HETATM   24  C   UNL     1       5.204  27.248  53.569  1.00  0.00     0.010 A 
HETATM   25  C   UNL     1       3.911  27.604  53.189  1.00  0.00     0.001 A 
HETATM   26  C   UNL     1       3.351  28.779  53.672  1.00  0.00     0.002 A 
HETATM   27  C   UNL     1       4.095  29.612  54.506  1.00  0.00     0.030 A 
BRANCH  23  28
HETATM   28  C   UNL     1       7.271  27.484  54.949  1.00  0.00     0.079 C 
BRANCH  28  29
HETATM   29  C   UNL     1       7.377  25.987  54.728  1.00  0.00    -0.054 A 
HETATM   30  C   UNL     1       7.777  25.476  53.484  1.00  0.00     0.007 A 
HETATM   31  C   UNL     1       7.844  24.098  53.272  1.00  0.00     0.001 A 
HETATM   32  C   UNL     1       7.513  23.215  54.299  1.00  0.00     0.000 A 
HETATM   33  C   UNL     1       7.114  23.710  55.538  1.00  0.00     0.001 A 
HETATM   34  C   UNL     1       7.044  25.088  55.752  1.00  0.00     0.007 A 
ENDBRANCH  28  29
ENDBRANCH  23  28
ENDBRANCH  19  22
ENDBRANCH   1  18
TORSDOF 8
ENDMDL
MODEL 6
REMARK VINA RESULT:      -9.0      2.374      4.177
REMARK  8 active torsions:
REMARK  status: ('A' for Active; 'I' for Inactive)
REMARK    1  A    between atoms: O_2  and  C_3 
REMARK    2  A    between atoms: C_5  and  O_6 
REMARK    3  A    between atoms: C_8  and  C_9 
REMARK    4  A    between atoms: N_10  and  C_12 
REMARK    5  A    between atoms: C_12  and  C_13 
REMARK       I    between atoms: C_13  and  N_14 
REMARK    6  A    between atoms: N_14  and  C_15 
REMARK    7  A    between atoms: C_16  and  C_17 
REMARK    8  A    between atoms: C_17  and  C_18 
ROOT
HETATM    1  C   UNL     1       6.343  26.705  56.427  1.00  0.00     0.338 C 
ENDROOT
BRANCH   1   2
HETATM    2  N   UNL     1       6.650  26.376  54.969  1.00  0.00    -0.054 N 
HETATM    3  C   UNL     1       5.391  26.191  54.092  1.00  0.00     0.224 C 
HETATM    4  C   UNL     1       5.373  24.679  53.847  1.00  0.00     0.040 C 
HETATM    5  C   UNL     1       6.838  24.318  53.725  1.00  0.00     0.030 C 
HETATM    6  C   UNL     1       7.489  25.121  54.830  1.00  0.00     0.236 C 
HETATM    7  H   UNL     1       7.158  27.179  54.595  1.00  0.00     0.281 HD
BRANCH   3   8
HETATM    8  C   UNL     1       5.396  26.983  52.789  1.00  0.00     0.006 A 
HETATM    9  C   UNL     1       5.564  28.383  52.860  1.00  0.00     0.079 A 
HETATM   10  C   UNL     1       5.596  29.151  51.691  1.00  0.00     0.074 A 
HETATM   11  C   UNL     1       5.433  28.559  50.438  1.00  0.00     0.070 A 
HETATM   12  C   UNL     1       5.216  27.188  50.358  1.00  0.00     0.037 A 
HETATM   13  C   UNL     1       5.189  26.408  51.521  1.00  0.00     0.015 A 
BRANCH   9  14
HETATM   14  O   UNL     1       5.686  28.902  54.124  1.00  0.00    -0.355 OA
HETATM   15  C   UNL     1       4.643  29.772  54.565  1.00  0.00     0.210 C 
ENDBRANCH   9  14
BRANCH  11  16
HETATM   16  O   UNL     1       5.485  29.427  49.385  1.00  0.00    -0.356 OA
HETATM   17  C   UNL     1       5.343  30.813  49.672  1.00  0.00     0.210 C 
ENDBRANCH  11  16
ENDBRANCH   3   8
ENDBRANCH   1   2
BRANCH   1  18
HETATM   18  C   UNL     1       7.495  27.405  57.149  1.00  0.00     0.248 C 
HETATM   19  N   UNL     1       7.847  28.625  56.585  1.00  0.00    -0.325 N 
HETATM   20  H   UNL     1       7.129  29.135  56.091  1.00  0.00     0.169 HD
HETATM   21  O   UNL     1       7.967  26.921  58.172  1.00  0.00    -0.271 OA
BRANCH  19  22
HETATM   22  C   UNL     1       8.875  29.439  57.118  1.00  0.00     0.041 A 
HETATM   23  C   UNL     1       8.662  30.480  58.041  1.00  0.00    -0.027 A 
HETATM   24  C   UNL     1       9.772  31.254  58.441  1.00  0.00     0.010 A 
HETATM   25  C   UNL     1      11.058  30.977  57.978  1.00  0.00     0.001 A 
HETATM   26  C   UNL     1      11.265  29.904  57.122  1.00  0.00     0.002 A 
HETATM   27  C   UNL     1      10.183  29.131  56.704  1.00  0.00     0.030 A 
BRANCH  23  28
HETATM   28  C   UNL     1       7.355  30.723  58.772  1.00  0.00     0.079 C 
BRANCH  28  29
HETATM   29  C   UNL     1       7.556  31.307  60.158  1.00  0.00    -0.054 A 
HETATM   30  C   UNL     1       6.916  32.499  60.530  1.00  0.00     0.007 A 
HETATM   31  C   UNL     1       7.125  33.051  61.795  1.00  0.00     0.001 A 
HETATM   32  C   UNL     1       7.974  32.420  62.702  1.00  0.00     0.000 A 
HETATM   33  C   UNL     1       8.615  31.236  62.346  1.00  0.00     0.001 A 
HETATM   34  C   UNL     1       8.409  30.683  61.080  1.00  0.00     0.007 A 
ENDBRANCH  28  29
ENDBRANCH  23  28
ENDBRANCH  19  22
ENDBRANCH   1  18
TORSDOF 8
ENDMDL
MODEL 7
REMARK VINA RESULT:      -9.0      4.095      8.560
REMARK  8 active torsions:
REMARK  status: ('A' for Active; 'I' for Inactive)
REMARK    1  A    between atoms: O_2  and  C_3 
REMARK    2  A    between atoms: C_5  and  O_6 
REMARK    3  A    between atoms: C_8  and  C_9 
REMARK    4  A    between atoms: N_10  and  C_12 
REMARK    5  A    between atoms: C_12  and  C_13 
REMARK       I    between atoms: C_13  and  N_14 
REMARK    6  A    between atoms: N_14  and  C_15 
REMARK    7  A    between atoms: C_16  and  C_17 
REMARK    8  A    between atoms: C_17  and  C_18 
ROOT
HETATM    1  C   UNL     1       5.147  27.890  54.493  1.00  0.00     0.338 C 
ENDROOT
BRANCH   1   2
HETATM    2  N   UNL     1       6.190  26.990  55.149  1.00  0.00    -0.054 N 
HETATM    3  C   UNL     1       5.680  25.565  55.458  1.00  0.00     0.224 C 
HETATM    4  C   UNL     1       5.548  25.580  56.984  1.00  0.00     0.040 C 
HETATM    5  C   UNL     1       6.713  26.433  57.437  1.00  0.00     0.030 C 
HETATM    6  C   UNL     1       6.717  27.576  56.444  1.00  0.00     0.236 C 
HETATM    7  H   UNL     1       6.951  26.894  54.474  1.00  0.00     0.281 HD
BRANCH   3   8
HETATM    8  C   UNL     1       6.588  24.440  54.973  1.00  0.00     0.006 A 
HETATM    9  C   UNL     1       6.786  24.294  53.582  1.00  0.00     0.079 A 
HETATM   10  C   UNL     1       7.626  23.290  53.089  1.00  0.00     0.074 A 
HETATM   11  C   UNL     1       8.259  22.396  53.953  1.00  0.00     0.070 A 
HETATM   12  C   UNL     1       8.032  22.496  55.320  1.00  0.00     0.037 A 
HETATM   13  C   UNL     1       7.199  23.502  55.827  1.00  0.00     0.015 A 
BRANCH   9  14
HETATM   14  O   UNL     1       6.107  25.187  52.791  1.00  0.00    -0.355 OA
HETATM   15  C   UNL     1       4.901  24.721  52.186  1.00  0.00     0.210 C 
ENDBRANCH   9  14
BRANCH  11  16
HETATM   16  O   UNL     1       9.048  21.468  53.335  1.00  0.00    -0.356 OA
HETATM   17  C   UNL     1       8.417  20.285  52.858  1.00  0.00     0.210 C 
ENDBRANCH  11  16
ENDBRANCH   3   8
ENDBRANCH   1   2
BRANCH   1  18
HETATM   18  C   UNL     1       5.614  28.498  53.169  1.00  0.00     0.248 C 
HETATM   19  N   UNL     1       4.590  29.078  52.430  1.00  0.00    -0.325 N 
HETATM   20  H   UNL     1       3.792  29.435  52.938  1.00  0.00     0.169 HD
HETATM   21  O   UNL     1       6.806  28.511  52.883  1.00  0.00    -0.271 OA
BRANCH  19  22
HETATM   22  C   UNL     1       4.817  29.714  51.186  1.00  0.00     0.041 A 
HETATM   23  C   UNL     1       5.018  29.030  49.973  1.00  0.00    -0.027 A 
HETATM   24  C   UNL     1       5.298  29.790  48.817  1.00  0.00     0.010 A 
HETATM   25  C   UNL     1       5.331  31.183  48.853  1.00  0.00     0.001 A 
HETATM   26  C   UNL     1       5.063  31.848  50.042  1.00  0.00     0.002 A 
HETATM   27  C   UNL     1       4.795  31.119  51.200  1.00  0.00     0.030 A 
BRANCH  23  28
HETATM   28  C   UNL     1       4.785  27.544  49.778  1.00  0.00     0.079 C 
BRANCH  28  29
HETATM   29  C   UNL     1       3.606  27.246  48.870  1.00  0.00    -0.054 A 
HETATM   30  C   UNL     1       3.727  26.320  47.824  1.00  0.00     0.007 A 
HETATM   31  C   UNL     1       2.651  26.069  46.970  1.00  0.00     0.001 A 
HETATM   32  C   UNL     1       1.443  26.740  47.152  1.00  0.00     0.000 A 
HETATM   33  C   UNL     1       1.310  27.662  48.186  1.00  0.00     0.001 A 
HETATM   34  C   UNL     1       2.386  27.917  49.040  1.00  0.00     0.007 A 
ENDBRANCH  28  29
ENDBRANCH  23  28
ENDBRANCH  19  22
ENDBRANCH   1  18
TORSDOF 8
ENDMDL
MODEL 8
REMARK VINA RESULT:      -8.9      1.430      2.452
REMARK  8 active torsions:
REMARK  status: ('A' for Active; 'I' for Inactive)
REMARK    1  A    between atoms: O_2  and  C_3 
REMARK    2  A    between atoms: C_5  and  O_6 
REMARK    3  A    between atoms: C_8  and  C_9 
REMARK    4  A    between atoms: N_10  and  C_12 
REMARK    5  A    between atoms: C_12  and  C_13 
REMARK       I    between atoms: C_13  and  N_14 
REMARK    6  A    between atoms: N_14  and  C_15 
REMARK    7  A    between atoms: C_16  and  C_17 
REMARK    8  A    between atoms: C_17  and  C_18 
ROOT
HETATM    1  C   UNL     1       5.637  27.043  56.790  1.00  0.00     0.338 C 
ENDROOT
BRANCH   1   2
HETATM    2  N   UNL     1       5.770  26.515  55.364  1.00  0.00    -0.054 N 
HETATM    3  C   UNL     1       7.228  26.243  54.933  1.00  0.00     0.224 C 
HETATM    4  C   UNL     1       7.501  27.378  53.942  1.00  0.00     0.040 C 
HETATM    5  C   UNL     1       6.178  27.558  53.228  1.00  0.00     0.030 C 
HETATM    6  C   UNL     1       5.163  27.459  54.346  1.00  0.00     0.236 C 
HETATM    7  H   UNL     1       5.281  25.618  55.344  1.00  0.00     0.281 HD
BRANCH   3   8
HETATM    8  C   UNL     1       7.467  24.871  54.312  1.00  0.00     0.006 A 
HETATM    9  C   UNL     1       7.538  23.752  55.171  1.00  0.00     0.079 A 
HETATM   10  C   UNL     1       7.735  22.470  54.648  1.00  0.00     0.074 A 
HETATM   11  C   UNL     1       7.897  22.271  53.276  1.00  0.00     0.070 A 
HETATM   12  C   UNL     1       7.881  23.369  52.425  1.00  0.00     0.037 A 
HETATM   13  C   UNL     1       7.677  24.658  52.936  1.00  0.00     0.015 A 
BRANCH   9  14
HETATM   14  O   UNL     1       7.403  24.025  56.509  1.00  0.00    -0.355 OA
HETATM   15  C   UNL     1       8.554  23.811  57.327  1.00  0.00     0.210 C 
ENDBRANCH   9  14
BRANCH  11  16
HETATM   16  O   UNL     1       8.082  20.970  52.906  1.00  0.00    -0.356 OA
HETATM   17  C   UNL     1       8.711  20.105  53.845  1.00  0.00     0.210 C 
ENDBRANCH  11  16
ENDBRANCH   3   8
ENDBRANCH   1   2
BRANCH   1  18
HETATM   18  C   UNL     1       6.928  27.652  57.337  1.00  0.00     0.248 C 
HETATM   19  N   UNL     1       7.146  28.960  56.923  1.00  0.00    -0.325 N 
HETATM   20  H   UNL     1       6.335  29.521  56.701  1.00  0.00     0.169 HD
HETATM   21  O   UNL     1       7.622  27.021  58.126  1.00  0.00    -0.271 OA
BRANCH  19  22
HETATM   22  C   UNL     1       8.274  29.709  57.337  1.00  0.00     0.041 A 
HETATM   23  C   UNL     1       8.238  30.719  58.316  1.00  0.00    -0.027 A 
HETATM   24  C   UNL     1       9.427  31.430  58.585  1.00  0.00     0.010 A 
HETATM   25  C   UNL     1      10.622  31.120  57.939  1.00  0.00     0.001 A 
HETATM   26  C   UNL     1      10.661  30.075  57.026  1.00  0.00     0.002 A 
HETATM   27  C   UNL     1       9.497  29.365  56.735  1.00  0.00     0.030 A 
BRANCH  23  28
HETATM   28  C   UNL     1       7.056  30.985  59.230  1.00  0.00     0.079 C 
BRANCH  28  29
HETATM   29  C   UNL     1       5.860  31.558  58.494  1.00  0.00    -0.054 A 
HETATM   30  C   UNL     1       5.826  32.914  58.134  1.00  0.00     0.007 A 
HETATM   31  C   UNL     1       4.711  33.447  57.484  1.00  0.00     0.001 A 
HETATM   32  C   UNL     1       3.619  32.634  57.186  1.00  0.00     0.000 A 
HETATM   33  C   UNL     1       3.640  31.287  57.538  1.00  0.00     0.001 A 
HETATM   34  C   UNL     1       4.753  30.752  58.190  1.00  0.00     0.007 A 
ENDBRANCH  28  29
ENDBRANCH  23  28
ENDBRANCH  19  22
ENDBRANCH   1  18
TORSDOF 8
ENDMDL
MODEL 9
REMARK VINA RESULT:      -8.9      3.052      9.856
REMARK  8 active torsions:
REMARK  status: ('A' for Active; 'I' for Inactive)
REMARK    1  A    between atoms: O_2  and  C_3 
REMARK    2  A    between atoms: C_5  and  O_6 
REMARK    3  A    between atoms: C_8  and  C_9 
REMARK    4  A    between atoms: N_10  and  C_12 
REMARK    5  A    between atoms: C_12  and  C_13 
REMARK       I    between atoms: C_13  and  N_14 
REMARK    6  A    between atoms: N_14  and  C_15 
REMARK    7  A    between atoms: C_16  and  C_17 
REMARK    8  A    between atoms: C_17  and  C_18 
ROOT
HETATM    1  C   UNL     1       6.922  31.128  58.130  1.00  0.00     0.338 C 
ENDROOT
BRANCH   1   2
HETATM    2  N   UNL     1       7.318  31.019  59.600  1.00  0.00    -0.054 N 
HETATM    3  C   UNL     1       7.563  32.384  60.283  1.00  0.00     0.224 C 
HETATM    4  C   UNL     1       9.085  32.405  60.453  1.00  0.00     0.040 C 
HETATM    5  C   UNL     1       9.432  30.964  60.761  1.00  0.00     0.030 C 
HETATM    6  C   UNL     1       8.567  30.182  59.796  1.00  0.00     0.236 C 
HETATM    7  H   UNL     1       6.528  30.584  60.078  1.00  0.00     0.281 HD
BRANCH   3   8
HETATM    8  C   UNL     1       6.836  32.575  61.610  1.00  0.00     0.006 A 
HETATM    9  C   UNL     1       5.423  32.574  61.604  1.00  0.00     0.079 A 
HETATM   10  C   UNL     1       4.711  32.726  62.798  1.00  0.00     0.074 A 
HETATM   11  C   UNL     1       5.375  32.911  64.011  1.00  0.00     0.070 A 
HETATM   12  C   UNL     1       6.763  32.965  64.025  1.00  0.00     0.037 A 
HETATM   13  C   UNL     1       7.488  32.808  62.836  1.00  0.00     0.015 A 
BRANCH   9  14
HETATM   14  O   UNL     1       4.837  32.420  60.373  1.00  0.00    -0.355 OA
HETATM   15  C   UNL     1       4.023  33.497  59.909  1.00  0.00     0.210 C 
ENDBRANCH   9  14
BRANCH  11  16
HETATM   16  O   UNL     1       4.555  33.046  65.095  1.00  0.00    -0.356 OA
HETATM   17  C   UNL     1       4.908  34.025  66.066  1.00  0.00     0.210 C 
ENDBRANCH  11  16
ENDBRANCH   3   8
ENDBRANCH   1   2
BRANCH   1  18
HETATM   18  C   UNL     1       7.073  29.815  57.360  1.00  0.00     0.248 C 
HETATM   19  N   UNL     1       6.324  28.771  57.888  1.00  0.00    -0.325 N 
HETATM   20  H   UNL     1       5.481  29.008  58.392  1.00  0.00     0.169 HD
HETATM   21  O   UNL     1       7.744  29.776  56.335  1.00  0.00    -0.271 OA
BRANCH  19  22
HETATM   22  C   UNL     1       6.309  27.479  57.308  1.00  0.00     0.041 A 
HETATM   23  C   UNL     1       5.332  27.031  56.400  1.00  0.00    -0.027 A 
HETATM   24  C   UNL     1       5.403  25.696  55.949  1.00  0.00     0.010 A 
HETATM   25  C   UNL     1       6.435  24.847  56.347  1.00  0.00     0.001 A 
HETATM   26  C   UNL     1       7.432  25.323  57.188  1.00  0.00     0.002 A 
HETATM   27  C   UNL     1       7.377  26.635  57.656  1.00  0.00     0.030 A 
BRANCH  23  28
HETATM   28  C   UNL     1       4.304  27.927  55.734  1.00  0.00     0.079 C 
BRANCH  28  29
HETATM   29  C   UNL     1       4.590  28.159  54.263  1.00  0.00    -0.054 A 
HETATM   30  C   UNL     1       3.539  28.278  53.342  1.00  0.00     0.007 A 
HETATM   31  C   UNL     1       3.804  28.461  51.983  1.00  0.00     0.001 A 
HETATM   32  C   UNL     1       5.119  28.527  51.529  1.00  0.00     0.000 A 
HETATM   33  C   UNL     1       6.172  28.410  52.433  1.00  0.00     0.001 A 
HETATM   34  C   UNL     1       5.910  28.225  53.792  1.00  0.00     0.007 A 
ENDBRANCH  28  29
ENDBRANCH  23  28
ENDBRANCH  19  22
ENDBRANCH   1  18
TORSDOF 8
ENDMDL
MODEL 10
REMARK VINA RESULT:      -8.6      3.782     10.709
REMARK  8 active torsions:
REMARK  status: ('A' for Active; 'I' for Inactive)
REMARK    1  A    between atoms: O_2  and  C_3 
REMARK    2  A    between atoms: C_5  and  O_6 
REMARK    3  A    between atoms: C_8  and  C_9 
REMARK    4  A    between atoms: N_10  and  C_12 
REMARK    5  A    between atoms: C_12  and  C_13 
REMARK       I    between atoms: C_13  and  N_14 
REMARK    6  A    between atoms: N_14  and  C_15 
REMARK    7  A    between atoms: C_16  and  C_17 
REMARK    8  A    between atoms: C_17  and  C_18 
ROOT
HETATM    1  C   UNL     1       5.692  31.917  60.574  1.00  0.00     0.338 C 
ENDROOT
BRANCH   1   2
HETATM    2  N   UNL     1       6.305  31.862  61.970  1.00  0.00    -0.054 N 
HETATM    3  C   UNL     1       6.856  33.219  62.465  1.00  0.00     0.224 C 
HETATM    4  C   UNL     1       8.371  33.008  62.400  1.00  0.00     0.040 C 
HETATM    5  C   UNL     1       8.550  31.559  62.798  1.00  0.00     0.030 C 
HETATM    6  C   UNL     1       7.433  30.853  62.060  1.00  0.00     0.236 C 
HETATM    7  H   UNL     1       5.549  31.598  62.605  1.00  0.00     0.281 HD
BRANCH   3   8
HETATM    8  C   UNL     1       6.393  33.628  63.859  1.00  0.00     0.006 A 
HETATM    9  C   UNL     1       5.071  34.100  64.013  1.00  0.00     0.079 A 
HETATM   10  C   UNL     1       4.594  34.468  65.275  1.00  0.00     0.074 A 
HETATM   11  C   UNL     1       5.418  34.407  66.400  1.00  0.00     0.070 A 
HETATM   12  C   UNL     1       6.737  33.993  66.254  1.00  0.00     0.037 A 
HETATM   13  C   UNL     1       7.224  33.614  64.996  1.00  0.00     0.015 A 
BRANCH   9  14
HETATM   14  O   UNL     1       4.329  34.165  62.860  1.00  0.00    -0.355 OA
HETATM   15  C   UNL     1       2.943  33.838  62.970  1.00  0.00     0.210 C 
ENDBRANCH   9  14
BRANCH  11  16
HETATM   16  O   UNL     1       4.822  34.797  67.565  1.00  0.00    -0.356 OA
HETATM   17  C   UNL     1       5.622  34.795  68.742  1.00  0.00     0.210 C 
ENDBRANCH  11  16
ENDBRANCH   3   8
ENDBRANCH   1   2
BRANCH   1  18
HETATM   18  C   UNL     1       6.720  31.768  59.451  1.00  0.00     0.248 C 
HETATM   19  N   UNL     1       7.495  30.620  59.554  1.00  0.00    -0.325 N 
HETATM   20  H   UNL     1       7.089  29.823  60.025  1.00  0.00     0.169 HD
HETATM   21  O   UNL     1       6.751  32.579  58.532  1.00  0.00    -0.271 OA
BRANCH  19  22
HETATM   22  C   UNL     1       8.488  30.287  58.602  1.00  0.00     0.041 A 
HETATM   23  C   UNL     1       8.390  29.213  57.698  1.00  0.00    -0.027 A 
HETATM   24  C   UNL     1       9.485  28.957  56.845  1.00  0.00     0.010 A 
HETATM   25  C   UNL     1      10.620  29.765  56.856  1.00  0.00     0.001 A 
HETATM   26  C   UNL     1      10.676  30.863  57.703  1.00  0.00     0.002 A 
HETATM   27  C   UNL     1       9.612  31.131  58.563  1.00  0.00     0.030 A 
BRANCH  23  28
HETATM   28  C   UNL     1       7.124  28.415  57.449  1.00  0.00     0.079 C 
BRANCH  28  29
HETATM   29  C   UNL     1       7.396  27.053  56.840  1.00  0.00    -0.054 A 
HETATM   30  C   UNL     1       7.169  26.824  55.475  1.00  0.00     0.007 A 
HETATM   31  C   UNL     1       7.392  25.561  54.921  1.00  0.00     0.001 A 
HETATM   32  C   UNL     1       7.842  24.515  55.724  1.00  0.00     0.000 A 
HETATM   33  C   UNL     1       8.071  24.729  57.080  1.00  0.00     0.001 A 
HETATM   34  C   UNL     1       7.848  25.990  57.637  1.00  0.00     0.007 A 
ENDBRANCH  28  29
ENDBRANCH  23  28
ENDBRANCH  19  22
ENDBRANCH   1  18
TORSDOF 8
ENDMDL
