MODEL 1
REMARK VINA RESULT:      -9.4      0.000      0.000
REMARK  5 active torsions:
REMARK  status: ('A' for Active; 'I' for Inactive)
REMARK    1  A    between atoms: C_3  and  N_4 
REMARK       I    between atoms: N_4  and  C_5 
REMARK       I    between atoms: C_5  and  N_6 
REMARK    2  A    between atoms: N_6  and  C_7 
REMARK    3  A    between atoms: C_7  and  C_8 
REMARK    4  A    between atoms: C_16  and  N_17 
REMARK       I    between atoms: N_17  and  C_18 
REMARK    5  A    between atoms: C_18  and  C_19 
ROOT
HETATM    1  C   UNL     1       5.695  30.712  57.260  1.00  0.00     0.050 C 
HETATM    2  C   UNL     1       6.221  29.302  57.312  1.00  0.00    -0.035 A 
HETATM    3  C   UNL     1       7.584  29.013  57.504  1.00  0.00     0.044 A 
HETATM    4  C   UNL     1       8.026  27.674  57.559  1.00  0.00     0.059 A 
HETATM    5  C   UNL     1       7.129  26.620  57.384  1.00  0.00     0.037 A 
HETATM    6  C   UNL     1       5.781  26.926  57.142  1.00  0.00     0.030 A 
HETATM    7  C   UNL     1       5.330  28.246  57.113  1.00  0.00     0.011 A 
ENDROOT
BRANCH   3   8
HETATM    8  N   UNL     1       8.471  30.086  57.710  1.00  0.00    -0.308 N 
HETATM    9  C   UNL     1       8.825  30.740  58.850  1.00  0.00     0.321 C 
HETATM   10  N   UNL     1       8.481  30.163  60.030  1.00  0.00    -0.336 N 
HETATM   11  O   UNL     1       9.532  31.744  58.783  1.00  0.00    -0.247 OA
HETATM   12  H   UNL     1       8.206  29.189  60.015  1.00  0.00     0.164 HD
HETATM   13  H   UNL     1       9.056  30.367  56.934  1.00  0.00     0.170 HD
BRANCH  10  14
HETATM   14  C   UNL     1       9.098  30.605  61.255  1.00  0.00     0.202 C 
BRANCH  14  15
HETATM   15  C   UNL     1       8.091  31.353  62.062  1.00  0.00     0.121 A 
HETATM   16  N   UNL     1       8.319  32.309  62.945  1.00  0.00    -0.244 NA
HETATM   17  C   UNL     1       7.088  32.678  63.419  1.00  0.00     0.135 A 
HETATM   18  C   UNL     1       6.095  31.951  62.810  1.00  0.00     0.109 A 
HETATM   19  N   UNL     1       6.743  31.117  61.943  1.00  0.00    -0.352 N 
HETATM   20  H   UNL     1       6.312  30.447  61.320  1.00  0.00     0.166 HD
ENDBRANCH  14  15
ENDBRANCH  10  14
ENDBRANCH   3   8
BRANCH   5  21
HETATM   21  N   UNL     1       7.412  25.247  57.497  1.00  0.00    -0.323 N 
HETATM   22  C   UNL     1       7.897  24.271  56.669  1.00  0.00     0.256 C 
HETATM   23  O   UNL     1       8.291  23.219  57.181  1.00  0.00    -0.267 OA
HETATM   24  H   UNL     1       7.374  24.877  58.441  1.00  0.00     0.169 HD
BRANCH  22  25
HETATM   25  C   UNL     1       7.951  24.370  55.203  1.00  0.00     0.032 A 
HETATM   26  C   UNL     1       7.632  25.558  54.542  1.00  0.00     0.017 A 
HETATM   27  C   UNL     1       7.551  25.568  53.148  1.00  0.00     0.001 A 
HETATM   28  C   UNL     1       7.770  24.400  52.418  1.00  0.00     0.000 A 
HETATM   29  C   UNL     1       8.062  23.208  53.079  1.00  0.00     0.001 A 
HETATM   30  C   UNL     1       8.143  23.190  54.471  1.00  0.00     0.017 A 
ENDBRANCH  22  25
ENDBRANCH   5  21
TORSDOF 5
ENDMDL
MODEL 2
REMARK VINA RESULT:      -8.9      1.770      2.324
REMARK  5 active torsions:
REMARK  status: ('A' for Active; 'I' for Inactive)
REMARK    1  A    between atoms: C_3  and  N_4 
REMARK       I    between atoms: N_4  and  C_5 
REMARK       I    between atoms: C_5  and  N_6 
REMARK    2  A    between atoms: N_6  and  C_7 
REMARK    3  A    between atoms: C_7  and  C_8 
REMARK    4  A    between atoms: C_16  and  N_17 
REMARK       I    between atoms: N_17  and  C_18 
REMARK    5  A    between atoms: C_18  and  C_19 
ROOT
HETATM    1  C   UNL     1       6.242  28.994  55.407  1.00  0.00     0.050 C 
HETATM    2  C   UNL     1       6.710  27.666  55.942  1.00  0.00    -0.035 A 
HETATM    3  C   UNL     1       8.001  27.479  56.467  1.00  0.00     0.044 A 
HETATM    4  C   UNL     1       8.389  26.218  56.969  1.00  0.00     0.059 A 
HETATM    5  C   UNL     1       7.516  25.131  56.914  1.00  0.00     0.037 A 
HETATM    6  C   UNL     1       6.251  25.321  56.339  1.00  0.00     0.030 A 
HETATM    7  C   UNL     1       5.848  26.570  55.866  1.00  0.00     0.011 A 
ENDROOT
BRANCH   3   8
HETATM    8  N   UNL     1       8.858  28.593  56.544  1.00  0.00    -0.308 N 
HETATM    9  C   UNL     1       8.915  29.610  57.448  1.00  0.00     0.321 C 
HETATM   10  N   UNL     1       8.217  29.455  58.602  1.00  0.00    -0.336 N 
HETATM   11  O   UNL     1       9.673  30.558  57.250  1.00  0.00    -0.247 OA
HETATM   12  H   UNL     1       7.898  28.525  58.838  1.00  0.00     0.164 HD
HETATM   13  H   UNL     1       9.654  28.616  55.921  1.00  0.00     0.170 HD
BRANCH  10  14
HETATM   14  C   UNL     1       8.489  30.313  59.728  1.00  0.00     0.202 C 
BRANCH  14  15
HETATM   15  C   UNL     1       7.398  31.323  59.842  1.00  0.00     0.121 A 
HETATM   16  N   UNL     1       6.550  31.699  58.900  1.00  0.00    -0.244 NA
HETATM   17  C   UNL     1       5.746  32.644  59.480  1.00  0.00     0.135 A 
HETATM   18  C   UNL     1       6.095  32.840  60.794  1.00  0.00     0.109 A 
HETATM   19  N   UNL     1       7.142  31.989  61.016  1.00  0.00    -0.352 N 
HETATM   20  H   UNL     1       7.639  31.865  61.888  1.00  0.00     0.166 HD
ENDBRANCH  14  15
ENDBRANCH  10  14
ENDBRANCH   3   8
BRANCH   5  21
HETATM   21  N   UNL     1       7.736  23.849  57.449  1.00  0.00    -0.323 N 
HETATM   22  C   UNL     1       8.170  22.643  56.967  1.00  0.00     0.256 C 
HETATM   23  O   UNL     1       8.519  21.785  57.783  1.00  0.00    -0.267 OA
HETATM   24  H   UNL     1       7.687  23.791  58.461  1.00  0.00     0.169 HD
BRANCH  22  25
HETATM   25  C   UNL     1       8.220  22.281  55.544  1.00  0.00     0.032 A 
HETATM   26  C   UNL     1       8.398  23.250  54.553  1.00  0.00     0.017 A 
HETATM   27  C   UNL     1       8.290  22.885  53.209  1.00  0.00     0.001 A 
HETATM   28  C   UNL     1       7.992  21.569  52.855  1.00  0.00     0.000 A 
HETATM   29  C   UNL     1       7.788  20.609  53.844  1.00  0.00     0.001 A 
HETATM   30  C   UNL     1       7.892  20.966  55.188  1.00  0.00     0.017 A 
ENDBRANCH  22  25
ENDBRANCH   5  21
TORSDOF 5
ENDMDL
MODEL 3
REMARK VINA RESULT:      -8.9      3.530      6.199
REMARK  5 active torsions:
REMARK  status: ('A' for Active; 'I' for Inactive)
REMARK    1  A    between atoms: C_3  and  N_4 
REMARK       I    between atoms: N_4  and  C_5 
REMARK       I    between atoms: C_5  and  N_6 
REMARK    2  A    between atoms: N_6  and  C_7 
REMARK    3  A    between atoms: C_7  and  C_8 
REMARK    4  A    between atoms: C_16  and  N_17 
REMARK       I    between atoms: N_17  and  C_18 
REMARK    5  A    between atoms: C_18  and  C_19 
ROOT
HETATM    1  C   UNL     1       7.227  30.091  57.484  1.00  0.00     0.050 C 
HETATM    2  C   UNL     1       7.061  28.609  57.274  1.00  0.00    -0.035 A 
HETATM    3  C   UNL     1       5.797  27.997  57.193  1.00  0.00     0.044 A 
HETATM    4  C   UNL     1       5.693  26.605  56.982  1.00  0.00     0.059 A 
HETATM    5  C   UNL     1       6.837  25.812  56.893  1.00  0.00     0.037 A 
HETATM    6  C   UNL     1       8.089  26.430  57.028  1.00  0.00     0.030 A 
HETATM    7  C   UNL     1       8.203  27.808  57.208  1.00  0.00     0.011 A 
ENDROOT
BRANCH   3   8
HETATM    8  N   UNL     1       4.654  28.816  57.255  1.00  0.00    -0.308 N 
HETATM    9  C   UNL     1       4.025  29.537  56.286  1.00  0.00     0.321 C 
HETATM   10  N   UNL     1       4.369  29.282  54.998  1.00  0.00    -0.336 N 
HETATM   11  O   UNL     1       3.102  30.291  56.591  1.00  0.00    -0.247 OA
HETATM   12  H   UNL     1       4.878  28.428  54.807  1.00  0.00     0.164 HD
HETATM   13  H   UNL     1       4.107  28.795  58.105  1.00  0.00     0.170 HD
BRANCH  10  14
HETATM   14  C   UNL     1       3.530  29.747  53.922  1.00  0.00     0.202 C 
BRANCH  14  15
HETATM   15  C   UNL     1       4.079  29.246  52.630  1.00  0.00     0.121 A 
HETATM   16  N   UNL     1       5.286  29.454  52.135  1.00  0.00    -0.244 NA
HETATM   17  C   UNL     1       5.313  28.798  50.932  1.00  0.00     0.135 A 
HETATM   18  C   UNL     1       4.115  28.170  50.694  1.00  0.00     0.109 A 
HETATM   19  N   UNL     1       3.339  28.455  51.783  1.00  0.00    -0.352 N 
HETATM   20  H   UNL     1       2.393  28.139  51.944  1.00  0.00     0.166 HD
ENDBRANCH  14  15
ENDBRANCH  10  14
ENDBRANCH   3   8
BRANCH   5  21
HETATM   21  N   UNL     1       6.885  24.436  56.602  1.00  0.00    -0.323 N 
HETATM   22  C   UNL     1       7.039  23.674  55.475  1.00  0.00     0.256 C 
HETATM   23  O   UNL     1       7.320  22.481  55.616  1.00  0.00    -0.267 OA
HETATM   24  H   UNL     1       6.943  23.827  57.411  1.00  0.00     0.169 HD
BRANCH  22  25
HETATM   25  C   UNL     1       6.858  24.167  54.102  1.00  0.00     0.032 A 
HETATM   26  C   UNL     1       7.943  24.323  53.237  1.00  0.00     0.017 A 
HETATM   27  C   UNL     1       7.749  24.932  51.995  1.00  0.00     0.001 A 
HETATM   28  C   UNL     1       6.487  25.396  51.624  1.00  0.00     0.000 A 
HETATM   29  C   UNL     1       5.410  25.264  52.499  1.00  0.00     0.001 A 
HETATM   30  C   UNL     1       5.596  24.659  53.741  1.00  0.00     0.017 A 
ENDBRANCH  22  25
ENDBRANCH   5  21
TORSDOF 5
ENDMDL
MODEL 4
REMARK VINA RESULT:      -8.8      1.536      2.201
REMARK  5 active torsions:
REMARK  status: ('A' for Active; 'I' for Inactive)
REMARK    1  A    between atoms: C_3  and  N_4 
REMARK       I    between atoms: N_4  and  C_5 
REMARK       I    between atoms: C_5  and  N_6 
REMARK    2  A    between atoms: N_6  and  C_7 
REMARK    3  A    between atoms: C_7  and  C_8 
REMARK    4  A    between atoms: C_16  and  N_17 
REMARK       I    between atoms: N_17  and  C_18 
REMARK    5  A    between atoms: C_18  and  C_19 
ROOT
HETATM    1  C   UNL     1      10.877  29.834  57.004  1.00  0.00     0.050 C 
HETATM    2  C   UNL     1       9.561  29.119  57.159  1.00  0.00    -0.035 A 
HETATM    3  C   UNL     1       8.474  29.684  57.851  1.00  0.00     0.044 A 
HETATM    4  C   UNL     1       7.256  28.979  57.958  1.00  0.00     0.059 A 
HETATM    5  C   UNL     1       7.124  27.700  57.419  1.00  0.00     0.037 A 
HETATM    6  C   UNL     1       8.234  27.129  56.777  1.00  0.00     0.030 A 
HETATM    7  C   UNL     1       9.433  27.828  56.642  1.00  0.00     0.011 A 
ENDROOT
BRANCH   3   8
HETATM    8  N   UNL     1       8.614  30.988  58.363  1.00  0.00    -0.308 N 
HETATM    9  C   UNL     1       8.617  31.443  59.646  1.00  0.00     0.321 C 
HETATM   10  N   UNL     1       8.741  30.519  60.633  1.00  0.00    -0.336 N 
HETATM   11  O   UNL     1       8.627  32.653  59.863  1.00  0.00    -0.247 OA
HETATM   12  H   UNL     1       9.062  29.595  60.375  1.00  0.00     0.164 HD
HETATM   13  H   UNL     1       8.883  31.718  57.717  1.00  0.00     0.170 HD
BRANCH  10  14
HETATM   14  C   UNL     1       9.085  30.935  61.970  1.00  0.00     0.202 C 
BRANCH  14  15
HETATM   15  C   UNL     1       7.890  31.564  62.603  1.00  0.00     0.121 A 
HETATM   16  N   UNL     1       7.874  32.528  63.507  1.00  0.00    -0.244 NA
HETATM   17  C   UNL     1       6.552  32.760  63.779  1.00  0.00     0.135 A 
HETATM   18  C   UNL     1       5.749  31.939  63.024  1.00  0.00     0.109 A 
HETATM   19  N   UNL     1       6.610  31.188  62.274  1.00  0.00    -0.352 N 
HETATM   20  H   UNL     1       6.356  30.484  61.595  1.00  0.00     0.166 HD
ENDBRANCH  14  15
ENDBRANCH  10  14
ENDBRANCH   3   8
BRANCH   5  21
HETATM   21  N   UNL     1       5.953  26.922  57.377  1.00  0.00    -0.323 N 
HETATM   22  C   UNL     1       5.594  25.712  56.847  1.00  0.00     0.256 C 
HETATM   23  O   UNL     1       4.547  25.192  57.244  1.00  0.00    -0.267 OA
HETATM   24  H   UNL     1       5.200  27.245  57.976  1.00  0.00     0.169 HD
BRANCH  22  25
HETATM   25  C   UNL     1       6.350  24.997  55.808  1.00  0.00     0.032 A 
HETATM   26  C   UNL     1       6.122  25.233  54.451  1.00  0.00     0.017 A 
HETATM   27  C   UNL     1       6.753  24.430  53.499  1.00  0.00     0.001 A 
HETATM   28  C   UNL     1       7.593  23.389  53.895  1.00  0.00     0.000 A 
HETATM   29  C   UNL     1       7.800  23.138  55.250  1.00  0.00     0.001 A 
HETATM   30  C   UNL     1       7.172  23.934  56.207  1.00  0.00     0.017 A 
ENDBRANCH  22  25
ENDBRANCH   5  21
TORSDOF 5
ENDMDL
MODEL 5
REMARK VINA RESULT:      -8.6      2.603      8.694
REMARK  5 active torsions:
REMARK  status: ('A' for Active; 'I' for Inactive)
REMARK    1  A    between atoms: C_3  and  N_4 
REMARK       I    between atoms: N_4  and  C_5 
REMARK       I    between atoms: C_5  and  N_6 
REMARK    2  A    between atoms: N_6  and  C_7 
REMARK    3  A    between atoms: C_7  and  C_8 
REMARK    4  A    between atoms: C_16  and  N_17 
REMARK       I    between atoms: N_17  and  C_18 
REMARK    5  A    between atoms: C_18  and  C_19 
ROOT
HETATM    1  C   UNL     1       5.662  26.213  56.501  1.00  0.00     0.050 C 
HETATM    2  C   UNL     1       6.643  27.349  56.632  1.00  0.00    -0.035 A 
HETATM    3  C   UNL     1       6.998  28.166  55.543  1.00  0.00     0.044 A 
HETATM    4  C   UNL     1       7.912  29.227  55.719  1.00  0.00     0.059 A 
HETATM    5  C   UNL     1       8.507  29.455  56.960  1.00  0.00     0.037 A 
HETATM    6  C   UNL     1       8.182  28.599  58.023  1.00  0.00     0.030 A 
HETATM    7  C   UNL     1       7.259  27.566  57.866  1.00  0.00     0.011 A 
ENDROOT
BRANCH   3   8
HETATM    8  N   UNL     1       6.365  27.942  54.306  1.00  0.00    -0.308 N 
HETATM    9  C   UNL     1       6.732  27.166  53.249  1.00  0.00     0.321 C 
HETATM   10  N   UNL     1       7.730  26.269  53.453  1.00  0.00    -0.336 N 
HETATM   11  O   UNL     1       6.085  27.216  52.204  1.00  0.00    -0.247 OA
HETATM   12  H   UNL     1       7.980  26.052  54.409  1.00  0.00     0.164 HD
HETATM   13  H   UNL     1       5.424  28.293  54.190  1.00  0.00     0.170 HD
BRANCH  10  14
HETATM   14  C   UNL     1       7.944  25.202  52.507  1.00  0.00     0.202 C 
BRANCH  14  15
HETATM   15  C   UNL     1       7.906  23.899  53.231  1.00  0.00     0.121 A 
HETATM   16  N   UNL     1       7.872  22.688  52.705  1.00  0.00    -0.244 NA
HETATM   17  C   UNL     1       7.842  21.822  53.766  1.00  0.00     0.135 A 
HETATM   18  C   UNL     1       7.872  22.509  54.954  1.00  0.00     0.109 A 
HETATM   19  N   UNL     1       7.920  23.829  54.604  1.00  0.00    -0.352 N 
HETATM   20  H   UNL     1       7.964  24.616  55.236  1.00  0.00     0.166 HD
ENDBRANCH  14  15
ENDBRANCH  10  14
ENDBRANCH   3   8
BRANCH   5  21
HETATM   21  N   UNL     1       9.363  30.519  57.298  1.00  0.00    -0.323 N 
HETATM   22  C   UNL     1       9.637  31.239  58.430  1.00  0.00     0.256 C 
HETATM   23  O   UNL     1      10.662  31.926  58.446  1.00  0.00    -0.267 OA
HETATM   24  H   UNL     1      10.048  30.762  56.591  1.00  0.00     0.169 HD
BRANCH  22  25
HETATM   25  C   UNL     1       8.776  31.283  59.621  1.00  0.00     0.032 A 
HETATM   26  C   UNL     1       7.553  31.958  59.610  1.00  0.00     0.017 A 
HETATM   27  C   UNL     1       6.838  32.102  60.800  1.00  0.00     0.001 A 
HETATM   28  C   UNL     1       7.343  31.592  61.996  1.00  0.00     0.000 A 
HETATM   29  C   UNL     1       8.576  30.942  62.012  1.00  0.00     0.001 A 
HETATM   30  C   UNL     1       9.297  30.796  60.828  1.00  0.00     0.017 A 
ENDBRANCH  22  25
ENDBRANCH   5  21
TORSDOF 5
ENDMDL
MODEL 6
REMARK VINA RESULT:      -8.6      6.691     10.244
REMARK  5 active torsions:
REMARK  status: ('A' for Active; 'I' for Inactive)
REMARK    1  A    between atoms: C_3  and  N_4 
REMARK       I    between atoms: N_4  and  C_5 
REMARK       I    between atoms: C_5  and  N_6 
REMARK    2  A    between atoms: N_6  and  C_7 
REMARK    3  A    between atoms: C_7  and  C_8 
REMARK    4  A    between atoms: C_16  and  N_17 
REMARK       I    between atoms: N_17  and  C_18 
REMARK    5  A    between atoms: C_18  and  C_19 
ROOT
HETATM    1  C   UNL     1       5.776  28.964  49.185  1.00  0.00     0.050 C 
HETATM    2  C   UNL     1       5.478  28.186  50.439  1.00  0.00    -0.035 A 
HETATM    3  C   UNL     1       4.966  26.876  50.408  1.00  0.00     0.044 A 
HETATM    4  C   UNL     1       4.715  26.182  51.612  1.00  0.00     0.059 A 
HETATM    5  C   UNL     1       4.930  26.796  52.845  1.00  0.00     0.037 A 
HETATM    6  C   UNL     1       5.391  28.122  52.859  1.00  0.00     0.030 A 
HETATM    7  C   UNL     1       5.669  28.805  51.675  1.00  0.00     0.011 A 
ENDROOT
BRANCH   3   8
HETATM    8  N   UNL     1       4.784  26.259  49.156  1.00  0.00    -0.308 N 
HETATM    9  C   UNL     1       3.661  26.091  48.404  1.00  0.00     0.321 C 
HETATM   10  N   UNL     1       2.564  26.809  48.755  1.00  0.00    -0.336 N 
HETATM   11  O   UNL     1       3.708  25.403  47.386  1.00  0.00    -0.247 OA
HETATM   12  H   UNL     1       2.695  27.592  49.383  1.00  0.00     0.164 HD
HETATM   13  H   UNL     1       5.611  25.997  48.637  1.00  0.00     0.170 HD
BRANCH  10  14
HETATM   14  C   UNL     1       1.464  26.942  47.832  1.00  0.00     0.202 C 
BRANCH  14  15
HETATM   15  C   UNL     1       1.516  28.296  47.211  1.00  0.00     0.121 A 
HETATM   16  N   UNL     1       0.525  28.955  46.636  1.00  0.00    -0.244 NA
HETATM   17  C   UNL     1       1.062  30.144  46.218  1.00  0.00     0.135 A 
HETATM   18  C   UNL     1       2.392  30.221  46.552  1.00  0.00     0.109 A 
HETATM   19  N   UNL     1       2.669  29.044  47.190  1.00  0.00    -0.352 N 
HETATM   20  H   UNL     1       3.560  28.770  47.583  1.00  0.00     0.166 HD
ENDBRANCH  14  15
ENDBRANCH  10  14
ENDBRANCH   3   8
BRANCH   5  21
HETATM   21  N   UNL     1       4.805  26.202  54.114  1.00  0.00    -0.323 N 
HETATM   22  C   UNL     1       5.563  25.362  54.886  1.00  0.00     0.256 C 
HETATM   23  O   UNL     1       5.279  25.262  56.083  1.00  0.00    -0.267 OA
HETATM   24  H   UNL     1       4.036  26.548  54.677  1.00  0.00     0.169 HD
BRANCH  22  25
HETATM   25  C   UNL     1       6.673  24.540  54.384  1.00  0.00     0.032 A 
HETATM   26  C   UNL     1       6.633  23.963  53.113  1.00  0.00     0.017 A 
HETATM   27  C   UNL     1       7.638  23.070  52.733  1.00  0.00     0.001 A 
HETATM   28  C   UNL     1       8.666  22.743  53.617  1.00  0.00     0.000 A 
HETATM   29  C   UNL     1       8.691  23.300  54.894  1.00  0.00     0.001 A 
HETATM   30  C   UNL     1       7.691  24.190  55.282  1.00  0.00     0.017 A 
ENDBRANCH  22  25
ENDBRANCH   5  21
TORSDOF 5
ENDMDL
MODEL 7
REMARK VINA RESULT:      -8.5      2.732      3.988
REMARK  5 active torsions:
REMARK  status: ('A' for Active; 'I' for Inactive)
REMARK    1  A    between atoms: C_3  and  N_4 
REMARK       I    between atoms: N_4  and  C_5 
REMARK       I    between atoms: C_5  and  N_6 
REMARK    2  A    between atoms: N_6  and  C_7 
REMARK    3  A    between atoms: C_7  and  C_8 
REMARK    4  A    between atoms: C_16  and  N_17 
REMARK       I    between atoms: N_17  and  C_18 
REMARK    5  A    between atoms: C_18  and  C_19 
ROOT
HETATM    1  C   UNL     1      10.587  30.103  56.767  1.00  0.00     0.050 C 
HETATM    2  C   UNL     1       9.404  29.367  56.195  1.00  0.00    -0.035 A 
HETATM    3  C   UNL     1       8.307  28.976  56.985  1.00  0.00     0.044 A 
HETATM    4  C   UNL     1       7.215  28.299  56.400  1.00  0.00     0.059 A 
HETATM    5  C   UNL     1       7.225  27.971  55.044  1.00  0.00     0.037 A 
HETATM    6  C   UNL     1       8.349  28.322  54.281  1.00  0.00     0.030 A 
HETATM    7  C   UNL     1       9.420  29.016  54.844  1.00  0.00     0.011 A 
ENDROOT
BRANCH   3   8
HETATM    8  N   UNL     1       8.299  29.341  58.344  1.00  0.00    -0.308 N 
HETATM    9  C   UNL     1       7.779  30.434  58.967  1.00  0.00     0.321 C 
HETATM   10  N   UNL     1       6.924  31.209  58.252  1.00  0.00    -0.336 N 
HETATM   11  O   UNL     1       7.999  30.616  60.163  1.00  0.00    -0.247 OA
HETATM   12  H   UNL     1       6.533  30.820  57.404  1.00  0.00     0.164 HD
HETATM   13  H   UNL     1       8.607  28.651  59.017  1.00  0.00     0.170 HD
BRANCH  10  14
HETATM   14  C   UNL     1       6.087  32.170  58.927  1.00  0.00     0.202 C 
BRANCH  14  15
HETATM   15  C   UNL     1       5.144  32.768  57.938  1.00  0.00     0.121 A 
HETATM   16  N   UNL     1       5.307  33.883  57.246  1.00  0.00    -0.244 NA
HETATM   17  C   UNL     1       4.177  34.013  56.483  1.00  0.00     0.135 A 
HETATM   18  C   UNL     1       3.321  32.962  56.697  1.00  0.00     0.109 A 
HETATM   19  N   UNL     1       3.948  32.172  57.619  1.00  0.00    -0.352 N 
HETATM   20  H   UNL     1       3.602  31.301  57.998  1.00  0.00     0.166 HD
ENDBRANCH  14  15
ENDBRANCH  10  14
ENDBRANCH   3   8
BRANCH   5  21
HETATM   21  N   UNL     1       6.178  27.378  54.315  1.00  0.00    -0.323 N 
HETATM   22  C   UNL     1       5.841  26.106  53.937  1.00  0.00     0.256 C 
HETATM   23  O   UNL     1       4.689  25.907  53.538  1.00  0.00    -0.267 OA
HETATM   24  H   UNL     1       5.400  27.993  54.103  1.00  0.00     0.169 HD
BRANCH  22  25
HETATM   25  C   UNL     1       6.763  24.962  53.936  1.00  0.00     0.032 A 
HETATM   26  C   UNL     1       7.135  24.329  52.748  1.00  0.00     0.017 A 
HETATM   27  C   UNL     1       7.892  23.157  52.802  1.00  0.00     0.001 A 
HETATM   28  C   UNL     1       8.263  22.610  54.031  1.00  0.00     0.000 A 
HETATM   29  C   UNL     1       7.869  23.228  55.217  1.00  0.00     0.001 A 
HETATM   30  C   UNL     1       7.112  24.398  55.170  1.00  0.00     0.017 A 
ENDBRANCH  22  25
ENDBRANCH   5  21
TORSDOF 5
ENDMDL
MODEL 8
REMARK VINA RESULT:      -8.4      2.551      3.327
REMARK  5 active torsions:
REMARK  status: ('A' for Active; 'I' for Inactive)
REMARK    1  A    between atoms: C_3  and  N_4 
REMARK       I    between atoms: N_4  and  C_5 
REMARK       I    between atoms: C_5  and  N_6 
REMARK    2  A    between atoms: N_6  and  C_7 
REMARK    3  A    between atoms: C_7  and  C_8 
REMARK    4  A    between atoms: C_16  and  N_17 
REMARK       I    between atoms: N_17  and  C_18 
REMARK    5  A    between atoms: C_18  and  C_19 
ROOT
HETATM    1  C   UNL     1      10.853  30.059  57.570  1.00  0.00     0.050 C 
HETATM    2  C   UNL     1       9.581  29.553  56.942  1.00  0.00    -0.035 A 
HETATM    3  C   UNL     1       8.434  29.253  57.700  1.00  0.00     0.044 A 
HETATM    4  C   UNL     1       7.261  28.794  57.063  1.00  0.00     0.059 A 
HETATM    5  C   UNL     1       7.233  28.591  55.684  1.00  0.00     0.037 A 
HETATM    6  C   UNL     1       8.401  28.845  54.949  1.00  0.00     0.030 A 
HETATM    7  C   UNL     1       9.556  29.325  55.565  1.00  0.00     0.011 A 
ENDROOT
BRANCH   3   8
HETATM    8  N   UNL     1       8.469  29.493  59.087  1.00  0.00    -0.308 N 
HETATM    9  C   UNL     1       8.185  30.616  59.801  1.00  0.00     0.321 C 
HETATM   10  N   UNL     1       7.540  31.619  59.153  1.00  0.00    -0.336 N 
HETATM   11  O   UNL     1       8.406  30.640  61.011  1.00  0.00    -0.247 OA
HETATM   12  H   UNL     1       7.096  31.400  58.270  1.00  0.00     0.164 HD
HETATM   13  H   UNL     1       8.600  28.697  59.697  1.00  0.00     0.170 HD
BRANCH  10  14
HETATM   14  C   UNL     1       6.915  32.679  59.905  1.00  0.00     0.202 C 
BRANCH  14  15
HETATM   15  C   UNL     1       5.468  32.360  60.078  1.00  0.00     0.121 A 
HETATM   16  N   UNL     1       4.542  32.294  59.137  1.00  0.00    -0.244 NA
HETATM   17  C   UNL     1       3.378  31.975  59.785  1.00  0.00     0.135 A 
HETATM   18  C   UNL     1       3.595  31.831  61.133  1.00  0.00     0.109 A 
HETATM   19  N   UNL     1       4.929  32.070  61.308  1.00  0.00    -0.352 N 
HETATM   20  H   UNL     1       5.435  32.036  62.183  1.00  0.00     0.166 HD
ENDBRANCH  14  15
ENDBRANCH  10  14
ENDBRANCH   3   8
BRANCH   5  21
HETATM   21  N   UNL     1       6.117  28.221  54.911  1.00  0.00    -0.323 N 
HETATM   22  C   UNL     1       5.699  27.088  54.267  1.00  0.00     0.256 C 
HETATM   23  O   UNL     1       4.517  27.024  53.914  1.00  0.00    -0.267 OA
HETATM   24  H   UNL     1       5.356  28.892  54.906  1.00  0.00     0.169 HD
BRANCH  22  25
HETATM   25  C   UNL     1       6.566  25.950  53.930  1.00  0.00     0.032 A 
HETATM   26  C   UNL     1       7.306  25.927  52.745  1.00  0.00     0.017 A 
HETATM   27  C   UNL     1       8.000  24.767  52.392  1.00  0.00     0.001 A 
HETATM   28  C   UNL     1       7.944  23.634  53.204  1.00  0.00     0.000 A 
HETATM   29  C   UNL     1       7.183  23.649  54.372  1.00  0.00     0.001 A 
HETATM   30  C   UNL     1       6.487  24.803  54.731  1.00  0.00     0.017 A 
ENDBRANCH  22  25
ENDBRANCH   5  21
TORSDOF 5
ENDMDL
MODEL 9
REMARK VINA RESULT:      -8.4      5.181      6.579
REMARK  5 active torsions:
REMARK  status: ('A' for Active; 'I' for Inactive)
REMARK    1  A    between atoms: C_3  and  N_4 
REMARK       I    between atoms: N_4  and  C_5 
REMARK       I    between atoms: C_5  and  N_6 
REMARK    2  A    between atoms: N_6  and  C_7 
REMARK    3  A    between atoms: C_7  and  C_8 
REMARK    4  A    between atoms: C_16  and  N_17 
REMARK       I    between atoms: N_17  and  C_18 
REMARK    5  A    between atoms: C_18  and  C_19 
ROOT
HETATM    1  C   UNL     1       4.607  26.400  49.754  1.00  0.00     0.050 C 
HETATM    2  C   UNL     1       5.082  26.103  51.151  1.00  0.00    -0.035 A 
HETATM    3  C   UNL     1       5.887  27.000  51.879  1.00  0.00     0.044 A 
HETATM    4  C   UNL     1       6.296  26.682  53.192  1.00  0.00     0.059 A 
HETATM    5  C   UNL     1       5.947  25.463  53.771  1.00  0.00     0.037 A 
HETATM    6  C   UNL     1       5.188  24.558  53.014  1.00  0.00     0.030 A 
HETATM    7  C   UNL     1       4.755  24.874  51.726  1.00  0.00     0.011 A 
ENDROOT
BRANCH   3   8
HETATM    8  N   UNL     1       6.205  28.239  51.291  1.00  0.00    -0.308 N 
HETATM    9  C   UNL     1       5.499  29.401  51.233  1.00  0.00     0.321 C 
HETATM   10  N   UNL     1       4.418  29.514  52.046  1.00  0.00    -0.336 N 
HETATM   11  O   UNL     1       5.919  30.335  50.551  1.00  0.00    -0.247 OA
HETATM   12  H   UNL     1       4.332  28.855  52.809  1.00  0.00     0.164 HD
HETATM   13  H   UNL     1       7.150  28.370  50.958  1.00  0.00     0.170 HD
BRANCH  10  14
HETATM   14  C   UNL     1       3.830  30.808  52.287  1.00  0.00     0.202 C 
BRANCH  14  15
HETATM   15  C   UNL     1       3.481  30.919  53.733  1.00  0.00     0.121 A 
HETATM   16  N   UNL     1       4.065  30.309  54.750  1.00  0.00    -0.244 NA
HETATM   17  C   UNL     1       3.393  30.724  55.868  1.00  0.00     0.135 A 
HETATM   18  C   UNL     1       2.396  31.608  55.536  1.00  0.00     0.109 A 
HETATM   19  N   UNL     1       2.465  31.731  54.177  1.00  0.00    -0.352 N 
HETATM   20  H   UNL     1       1.880  32.317  53.597  1.00  0.00     0.166 HD
ENDBRANCH  14  15
ENDBRANCH  10  14
ENDBRANCH   3   8
BRANCH   5  21
HETATM   21  N   UNL     1       6.211  25.053  55.090  1.00  0.00    -0.323 N 
HETATM   22  C   UNL     1       6.996  24.102  55.686  1.00  0.00     0.256 C 
HETATM   23  O   UNL     1       7.208  24.202  56.898  1.00  0.00    -0.267 OA
HETATM   24  H   UNL     1       5.843  25.662  55.812  1.00  0.00     0.169 HD
BRANCH  22  25
HETATM   25  C   UNL     1       7.578  22.944  54.992  1.00  0.00     0.032 A 
HETATM   26  C   UNL     1       7.995  23.029  53.662  1.00  0.00     0.017 A 
HETATM   27  C   UNL     1       8.404  21.871  52.996  1.00  0.00     0.001 A 
HETATM   28  C   UNL     1       8.382  20.636  53.645  1.00  0.00     0.000 A 
HETATM   29  C   UNL     1       7.941  20.549  54.964  1.00  0.00     0.001 A 
HETATM   30  C   UNL     1       7.530  21.699  55.635  1.00  0.00     0.017 A 
ENDBRANCH  22  25
ENDBRANCH   5  21
TORSDOF 5
ENDMDL
MODEL 10
REMARK VINA RESULT:      -8.3      5.729      8.677
REMARK  5 active torsions:
REMARK  status: ('A' for Active; 'I' for Inactive)
REMARK    1  A    between atoms: C_3  and  N_4 
REMARK       I    between atoms: N_4  and  C_5 
REMARK       I    between atoms: C_5  and  N_6 
REMARK    2  A    between atoms: N_6  and  C_7 
REMARK    3  A    between atoms: C_7  and  C_8 
REMARK    4  A    between atoms: C_16  and  N_17 
REMARK       I    between atoms: N_17  and  C_18 
REMARK    5  A    between atoms: C_18  and  C_19 
ROOT
HETATM    1  C   UNL     1       5.207  28.524  55.511  1.00  0.00     0.050 C 
HETATM    2  C   UNL     1       5.733  27.307  54.797  1.00  0.00    -0.035 A 
HETATM    3  C   UNL     1       5.041  26.702  53.732  1.00  0.00     0.044 A 
HETATM    4  C   UNL     1       5.583  25.570  53.085  1.00  0.00     0.059 A 
HETATM    5  C   UNL     1       6.786  25.011  53.516  1.00  0.00     0.037 A 
HETATM    6  C   UNL     1       7.437  25.596  54.613  1.00  0.00     0.030 A 
HETATM    7  C   UNL     1       6.925  26.731  55.241  1.00  0.00     0.011 A 
ENDROOT
BRANCH   3   8
HETATM    8  N   UNL     1       3.845  27.296  53.289  1.00  0.00    -0.308 N 
HETATM    9  C   UNL     1       3.607  28.151  52.257  1.00  0.00     0.321 C 
HETATM   10  N   UNL     1       4.594  28.307  51.338  1.00  0.00    -0.336 N 
HETATM   11  O   UNL     1       2.491  28.651  52.125  1.00  0.00    -0.247 OA
HETATM   12  H   UNL     1       5.338  27.621  51.325  1.00  0.00     0.164 HD
HETATM   13  H   UNL     1       2.979  26.966  53.695  1.00  0.00     0.170 HD
BRANCH  10  14
HETATM   14  C   UNL     1       4.302  28.917  50.065  1.00  0.00     0.202 C 
BRANCH  14  15
HETATM   15  C   UNL     1       3.834  27.863  49.119  1.00  0.00     0.121 A 
HETATM   16  N   UNL     1       4.574  27.114  48.321  1.00  0.00    -0.244 NA
HETATM   17  C   UNL     1       3.695  26.304  47.651  1.00  0.00     0.135 A 
HETATM   18  C   UNL     1       2.405  26.550  48.053  1.00  0.00     0.109 A 
HETATM   19  N   UNL     1       2.505  27.538  48.993  1.00  0.00    -0.352 N 
HETATM   20  H   UNL     1       1.742  27.955  49.508  1.00  0.00     0.166 HD
ENDBRANCH  14  15
ENDBRANCH  10  14
ENDBRANCH   3   8
BRANCH   5  21
HETATM   21  N   UNL     1       7.479  23.944  52.917  1.00  0.00    -0.323 N 
HETATM   22  C   UNL     1       7.848  22.679  53.288  1.00  0.00     0.256 C 
HETATM   23  O   UNL     1       8.208  21.897  52.402  1.00  0.00    -0.267 OA
HETATM   24  H   UNL     1       7.665  24.055  51.926  1.00  0.00     0.169 HD
BRANCH  22  25
HETATM   25  C   UNL     1       7.881  22.190  54.674  1.00  0.00     0.032 A 
HETATM   26  C   UNL     1       8.328  23.001  55.719  1.00  0.00     0.017 A 
HETATM   27  C   UNL     1       8.484  22.453  56.994  1.00  0.00     0.001 A 
HETATM   28  C   UNL     1       8.212  21.104  57.223  1.00  0.00     0.000 A 
HETATM   29  C   UNL     1       7.791  20.289  56.173  1.00  0.00     0.001 A 
HETATM   30  C   UNL     1       7.635  20.829  54.897  1.00  0.00     0.017 A 
ENDBRANCH  22  25
ENDBRANCH   5  21
TORSDOF 5
ENDMDL
