MODEL 1
REMARK VINA RESULT:      -9.9      0.000      0.000
REMARK  6 active torsions:
REMARK  status: ('A' for Active; 'I' for Inactive)
REMARK    1  A    between atoms: C_2  and  O_3 
REMARK    2  A    between atoms: C_2  and  C_4 
REMARK    3  A    between atoms: C_2  and  C_11 
REMARK    4  A    between atoms: C_11  and  N_12 
REMARK       I    between atoms: N_12  and  C_13 
REMARK    5  A    between atoms: C_13  and  C_14 
REMARK    6  A    between atoms: C_18  and  C_19 
ROOT
HETATM    1  N   UNL     1       7.369  29.330  58.556  1.00  0.00    -0.352 N 
HETATM    2  C   UNL     1       7.430  28.913  57.246  1.00  0.00     0.272 C 
HETATM    3  O   UNL     1       7.381  29.677  56.287  1.00  0.00    -0.266 OA
HETATM    4  H   UNL     1       7.542  28.612  59.255  1.00  0.00     0.162 HD
ENDROOT
BRANCH   2   5
HETATM    5  C   UNL     1       7.570  27.455  57.100  1.00  0.00     0.146 A 
HETATM    6  N   UNL     1       7.776  26.643  58.155  1.00  0.00    -0.169 NA
HETATM    7  N   UNL     1       7.854  25.417  57.607  1.00  0.00    -0.277 N 
HETATM    8  H   UNL     1       8.040  24.632  58.222  1.00  0.00     0.189 HD
HETATM    9  C   UNL     1       7.685  25.388  56.246  1.00  0.00     0.063 A 
HETATM   10  C   UNL     1       7.514  26.712  55.894  1.00  0.00     0.071 A 
BRANCH   9  11
HETATM   11  C   UNL     1       7.726  24.169  55.441  1.00  0.00    -0.008 A 
HETATM   12  C   UNL     1       7.799  22.901  56.041  1.00  0.00     0.017 A 
HETATM   13  C   UNL     1       7.834  21.744  55.258  1.00  0.00     0.043 A 
HETATM   14  C   UNL     1       7.795  21.850  53.873  1.00  0.00     0.116 A 
HETATM   15  F   UNL     1       7.827  20.740  53.125  1.00  0.00    -0.206 F 
HETATM   16  C   UNL     1       7.717  23.091  53.257  1.00  0.00     0.043 A 
HETATM   17  C   UNL     1       7.681  24.248  54.040  1.00  0.00     0.017 A 
ENDBRANCH   9  11
ENDBRANCH   2   5
BRANCH   1  18
HETATM   18  C   UNL     1       7.354  30.727  58.948  1.00  0.00     0.165 C 
BRANCH  18  19
HETATM   19  C   UNL     1       8.383  31.071  60.064  1.00  0.00     0.097 C 
HETATM   20  C   UNL     1       9.630  31.740  59.469  1.00  0.00     0.053 C 
BRANCH  19  21
HETATM   21  O   UNL     1       8.802  29.816  60.642  1.00  0.00    -0.384 OA
HETATM   22  H   UNL     1       8.231  29.653  61.413  1.00  0.00     0.211 HD
ENDBRANCH  19  21
BRANCH  19  23
HETATM   23  C   UNL     1       7.817  31.942  61.194  1.00  0.00    -0.023 A 
HETATM   24  C   UNL     1       6.715  32.799  61.021  1.00  0.00     0.013 A 
HETATM   25  C   UNL     1       6.240  33.581  62.079  1.00  0.00     0.043 A 
HETATM   26  C   UNL     1       6.866  33.522  63.317  1.00  0.00     0.116 A 
HETATM   27  F   UNL     1       6.409  34.274  64.325  1.00  0.00    -0.206 F 
HETATM   28  C   UNL     1       7.960  32.695  63.519  1.00  0.00     0.043 A 
HETATM   29  C   UNL     1       8.434  31.912  62.465  1.00  0.00     0.013 A 
ENDBRANCH  19  23
ENDBRANCH  18  19
ENDBRANCH   1  18
TORSDOF 6
ENDMDL
MODEL 2
REMARK VINA RESULT:      -9.6      2.073      2.944
REMARK  6 active torsions:
REMARK  status: ('A' for Active; 'I' for Inactive)
REMARK    1  A    between atoms: C_2  and  O_3 
REMARK    2  A    between atoms: C_2  and  C_4 
REMARK    3  A    between atoms: C_2  and  C_11 
REMARK    4  A    between atoms: C_11  and  N_12 
REMARK       I    between atoms: N_12  and  C_13 
REMARK    5  A    between atoms: C_13  and  C_14 
REMARK    6  A    between atoms: C_18  and  C_19 
ROOT
HETATM    1  N   UNL     1       7.233  31.075  59.924  1.00  0.00    -0.352 N 
HETATM    2  C   UNL     1       8.279  31.215  59.040  1.00  0.00     0.272 C 
HETATM    3  O   UNL     1       8.943  32.241  58.931  1.00  0.00    -0.266 OA
HETATM    4  H   UNL     1       6.845  30.138  60.002  1.00  0.00     0.162 HD
ENDROOT
BRANCH   2   5
HETATM    5  C   UNL     1       8.535  30.008  58.239  1.00  0.00     0.146 A 
HETATM    6  N   UNL     1       9.661  29.849  57.515  1.00  0.00    -0.169 NA
HETATM    7  N   UNL     1       9.506  28.645  56.938  1.00  0.00    -0.277 N 
HETATM    8  H   UNL     1      10.233  28.320  56.311  1.00  0.00     0.189 HD
HETATM    9  C   UNL     1       8.342  27.999  57.268  1.00  0.00     0.063 A 
HETATM   10  C   UNL     1       7.686  28.880  58.105  1.00  0.00     0.071 A 
BRANCH   9  11
HETATM   11  C   UNL     1       7.964  26.680  56.763  1.00  0.00    -0.008 A 
HETATM   12  C   UNL     1       8.416  25.504  57.385  1.00  0.00     0.017 A 
HETATM   13  C   UNL     1       8.044  24.251  56.893  1.00  0.00     0.043 A 
HETATM   14  C   UNL     1       7.218  24.167  55.779  1.00  0.00     0.116 A 
HETATM   15  F   UNL     1       6.862  22.965  55.309  1.00  0.00    -0.206 F 
HETATM   16  C   UNL     1       6.755  25.315  55.150  1.00  0.00     0.043 A 
HETATM   17  C   UNL     1       7.125  26.568  55.642  1.00  0.00     0.017 A 
ENDBRANCH   9  11
ENDBRANCH   2   5
BRANCH   1  18
HETATM   18  C   UNL     1       6.874  32.086  60.902  1.00  0.00     0.165 C 
BRANCH  18  19
HETATM   19  C   UNL     1       7.463  31.819  62.317  1.00  0.00     0.097 C 
HETATM   20  C   UNL     1       8.972  32.102  62.343  1.00  0.00     0.053 C 
BRANCH  19  21
HETATM   21  O   UNL     1       7.285  30.411  62.582  1.00  0.00    -0.384 OA
HETATM   22  H   UNL     1       6.328  30.236  62.562  1.00  0.00     0.211 HD
ENDBRANCH  19  21
BRANCH  19  23
HETATM   23  C   UNL     1       6.770  32.599  63.443  1.00  0.00    -0.023 A 
HETATM   24  C   UNL     1       5.378  32.794  63.495  1.00  0.00     0.013 A 
HETATM   25  C   UNL     1       4.792  33.520  64.538  1.00  0.00     0.043 A 
HETATM   26  C   UNL     1       5.591  34.066  65.533  1.00  0.00     0.116 A 
HETATM   27  F   UNL     1       5.026  34.762  66.526  1.00  0.00    -0.206 F 
HETATM   28  C   UNL     1       6.968  33.901  65.507  1.00  0.00     0.043 A 
HETATM   29  C   UNL     1       7.553  33.174  64.469  1.00  0.00     0.013 A 
ENDBRANCH  19  23
ENDBRANCH  18  19
ENDBRANCH   1  18
TORSDOF 6
ENDMDL
MODEL 3
REMARK VINA RESULT:      -9.5      1.543     10.469
REMARK  6 active torsions:
REMARK  status: ('A' for Active; 'I' for Inactive)
REMARK    1  A    between atoms: C_2  and  O_3 
REMARK    2  A    between atoms: C_2  and  C_4 
REMARK    3  A    between atoms: C_2  and  C_11 
REMARK    4  A    between atoms: C_11  and  N_12 
REMARK       I    between atoms: N_12  and  C_13 
REMARK    5  A    between atoms: C_13  and  C_14 
REMARK    6  A    between atoms: C_18  and  C_19 
ROOT
HETATM    1  N   UNL     1       7.660  28.011  57.507  1.00  0.00    -0.352 N 
HETATM    2  C   UNL     1       8.464  29.087  57.806  1.00  0.00     0.272 C 
HETATM    3  O   UNL     1       9.613  29.211  57.392  1.00  0.00    -0.266 OA
HETATM    4  H   UNL     1       6.692  28.088  57.810  1.00  0.00     0.162 HD
ENDROOT
BRANCH   2   5
HETATM    5  C   UNL     1       7.811  30.088  58.663  1.00  0.00     0.146 A 
HETATM    6  N   UNL     1       6.676  30.719  58.299  1.00  0.00    -0.169 NA
HETATM    7  N   UNL     1       6.418  31.540  59.332  1.00  0.00    -0.277 N 
HETATM    8  H   UNL     1       5.610  32.148  59.266  1.00  0.00     0.189 HD
HETATM    9  C   UNL     1       7.318  31.459  60.364  1.00  0.00     0.063 A 
HETATM   10  C   UNL     1       8.245  30.527  59.940  1.00  0.00     0.071 A 
BRANCH   9  11
HETATM   11  C   UNL     1       7.235  32.254  61.588  1.00  0.00    -0.008 A 
HETATM   12  C   UNL     1       8.069  31.990  62.687  1.00  0.00     0.017 A 
HETATM   13  C   UNL     1       7.979  32.761  63.849  1.00  0.00     0.043 A 
HETATM   14  C   UNL     1       7.059  33.800  63.917  1.00  0.00     0.116 A 
HETATM   15  F   UNL     1       6.976  34.538  65.030  1.00  0.00    -0.206 F 
HETATM   16  C   UNL     1       6.228  34.084  62.841  1.00  0.00     0.043 A 
HETATM   17  C   UNL     1       6.318  33.314  61.679  1.00  0.00     0.017 A 
ENDBRANCH   9  11
ENDBRANCH   2   5
BRANCH   1  18
HETATM   18  C   UNL     1       8.042  26.961  56.582  1.00  0.00     0.165 C 
BRANCH  18  19
HETATM   19  C   UNL     1       7.487  25.559  56.968  1.00  0.00     0.097 C 
HETATM   20  C   UNL     1       5.973  25.621  57.216  1.00  0.00     0.053 C 
BRANCH  19  21
HETATM   21  O   UNL     1       8.114  25.194  58.215  1.00  0.00    -0.384 OA
HETATM   22  H   UNL     1       8.612  24.374  58.055  1.00  0.00     0.211 HD
ENDBRANCH  19  21
BRANCH  19  23
HETATM   23  C   UNL     1       7.799  24.457  55.946  1.00  0.00    -0.023 A 
HETATM   24  C   UNL     1       8.868  23.555  56.095  1.00  0.00     0.013 A 
HETATM   25  C   UNL     1       9.118  22.571  55.132  1.00  0.00     0.043 A 
HETATM   26  C   UNL     1       8.310  22.485  54.007  1.00  0.00     0.116 A 
HETATM   27  F   UNL     1       8.556  21.544  53.087  1.00  0.00    -0.206 F 
HETATM   28  C   UNL     1       7.253  23.364  53.824  1.00  0.00     0.043 A 
HETATM   29  C   UNL     1       7.001  24.345  54.786  1.00  0.00     0.013 A 
ENDBRANCH  19  23
ENDBRANCH  18  19
ENDBRANCH   1  18
TORSDOF 6
ENDMDL
MODEL 4
REMARK VINA RESULT:      -9.5      2.026     10.241
REMARK  6 active torsions:
REMARK  status: ('A' for Active; 'I' for Inactive)
REMARK    1  A    between atoms: C_2  and  O_3 
REMARK    2  A    between atoms: C_2  and  C_4 
REMARK    3  A    between atoms: C_2  and  C_11 
REMARK    4  A    between atoms: C_11  and  N_12 
REMARK       I    between atoms: N_12  and  C_13 
REMARK    5  A    between atoms: C_13  and  C_14 
REMARK    6  A    between atoms: C_18  and  C_19 
ROOT
HETATM    1  N   UNL     1       7.305  27.088  55.194  1.00  0.00    -0.352 N 
HETATM    2  C   UNL     1       7.920  28.309  55.349  1.00  0.00     0.272 C 
HETATM    3  O   UNL     1       8.731  28.767  54.549  1.00  0.00    -0.266 OA
HETATM    4  H   UNL     1       6.565  26.881  55.862  1.00  0.00     0.162 HD
ENDROOT
BRANCH   2   5
HETATM    5  C   UNL     1       7.506  29.026  56.565  1.00  0.00     0.146 A 
HETATM    6  N   UNL     1       6.211  29.245  56.866  1.00  0.00    -0.169 NA
HETATM    7  N   UNL     1       6.260  29.923  58.027  1.00  0.00    -0.277 N 
HETATM    8  H   UNL     1       5.384  30.227  58.438  1.00  0.00     0.189 HD
HETATM    9  C   UNL     1       7.526  30.137  58.509  1.00  0.00     0.063 A 
HETATM   10  C   UNL     1       8.355  29.573  57.561  1.00  0.00     0.071 A 
BRANCH   9  11
HETATM   11  C   UNL     1       7.819  30.847  59.753  1.00  0.00    -0.008 A 
HETATM   12  C   UNL     1       6.985  31.877  60.219  1.00  0.00     0.017 A 
HETATM   13  C   UNL     1       7.277  32.543  61.412  1.00  0.00     0.043 A 
HETATM   14  C   UNL     1       8.400  32.182  62.145  1.00  0.00     0.116 A 
HETATM   15  F   UNL     1       8.677  32.822  63.288  1.00  0.00    -0.206 F 
HETATM   16  C   UNL     1       9.237  31.164  61.708  1.00  0.00     0.043 A 
HETATM   17  C   UNL     1       8.945  30.496  60.516  1.00  0.00     0.017 A 
ENDBRANCH   9  11
ENDBRANCH   2   5
BRANCH   1  18
HETATM   18  C   UNL     1       7.462  26.259  54.015  1.00  0.00     0.165 C 
BRANCH  18  19
HETATM   19  C   UNL     1       6.435  25.091  53.934  1.00  0.00     0.097 C 
HETATM   20  C   UNL     1       5.658  25.138  52.611  1.00  0.00     0.053 C 
BRANCH  19  21
HETATM   21  O   UNL     1       5.485  25.301  55.000  1.00  0.00    -0.384 OA
HETATM   22  H   UNL     1       5.840  24.856  55.790  1.00  0.00     0.211 HD
ENDBRANCH  19  21
BRANCH  19  23
HETATM   23  C   UNL     1       7.053  23.699  54.124  1.00  0.00    -0.023 A 
HETATM   24  C   UNL     1       7.230  23.104  55.386  1.00  0.00     0.013 A 
HETATM   25  C   UNL     1       7.805  21.836  55.509  1.00  0.00     0.043 A 
HETATM   26  C   UNL     1       8.218  21.152  54.374  1.00  0.00     0.116 A 
HETATM   27  F   UNL     1       8.771  19.939  54.498  1.00  0.00    -0.206 F 
HETATM   28  C   UNL     1       8.067  21.711  53.115  1.00  0.00     0.043 A 
HETATM   29  C   UNL     1       7.490  22.977  52.991  1.00  0.00     0.013 A 
ENDBRANCH  19  23
ENDBRANCH  18  19
ENDBRANCH   1  18
TORSDOF 6
ENDMDL
MODEL 5
REMARK VINA RESULT:      -9.1      3.421      4.349
REMARK  6 active torsions:
REMARK  status: ('A' for Active; 'I' for Inactive)
REMARK    1  A    between atoms: C_2  and  O_3 
REMARK    2  A    between atoms: C_2  and  C_4 
REMARK    3  A    between atoms: C_2  and  C_11 
REMARK    4  A    between atoms: C_11  and  N_12 
REMARK       I    between atoms: N_12  and  C_13 
REMARK    5  A    between atoms: C_13  and  C_14 
REMARK    6  A    between atoms: C_18  and  C_19 
ROOT
HETATM    1  N   UNL     1       5.414  28.135  57.406  1.00  0.00    -0.352 N 
HETATM    2  C   UNL     1       5.210  27.393  56.265  1.00  0.00     0.272 C 
HETATM    3  O   UNL     1       4.508  27.766  55.330  1.00  0.00    -0.266 OA
HETATM    4  H   UNL     1       6.112  27.769  58.050  1.00  0.00     0.162 HD
ENDROOT
BRANCH   2   5
HETATM    5  C   UNL     1       5.924  26.107  56.266  1.00  0.00     0.146 A 
HETATM    6  N   UNL     1       6.464  25.583  57.384  1.00  0.00    -0.169 NA
HETATM    7  N   UNL     1       7.020  24.432  56.965  1.00  0.00    -0.277 N 
HETATM    8  H   UNL     1       7.519  23.870  57.645  1.00  0.00     0.189 HD
HETATM    9  C   UNL     1       6.848  24.168  55.630  1.00  0.00     0.063 A 
HETATM   10  C   UNL     1       6.149  25.259  55.152  1.00  0.00     0.071 A 
BRANCH   9  11
HETATM   11  C   UNL     1       7.362  22.976  54.958  1.00  0.00    -0.008 A 
HETATM   12  C   UNL     1       7.580  22.958  53.571  1.00  0.00     0.017 A 
HETATM   13  C   UNL     1       8.075  21.812  52.943  1.00  0.00     0.043 A 
HETATM   14  C   UNL     1       8.356  20.681  53.699  1.00  0.00     0.116 A 
HETATM   15  F   UNL     1       8.831  19.585  53.095  1.00  0.00    -0.206 F 
HETATM   16  C   UNL     1       8.154  20.676  55.072  1.00  0.00     0.043 A 
HETATM   17  C   UNL     1       7.660  21.822  55.701  1.00  0.00     0.017 A 
ENDBRANCH   9  11
ENDBRANCH   2   5
BRANCH   1  18
HETATM   18  C   UNL     1       4.913  29.485  57.581  1.00  0.00     0.165 C 
BRANCH  18  19
HETATM   19  C   UNL     1       5.849  30.578  56.986  1.00  0.00     0.097 C 
HETATM   20  C   UNL     1       5.501  31.962  57.552  1.00  0.00     0.053 C 
BRANCH  19  21
HETATM   21  O   UNL     1       5.593  30.615  55.567  1.00  0.00    -0.384 OA
HETATM   22  H   UNL     1       4.796  31.159  55.435  1.00  0.00     0.211 HD
ENDBRANCH  19  21
BRANCH  19  23
HETATM   23  C   UNL     1       7.345  30.298  57.185  1.00  0.00    -0.023 A 
HETATM   24  C   UNL     1       8.051  30.688  58.338  1.00  0.00     0.013 A 
HETATM   25  C   UNL     1       9.417  30.418  58.470  1.00  0.00     0.043 A 
HETATM   26  C   UNL     1      10.094  29.765  57.450  1.00  0.00     0.116 A 
HETATM   27  F   UNL     1      11.402  29.512  57.580  1.00  0.00    -0.206 F 
HETATM   28  C   UNL     1       9.431  29.375  56.296  1.00  0.00     0.043 A 
HETATM   29  C   UNL     1       8.067  29.641  56.164  1.00  0.00     0.013 A 
ENDBRANCH  19  23
ENDBRANCH  18  19
ENDBRANCH   1  18
TORSDOF 6
ENDMDL
MODEL 6
REMARK VINA RESULT:      -9.0      1.911      2.506
REMARK  6 active torsions:
REMARK  status: ('A' for Active; 'I' for Inactive)
REMARK    1  A    between atoms: C_2  and  O_3 
REMARK    2  A    between atoms: C_2  and  C_4 
REMARK    3  A    between atoms: C_2  and  C_11 
REMARK    4  A    between atoms: C_11  and  N_12 
REMARK       I    between atoms: N_12  and  C_13 
REMARK    5  A    between atoms: C_13  and  C_14 
REMARK    6  A    between atoms: C_18  and  C_19 
ROOT
HETATM    1  N   UNL     1       6.951  28.544  56.387  1.00  0.00    -0.352 N 
HETATM    2  C   UNL     1       5.760  27.937  56.061  1.00  0.00     0.272 C 
HETATM    3  O   UNL     1       4.661  28.389  56.370  1.00  0.00    -0.266 OA
HETATM    4  H   UNL     1       7.783  28.134  55.967  1.00  0.00     0.162 HD
ENDROOT
BRANCH   2   5
HETATM    5  C   UNL     1       5.925  26.694  55.292  1.00  0.00     0.146 A 
HETATM    6  N   UNL     1       5.245  26.456  54.152  1.00  0.00    -0.169 NA
HETATM    7  N   UNL     1       5.667  25.236  53.774  1.00  0.00    -0.277 N 
HETATM    8  H   UNL     1       5.260  24.830  52.939  1.00  0.00     0.189 HD
HETATM    9  C   UNL     1       6.606  24.676  54.601  1.00  0.00     0.063 A 
HETATM   10  C   UNL     1       6.777  25.606  55.608  1.00  0.00     0.071 A 
BRANCH   9  11
HETATM   11  C   UNL     1       7.208  23.361  54.386  1.00  0.00    -0.008 A 
HETATM   12  C   UNL     1       7.573  22.928  53.100  1.00  0.00     0.017 A 
HETATM   13  C   UNL     1       8.150  21.670  52.910  1.00  0.00     0.043 A 
HETATM   14  C   UNL     1       8.367  20.841  54.003  1.00  0.00     0.116 A 
HETATM   15  F   UNL     1       8.920  19.636  53.819  1.00  0.00    -0.206 F 
HETATM   16  C   UNL     1       8.020  21.248  55.284  1.00  0.00     0.043 A 
HETATM   17  C   UNL     1       7.444  22.506  55.475  1.00  0.00     0.017 A 
ENDBRANCH   9  11
ENDBRANCH   2   5
BRANCH   1  18
HETATM   18  C   UNL     1       7.037  29.839  57.035  1.00  0.00     0.165 C 
BRANCH  18  19
HETATM   19  C   UNL     1       8.088  29.893  58.182  1.00  0.00     0.097 C 
HETATM   20  C   UNL     1       9.499  30.110  57.619  1.00  0.00     0.053 C 
BRANCH  19  21
HETATM   21  O   UNL     1       8.072  28.598  58.818  1.00  0.00    -0.384 OA
HETATM   22  H   UNL     1       7.257  28.550  59.348  1.00  0.00     0.211 HD
ENDBRANCH  19  21
BRANCH  19  23
HETATM   23  C   UNL     1       7.791  30.948  59.256  1.00  0.00    -0.023 A 
HETATM   24  C   UNL     1       6.615  31.720  59.268  1.00  0.00     0.013 A 
HETATM   25  C   UNL     1       6.392  32.676  60.264  1.00  0.00     0.043 A 
HETATM   26  C   UNL     1       7.345  32.877  61.253  1.00  0.00     0.116 A 
HETATM   27  F   UNL     1       7.128  33.796  62.202  1.00  0.00    -0.206 F 
HETATM   28  C   UNL     1       8.520  32.140  61.267  1.00  0.00     0.043 A 
HETATM   29  C   UNL     1       8.741  31.184  60.274  1.00  0.00     0.013 A 
ENDBRANCH  19  23
ENDBRANCH  18  19
ENDBRANCH   1  18
TORSDOF 6
ENDMDL
MODEL 7
REMARK VINA RESULT:      -8.6      7.577     10.396
REMARK  6 active torsions:
REMARK  status: ('A' for Active; 'I' for Inactive)
REMARK    1  A    between atoms: C_2  and  O_3 
REMARK    2  A    between atoms: C_2  and  C_4 
REMARK    3  A    between atoms: C_2  and  C_11 
REMARK    4  A    between atoms: C_11  and  N_12 
REMARK       I    between atoms: N_12  and  C_13 
REMARK    5  A    between atoms: C_13  and  C_14 
REMARK    6  A    between atoms: C_18  and  C_19 
ROOT
HETATM    1  N   UNL     1       6.739  26.216  52.455  1.00  0.00    -0.352 N 
HETATM    2  C   UNL     1       6.390  27.545  52.524  1.00  0.00     0.272 C 
HETATM    3  O   UNL     1       6.837  28.321  53.364  1.00  0.00    -0.266 OA
HETATM    4  H   UNL     1       6.394  25.712  51.642  1.00  0.00     0.162 HD
ENDROOT
BRANCH   2   5
HETATM    5  C   UNL     1       5.435  27.956  51.483  1.00  0.00     0.146 A 
HETATM    6  N   UNL     1       5.150  29.250  51.238  1.00  0.00    -0.169 NA
HETATM    7  N   UNL     1       4.247  29.198  50.242  1.00  0.00    -0.277 N 
HETATM    8  H   UNL     1       3.859  30.072  49.905  1.00  0.00     0.189 HD
HETATM    9  C   UNL     1       3.946  27.932  49.811  1.00  0.00     0.063 A 
HETATM   10  C   UNL     1       4.700  27.105  50.620  1.00  0.00     0.071 A 
BRANCH   9  11
HETATM   11  C   UNL     1       2.996  27.635  48.740  1.00  0.00    -0.008 A 
HETATM   12  C   UNL     1       3.143  26.497  47.929  1.00  0.00     0.017 A 
HETATM   13  C   UNL     1       2.225  26.226  46.911  1.00  0.00     0.043 A 
HETATM   14  C   UNL     1       1.156  27.087  46.701  1.00  0.00     0.116 A 
HETATM   15  F   UNL     1       0.277  26.824  45.726  1.00  0.00    -0.206 F 
HETATM   16  C   UNL     1       0.986  28.215  47.493  1.00  0.00     0.043 A 
HETATM   17  C   UNL     1       1.903  28.487  48.511  1.00  0.00     0.017 A 
ENDBRANCH   9  11
ENDBRANCH   2   5
BRANCH   1  18
HETATM   18  C   UNL     1       7.755  25.612  53.297  1.00  0.00     0.165 C 
BRANCH  18  19
HETATM   19  C   UNL     1       7.172  24.752  54.456  1.00  0.00     0.097 C 
HETATM   20  C   UNL     1       5.639  24.837  54.481  1.00  0.00     0.053 C 
BRANCH  19  21
HETATM   21  O   UNL     1       7.655  25.332  55.686  1.00  0.00    -0.384 OA
HETATM   22  H   UNL     1       8.515  24.918  55.878  1.00  0.00     0.211 HD
ENDBRANCH  19  21
BRANCH  19  23
HETATM   23  C   UNL     1       7.609  23.281  54.428  1.00  0.00    -0.023 A 
HETATM   24  C   UNL     1       7.988  22.617  53.247  1.00  0.00     0.013 A 
HETATM   25  C   UNL     1       8.371  21.272  53.269  1.00  0.00     0.043 A 
HETATM   26  C   UNL     1       8.370  20.574  54.469  1.00  0.00     0.116 A 
HETATM   27  F   UNL     1       8.735  19.286  54.485  1.00  0.00    -0.206 F 
HETATM   28  C   UNL     1       7.993  21.195  55.650  1.00  0.00     0.043 A 
HETATM   29  C   UNL     1       7.613  22.538  55.629  1.00  0.00     0.013 A 
ENDBRANCH  19  23
ENDBRANCH  18  19
ENDBRANCH   1  18
TORSDOF 6
ENDMDL
MODEL 8
REMARK VINA RESULT:      -8.5      4.659      5.960
REMARK  6 active torsions:
REMARK  status: ('A' for Active; 'I' for Inactive)
REMARK    1  A    between atoms: C_2  and  O_3 
REMARK    2  A    between atoms: C_2  and  C_4 
REMARK    3  A    between atoms: C_2  and  C_11 
REMARK    4  A    between atoms: C_11  and  N_12 
REMARK       I    between atoms: N_12  and  C_13 
REMARK    5  A    between atoms: C_13  and  C_14 
REMARK    6  A    between atoms: C_18  and  C_19 
ROOT
HETATM    1  N   UNL     1       4.443  27.136  53.355  1.00  0.00    -0.352 N 
HETATM    2  C   UNL     1       5.131  26.788  52.215  1.00  0.00     0.272 C 
HETATM    3  O   UNL     1       4.996  27.363  51.139  1.00  0.00    -0.266 OA
HETATM    4  H   UNL     1       4.735  26.662  54.207  1.00  0.00     0.162 HD
ENDROOT
BRANCH   2   5
HETATM    5  C   UNL     1       6.058  25.663  52.409  1.00  0.00     0.146 A 
HETATM    6  N   UNL     1       7.140  25.477  51.627  1.00  0.00    -0.169 NA
HETATM    7  N   UNL     1       7.705  24.360  52.117  1.00  0.00    -0.277 N 
HETATM    8  H   UNL     1       8.536  24.005  51.657  1.00  0.00     0.189 HD
HETATM    9  C   UNL     1       7.056  23.820  53.198  1.00  0.00     0.063 A 
HETATM   10  C   UNL     1       5.968  24.647  53.394  1.00  0.00     0.071 A 
BRANCH   9  11
HETATM   11  C   UNL     1       7.491  22.611  53.895  1.00  0.00    -0.008 A 
HETATM   12  C   UNL     1       7.926  21.477  53.187  1.00  0.00     0.017 A 
HETATM   13  C   UNL     1       8.343  20.330  53.868  1.00  0.00     0.043 A 
HETATM   14  C   UNL     1       8.329  20.312  55.257  1.00  0.00     0.116 A 
HETATM   15  F   UNL     1       8.730  19.212  55.906  1.00  0.00    -0.206 F 
HETATM   16  C   UNL     1       7.909  21.421  55.978  1.00  0.00     0.043 A 
HETATM   17  C   UNL     1       7.494  22.568  55.299  1.00  0.00     0.017 A 
ENDBRANCH   9  11
ENDBRANCH   2   5
BRANCH   1  18
HETATM   18  C   UNL     1       3.567  28.289  53.439  1.00  0.00     0.165 C 
BRANCH  18  19
HETATM   19  C   UNL     1       4.282  29.579  53.935  1.00  0.00     0.097 C 
HETATM   20  C   UNL     1       3.267  30.701  54.194  1.00  0.00     0.053 C 
BRANCH  19  21
HETATM   21  O   UNL     1       5.142  30.015  52.861  1.00  0.00    -0.384 OA
HETATM   22  H   UNL     1       5.705  29.259  52.621  1.00  0.00     0.211 HD
ENDBRANCH  19  21
BRANCH  19  23
HETATM   23  C   UNL     1       5.155  29.373  55.180  1.00  0.00    -0.023 A 
HETATM   24  C   UNL     1       4.671  29.540  56.491  1.00  0.00     0.013 A 
HETATM   25  C   UNL     1       5.508  29.350  57.596  1.00  0.00     0.043 A 
HETATM   26  C   UNL     1       6.837  29.000  57.403  1.00  0.00     0.116 A 
HETATM   27  F   UNL     1       7.634  28.821  58.463  1.00  0.00    -0.206 F 
HETATM   28  C   UNL     1       7.350  28.836  56.125  1.00  0.00     0.043 A 
HETATM   29  C   UNL     1       6.515  29.024  55.021  1.00  0.00     0.013 A 
ENDBRANCH  19  23
ENDBRANCH  18  19
ENDBRANCH   1  18
TORSDOF 6
ENDMDL
MODEL 9
REMARK VINA RESULT:      -8.5      6.896     10.195
REMARK  6 active torsions:
REMARK  status: ('A' for Active; 'I' for Inactive)
REMARK    1  A    between atoms: C_2  and  O_3 
REMARK    2  A    between atoms: C_2  and  C_4 
REMARK    3  A    between atoms: C_2  and  C_11 
REMARK    4  A    between atoms: C_11  and  N_12 
REMARK       I    between atoms: N_12  and  C_13 
REMARK    5  A    between atoms: C_13  and  C_14 
REMARK    6  A    between atoms: C_18  and  C_19 
ROOT
HETATM    1  N   UNL     1       5.213  25.514  54.328  1.00  0.00    -0.352 N 
HETATM    2  C   UNL     1       5.327  26.769  53.776  1.00  0.00     0.272 C 
HETATM    3  O   UNL     1       5.718  27.752  54.399  1.00  0.00    -0.266 OA
HETATM    4  H   UNL     1       4.995  24.764  53.676  1.00  0.00     0.162 HD
ENDROOT
BRANCH   2   5
HETATM    5  C   UNL     1       4.944  26.823  52.356  1.00  0.00     0.146 A 
HETATM    6  N   UNL     1       5.039  25.752  51.543  1.00  0.00    -0.169 NA
HETATM    7  N   UNL     1       4.609  26.210  50.355  1.00  0.00    -0.277 N 
HETATM    8  H   UNL     1       4.619  25.572  49.567  1.00  0.00     0.189 HD
HETATM    9  C   UNL     1       4.216  27.524  50.358  1.00  0.00     0.063 A 
HETATM   10  C   UNL     1       4.442  27.947  51.653  1.00  0.00     0.071 A 
BRANCH   9  11
HETATM   11  C   UNL     1       3.711  28.231  49.182  1.00  0.00    -0.008 A 
HETATM   12  C   UNL     1       2.343  28.229  48.861  1.00  0.00     0.017 A 
HETATM   13  C   UNL     1       1.876  28.912  47.736  1.00  0.00     0.043 A 
HETATM   14  C   UNL     1       2.771  29.602  46.929  1.00  0.00     0.116 A 
HETATM   15  F   UNL     1       2.320  30.257  45.852  1.00  0.00    -0.206 F 
HETATM   16  C   UNL     1       4.127  29.624  47.228  1.00  0.00     0.043 A 
HETATM   17  C   UNL     1       4.595  28.942  48.354  1.00  0.00     0.017 A 
ENDBRANCH   9  11
ENDBRANCH   2   5
BRANCH   1  18
HETATM   18  C   UNL     1       5.648  25.191  55.674  1.00  0.00     0.165 C 
BRANCH  18  19
HETATM   19  C   UNL     1       7.140  24.756  55.758  1.00  0.00     0.097 C 
HETATM   20  C   UNL     1       7.555  24.507  57.215  1.00  0.00     0.053 C 
BRANCH  19  21
HETATM   21  O   UNL     1       7.924  25.865  55.270  1.00  0.00    -0.384 OA
HETATM   22  H   UNL     1       7.304  26.592  55.084  1.00  0.00     0.211 HD
ENDBRANCH  19  21
BRANCH  19  23
HETATM   23  C   UNL     1       7.484  23.527  54.905  1.00  0.00    -0.023 A 
HETATM   24  C   UNL     1       7.732  23.600  53.522  1.00  0.00     0.013 A 
HETATM   25  C   UNL     1       8.034  22.450  52.784  1.00  0.00     0.043 A 
HETATM   26  C   UNL     1       8.082  21.217  53.417  1.00  0.00     0.116 A 
HETATM   27  F   UNL     1       8.368  20.119  52.706  1.00  0.00    -0.206 F 
HETATM   28  C   UNL     1       7.834  21.107  54.777  1.00  0.00     0.043 A 
HETATM   29  C   UNL     1       7.535  22.254  55.515  1.00  0.00     0.013 A 
ENDBRANCH  19  23
ENDBRANCH  18  19
ENDBRANCH   1  18
TORSDOF 6
ENDMDL
MODEL 10
REMARK VINA RESULT:      -8.5      2.409      3.619
REMARK  6 active torsions:
REMARK  status: ('A' for Active; 'I' for Inactive)
REMARK    1  A    between atoms: C_2  and  O_3 
REMARK    2  A    between atoms: C_2  and  C_4 
REMARK    3  A    between atoms: C_2  and  C_11 
REMARK    4  A    between atoms: C_11  and  N_12 
REMARK       I    between atoms: N_12  and  C_13 
REMARK    5  A    between atoms: C_13  and  C_14 
REMARK    6  A    between atoms: C_18  and  C_19 
ROOT
HETATM    1  N   UNL     1       7.572  28.088  55.362  1.00  0.00    -0.352 N 
HETATM    2  C   UNL     1       7.256  27.799  54.053  1.00  0.00     0.272 C 
HETATM    3  O   UNL     1       6.937  28.650  53.229  1.00  0.00    -0.266 OA
HETATM    4  H   UNL     1       7.936  27.311  55.908  1.00  0.00     0.162 HD
ENDROOT
BRANCH   2   5
HETATM    5  C   UNL     1       7.349  26.367  53.730  1.00  0.00     0.146 A 
HETATM    6  N   UNL     1       7.118  25.892  52.490  1.00  0.00    -0.169 NA
HETATM    7  N   UNL     1       7.293  24.565  52.614  1.00  0.00    -0.277 N 
HETATM    8  H   UNL     1       7.141  23.985  51.797  1.00  0.00     0.189 HD
HETATM    9  C   UNL     1       7.650  24.152  53.873  1.00  0.00     0.063 A 
HETATM   10  C   UNL     1       7.676  25.313  54.620  1.00  0.00     0.071 A 
BRANCH   9  11
HETATM   11  C   UNL     1       7.896  22.759  54.239  1.00  0.00    -0.008 A 
HETATM   12  C   UNL     1       8.171  21.786  53.264  1.00  0.00     0.017 A 
HETATM   13  C   UNL     1       8.407  20.458  53.631  1.00  0.00     0.043 A 
HETATM   14  C   UNL     1       8.371  20.098  54.972  1.00  0.00     0.116 A 
HETATM   15  F   UNL     1       8.599  18.825  55.320  1.00  0.00    -0.206 F 
HETATM   16  C   UNL     1       8.108  21.042  55.954  1.00  0.00     0.043 A 
HETATM   17  C   UNL     1       7.873  22.370  55.589  1.00  0.00     0.017 A 
ENDBRANCH   9  11
ENDBRANCH   2   5
BRANCH   1  18
HETATM   18  C   UNL     1       7.669  29.439  55.880  1.00  0.00     0.165 C 
BRANCH  18  19
HETATM   19  C   UNL     1       6.560  29.790  56.913  1.00  0.00     0.097 C 
HETATM   20  C   UNL     1       5.743  28.544  57.283  1.00  0.00     0.053 C 
BRANCH  19  21
HETATM   21  O   UNL     1       5.663  30.714  56.261  1.00  0.00    -0.384 OA
HETATM   22  H   UNL     1       4.953  30.918  56.894  1.00  0.00     0.211 HD
ENDBRANCH  19  21
BRANCH  19  23
HETATM   23  C   UNL     1       7.081  30.465  58.189  1.00  0.00    -0.023 A 
HETATM   24  C   UNL     1       6.516  31.639  58.721  1.00  0.00     0.013 A 
HETATM   25  C   UNL     1       7.032  32.222  59.883  1.00  0.00     0.043 A 
HETATM   26  C   UNL     1       8.122  31.645  60.520  1.00  0.00     0.116 A 
HETATM   27  F   UNL     1       8.613  32.209  61.630  1.00  0.00    -0.206 F 
HETATM   28  C   UNL     1       8.709  30.493  60.018  1.00  0.00     0.043 A 
HETATM   29  C   UNL     1       8.193  29.909  58.860  1.00  0.00     0.013 A 
ENDBRANCH  19  23
ENDBRANCH  18  19
ENDBRANCH   1  18
TORSDOF 6
ENDMDL
