MODEL 1
REMARK VINA RESULT:     -10.3      0.000      0.000
REMARK  6 active torsions:
REMARK  status: ('A' for Active; 'I' for Inactive)
REMARK    1  A    between atoms: C_2  and  C_3 
REMARK    2  A    between atoms: C_3  and  C_4 
REMARK       I    between atoms: C_4  and  N_5 
REMARK    3  A    between atoms: N_5  and  C_6 
REMARK    4  A    between atoms: C_8  and  C_9 
REMARK    5  A    between atoms: C_9  and  N_10 
REMARK       I    between atoms: N_10  and  C_11 
REMARK    6  A    between atoms: C_11  and  C_12 
ROOT
HETATM    1  C   UNL     1       7.655  28.157  55.790  1.00  0.00     0.161 C 
ENDROOT
BRANCH   1   2
HETATM    2  C   UNL     1       8.567  29.105  56.519  1.00  0.00    -0.038 A 
HETATM    3  C   UNL     1       8.074  29.872  57.590  1.00  0.00     0.038 A 
HETATM    4  C   UNL     1       8.909  30.741  58.295  1.00  0.00     0.035 A 
HETATM    5  C   UNL     1      10.253  30.844  57.915  1.00  0.00     0.029 A 
HETATM    6  C   UNL     1      10.748  30.107  56.836  1.00  0.00     0.003 A 
HETATM    7  C   UNL     1       9.906  29.244  56.137  1.00  0.00     0.009 A 
BRANCH   4   8
HETATM    8  N   UNL     1       8.489  31.521  59.393  1.00  0.00    -0.327 N 
HETATM    9  C   UNL     1       8.655  31.241  60.737  1.00  0.00     0.226 C 
HETATM   10  O   UNL     1       9.179  30.235  61.207  1.00  0.00    -0.273 OA
HETATM   11  H   UNL     1       7.971  32.357  59.158  1.00  0.00     0.169 HD
BRANCH   9  12
HETATM   12  C   UNL     1       8.132  32.333  61.675  1.00  0.00     0.074 C 
HETATM   13  C   UNL     1       6.775  32.833  61.182  1.00  0.00     0.020 C 
BRANCH  12  14
HETATM   14  C   UNL     1       8.055  31.903  63.148  1.00  0.00     0.009 C 
HETATM   15  C   UNL     1       7.722  33.056  64.086  1.00  0.00     0.006 C 
ENDBRANCH  12  14
ENDBRANCH   9  12
ENDBRANCH   4   8
ENDBRANCH   1   2
BRANCH   1  16
HETATM   16  N   UNL     1       7.720  26.830  56.334  1.00  0.00    -0.351 N 
HETATM   17  C   UNL     1       7.678  25.721  55.518  1.00  0.00     0.273 C 
HETATM   18  O   UNL     1       7.445  25.786  54.315  1.00  0.00    -0.266 OA
HETATM   19  H   UNL     1       8.034  26.669  57.287  1.00  0.00     0.163 HD
BRANCH  17  20
HETATM   20  C   UNL     1       7.965  24.462  56.224  1.00  0.00     0.157 A 
HETATM   21  N   UNL     1       8.229  24.438  57.549  1.00  0.00    -0.168 NA
HETATM   22  N   UNL     1       8.445  23.137  57.809  1.00  0.00    -0.277 N 
HETATM   23  H   UNL     1       8.666  22.869  58.760  1.00  0.00     0.189 HD
HETATM   24  C   UNL     1       8.343  22.316  56.721  1.00  0.00     0.063 A 
HETATM   25  C   UNL     1       8.027  23.154  55.660  1.00  0.00     0.029 A 
HETATM   26  C   UNL     1       8.502  20.935  56.583  1.00  0.00     0.032 A 
HETATM   27  C   UNL     1       7.863  22.591  54.377  1.00  0.00     0.023 A 
HETATM   28  C   UNL     1       8.021  21.205  54.202  1.00  0.00    -0.061 A 
HETATM   29  C   UNL     1       8.336  20.396  55.300  1.00  0.00     0.009 A 
HETATM   30  C   UNL     1       7.857  20.615  52.832  1.00  0.00     0.048 C 
ENDBRANCH  17  20
ENDBRANCH   1  16
TORSDOF 6
ENDMDL
MODEL 2
REMARK VINA RESULT:     -10.2      1.808      2.375
REMARK  6 active torsions:
REMARK  status: ('A' for Active; 'I' for Inactive)
REMARK    1  A    between atoms: C_2  and  C_3 
REMARK    2  A    between atoms: C_3  and  C_4 
REMARK       I    between atoms: C_4  and  N_5 
REMARK    3  A    between atoms: N_5  and  C_6 
REMARK    4  A    between atoms: C_8  and  C_9 
REMARK    5  A    between atoms: C_9  and  N_10 
REMARK       I    between atoms: N_10  and  C_11 
REMARK    6  A    between atoms: C_11  and  C_12 
ROOT
HETATM    1  C   UNL     1       7.105  28.592  55.091  1.00  0.00     0.161 C 
ENDROOT
BRANCH   1   2
HETATM    2  C   UNL     1       8.186  29.114  55.999  1.00  0.00    -0.038 A 
HETATM    3  C   UNL     1       7.890  29.421  57.340  1.00  0.00     0.038 A 
HETATM    4  C   UNL     1       8.882  29.885  58.206  1.00  0.00     0.035 A 
HETATM    5  C   UNL     1      10.185  30.046  57.717  1.00  0.00     0.029 A 
HETATM    6  C   UNL     1      10.484  29.769  56.381  1.00  0.00     0.003 A 
HETATM    7  C   UNL     1       9.487  29.309  55.523  1.00  0.00     0.009 A 
BRANCH   4   8
HETATM    8  N   UNL     1       8.663  30.189  59.566  1.00  0.00    -0.327 N 
HETATM    9  C   UNL     1       8.153  31.361  60.095  1.00  0.00     0.226 C 
HETATM   10  O   UNL     1       7.828  32.359  59.459  1.00  0.00    -0.273 OA
HETATM   11  H   UNL     1       8.956  29.478  60.222  1.00  0.00     0.169 HD
BRANCH   9  12
HETATM   12  C   UNL     1       7.986  31.342  61.617  1.00  0.00     0.074 C 
HETATM   13  C   UNL     1       9.112  30.527  62.252  1.00  0.00     0.020 C 
BRANCH  12  14
HETATM   14  C   UNL     1       7.896  32.738  62.250  1.00  0.00     0.009 C 
HETATM   15  C   UNL     1       7.869  32.699  63.773  1.00  0.00     0.006 C 
ENDBRANCH  12  14
ENDBRANCH   9  12
ENDBRANCH   4   8
ENDBRANCH   1   2
BRANCH   1  16
HETATM   16  N   UNL     1       7.516  27.401  54.404  1.00  0.00    -0.351 N 
HETATM   17  C   UNL     1       7.207  26.151  54.895  1.00  0.00     0.273 C 
HETATM   18  O   UNL     1       6.698  25.975  55.998  1.00  0.00    -0.266 OA
HETATM   19  H   UNL     1       7.827  27.433  53.437  1.00  0.00     0.163 HD
BRANCH  17  20
HETATM   20  C   UNL     1       7.522  25.059  53.961  1.00  0.00     0.157 A 
HETATM   21  N   UNL     1       7.623  25.272  52.631  1.00  0.00    -0.168 NA
HETATM   22  N   UNL     1       7.904  24.057  52.131  1.00  0.00    -0.277 N 
HETATM   23  H   UNL     1       8.028  23.967  51.130  1.00  0.00     0.189 HD
HETATM   24  C   UNL     1       7.985  23.063  53.066  1.00  0.00     0.063 A 
HETATM   25  C   UNL     1       7.739  23.686  54.283  1.00  0.00     0.029 A 
HETATM   26  C   UNL     1       8.243  21.695  52.947  1.00  0.00     0.032 A 
HETATM   27  C   UNL     1       7.745  22.907  55.458  1.00  0.00     0.023 A 
HETATM   28  C   UNL     1       7.997  21.526  55.373  1.00  0.00    -0.061 A 
HETATM   29  C   UNL     1       8.242  20.938  54.126  1.00  0.00     0.009 A 
HETATM   30  C   UNL     1       7.988  20.700  56.626  1.00  0.00     0.048 C 
ENDBRANCH  17  20
ENDBRANCH   1  16
TORSDOF 6
ENDMDL
MODEL 3
REMARK VINA RESULT:      -9.4      1.672      2.338
REMARK  6 active torsions:
REMARK  status: ('A' for Active; 'I' for Inactive)
REMARK    1  A    between atoms: C_2  and  C_3 
REMARK    2  A    between atoms: C_3  and  C_4 
REMARK       I    between atoms: C_4  and  N_5 
REMARK    3  A    between atoms: N_5  and  C_6 
REMARK    4  A    between atoms: C_8  and  C_9 
REMARK    5  A    between atoms: C_9  and  N_10 
REMARK       I    between atoms: N_10  and  C_11 
REMARK    6  A    between atoms: C_11  and  C_12 
ROOT
HETATM    1  C   UNL     1       7.508  29.614  57.153  1.00  0.00     0.161 C 
ENDROOT
BRANCH   1   2
HETATM    2  C   UNL     1       8.222  30.532  58.107  1.00  0.00    -0.038 A 
HETATM    3  C   UNL     1       7.505  31.177  59.132  1.00  0.00     0.038 A 
HETATM    4  C   UNL     1       8.152  32.015  60.042  1.00  0.00     0.035 A 
HETATM    5  C   UNL     1       9.533  32.211  59.918  1.00  0.00     0.029 A 
HETATM    6  C   UNL     1      10.250  31.597  58.888  1.00  0.00     0.003 A 
HETATM    7  C   UNL     1       9.596  30.764  57.982  1.00  0.00     0.009 A 
BRANCH   4   8
HETATM    8  N   UNL     1       7.502  32.673  61.108  1.00  0.00    -0.327 N 
HETATM    9  C   UNL     1       7.576  32.370  62.455  1.00  0.00     0.226 C 
HETATM   10  O   UNL     1       8.209  31.444  62.954  1.00  0.00    -0.273 OA
HETATM   11  H   UNL     1       6.879  33.423  60.838  1.00  0.00     0.169 HD
BRANCH   9  12
HETATM   12  C   UNL     1       6.790  33.326  63.357  1.00  0.00     0.074 C 
HETATM   13  C   UNL     1       5.436  32.711  63.709  1.00  0.00     0.020 C 
BRANCH  12  14
HETATM   14  C   UNL     1       7.547  33.747  64.626  1.00  0.00     0.009 C 
HETATM   15  C   UNL     1       6.646  33.836  65.852  1.00  0.00     0.006 C 
ENDBRANCH  12  14
ENDBRANCH   9  12
ENDBRANCH   4   8
ENDBRANCH   1   2
BRANCH   1  16
HETATM   16  N   UNL     1       7.912  28.247  57.325  1.00  0.00    -0.351 N 
HETATM   17  C   UNL     1       7.018  27.213  57.156  1.00  0.00     0.273 C 
HETATM   18  O   UNL     1       5.814  27.390  56.993  1.00  0.00    -0.266 OA
HETATM   19  H   UNL     1       8.894  27.988  57.337  1.00  0.00     0.163 HD
BRANCH  17  20
HETATM   20  C   UNL     1       7.649  25.884  57.166  1.00  0.00     0.157 A 
HETATM   21  N   UNL     1       8.137  25.341  58.303  1.00  0.00    -0.168 NA
HETATM   22  N   UNL     1       8.631  24.155  57.907  1.00  0.00    -0.277 N 
HETATM   23  H   UNL     1       9.057  23.557  58.604  1.00  0.00     0.189 HD
HETATM   24  C   UNL     1       8.496  23.903  56.570  1.00  0.00     0.063 A 
HETATM   25  C   UNL     1       7.854  25.019  56.051  1.00  0.00     0.029 A 
HETATM   26  C   UNL     1       8.881  22.810  55.789  1.00  0.00     0.032 A 
HETATM   27  C   UNL     1       7.578  25.061  54.669  1.00  0.00     0.023 A 
HETATM   28  C   UNL     1       7.957  23.980  53.853  1.00  0.00    -0.061 A 
HETATM   29  C   UNL     1       8.600  22.873  54.418  1.00  0.00     0.009 A 
HETATM   30  C   UNL     1       7.672  24.037  52.380  1.00  0.00     0.048 C 
ENDBRANCH  17  20
ENDBRANCH   1  16
TORSDOF 6
ENDMDL
MODEL 4
REMARK VINA RESULT:      -9.4      2.549      4.030
REMARK  6 active torsions:
REMARK  status: ('A' for Active; 'I' for Inactive)
REMARK    1  A    between atoms: C_2  and  C_3 
REMARK    2  A    between atoms: C_3  and  C_4 
REMARK       I    between atoms: C_4  and  N_5 
REMARK    3  A    between atoms: N_5  and  C_6 
REMARK    4  A    between atoms: C_8  and  C_9 
REMARK    5  A    between atoms: C_9  and  N_10 
REMARK       I    between atoms: N_10  and  C_11 
REMARK    6  A    between atoms: C_11  and  C_12 
ROOT
HETATM    1  C   UNL     1       7.414  30.715  58.404  1.00  0.00     0.161 C 
ENDROOT
BRANCH   1   2
HETATM    2  C   UNL     1       7.756  31.086  59.822  1.00  0.00    -0.038 A 
HETATM    3  C   UNL     1       6.926  31.966  60.539  1.00  0.00     0.038 A 
HETATM    4  C   UNL     1       7.212  32.306  61.862  1.00  0.00     0.035 A 
HETATM    5  C   UNL     1       8.348  31.758  62.470  1.00  0.00     0.029 A 
HETATM    6  C   UNL     1       9.195  30.903  61.760  1.00  0.00     0.003 A 
HETATM    7  C   UNL     1       8.902  30.572  60.438  1.00  0.00     0.009 A 
BRANCH   4   8
HETATM    8  N   UNL     1       6.412  33.162  62.648  1.00  0.00    -0.327 N 
HETATM    9  C   UNL     1       5.330  32.815  63.437  1.00  0.00     0.226 C 
HETATM   10  O   UNL     1       4.861  31.688  63.565  1.00  0.00    -0.273 OA
HETATM   11  H   UNL     1       6.637  34.146  62.584  1.00  0.00     0.169 HD
BRANCH   9  12
HETATM   12  C   UNL     1       4.717  33.985  64.211  1.00  0.00     0.074 C 
HETATM   13  C   UNL     1       3.306  34.265  63.695  1.00  0.00     0.020 C 
BRANCH  12  14
HETATM   14  C   UNL     1       4.714  33.789  65.735  1.00  0.00     0.009 C 
HETATM   15  C   UNL     1       3.838  34.801  66.462  1.00  0.00     0.006 C 
ENDBRANCH  12  14
ENDBRANCH   9  12
ENDBRANCH   4   8
ENDBRANCH   1   2
BRANCH   1  16
HETATM   16  N   UNL     1       7.309  29.293  58.236  1.00  0.00    -0.351 N 
HETATM   17  C   UNL     1       7.596  28.695  57.029  1.00  0.00     0.273 C 
HETATM   18  O   UNL     1       7.816  29.333  56.003  1.00  0.00    -0.266 OA
HETATM   19  H   UNL     1       7.259  28.672  59.038  1.00  0.00     0.163 HD
BRANCH  17  20
HETATM   20  C   UNL     1       7.638  27.226  57.097  1.00  0.00     0.157 A 
HETATM   21  N   UNL     1       7.760  26.575  58.275  1.00  0.00    -0.168 NA
HETATM   22  N   UNL     1       7.772  25.277  57.925  1.00  0.00    -0.277 N 
HETATM   23  H   UNL     1       7.857  24.584  58.659  1.00  0.00     0.189 HD
HETATM   24  C   UNL     1       7.670  25.051  56.581  1.00  0.00     0.063 A 
HETATM   25  C   UNL     1       7.580  26.311  56.004  1.00  0.00     0.029 A 
HETATM   26  C   UNL     1       7.655  23.868  55.838  1.00  0.00     0.032 A 
HETATM   27  C   UNL     1       7.472  26.409  54.602  1.00  0.00     0.023 A 
HETATM   28  C   UNL     1       7.459  25.238  53.824  1.00  0.00    -0.061 A 
HETATM   29  C   UNL     1       7.549  23.987  54.446  1.00  0.00     0.009 A 
HETATM   30  C   UNL     1       7.357  25.349  52.330  1.00  0.00     0.048 C 
ENDBRANCH  17  20
ENDBRANCH   1  16
TORSDOF 6
ENDMDL
MODEL 5
REMARK VINA RESULT:      -9.0      2.908      9.977
REMARK  6 active torsions:
REMARK  status: ('A' for Active; 'I' for Inactive)
REMARK    1  A    between atoms: C_2  and  C_3 
REMARK    2  A    between atoms: C_3  and  C_4 
REMARK       I    between atoms: C_4  and  N_5 
REMARK    3  A    between atoms: N_5  and  C_6 
REMARK    4  A    between atoms: C_8  and  C_9 
REMARK    5  A    between atoms: C_9  and  N_10 
REMARK       I    between atoms: N_10  and  C_11 
REMARK    6  A    between atoms: C_11  and  C_12 
ROOT
HETATM    1  C   UNL     1       4.689  30.981  58.062  1.00  0.00     0.161 C 
ENDROOT
BRANCH   1   2
HETATM    2  C   UNL     1       5.739  29.982  57.657  1.00  0.00    -0.038 A 
HETATM    3  C   UNL     1       5.364  28.793  57.005  1.00  0.00     0.038 A 
HETATM    4  C   UNL     1       6.324  27.864  56.600  1.00  0.00     0.035 A 
HETATM    5  C   UNL     1       7.675  28.131  56.858  1.00  0.00     0.029 A 
HETATM    6  C   UNL     1       8.056  29.296  57.528  1.00  0.00     0.003 A 
HETATM    7  C   UNL     1       7.091  30.216  57.931  1.00  0.00     0.009 A 
BRANCH   4   8
HETATM    8  N   UNL     1       6.023  26.664  55.921  1.00  0.00    -0.327 N 
HETATM    9  C   UNL     1       5.793  26.497  54.568  1.00  0.00     0.226 C 
HETATM   10  O   UNL     1       5.785  27.386  53.721  1.00  0.00    -0.273 OA
HETATM   11  H   UNL     1       5.924  25.847  56.509  1.00  0.00     0.169 HD
BRANCH   9  12
HETATM   12  C   UNL     1       5.552  25.045  54.147  1.00  0.00     0.074 C 
HETATM   13  C   UNL     1       5.263  24.982  52.647  1.00  0.00     0.020 C 
BRANCH  12  14
HETATM   14  C   UNL     1       6.694  24.089  54.525  1.00  0.00     0.009 C 
HETATM   15  C   UNL     1       7.714  23.911  53.408  1.00  0.00     0.006 C 
ENDBRANCH  12  14
ENDBRANCH   9  12
ENDBRANCH   4   8
ENDBRANCH   1   2
BRANCH   1  16
HETATM   16  N   UNL     1       4.981  31.573  59.337  1.00  0.00    -0.351 N 
HETATM   17  C   UNL     1       3.972  31.999  60.173  1.00  0.00     0.273 C 
HETATM   18  O   UNL     1       2.793  32.031  59.834  1.00  0.00    -0.266 OA
HETATM   19  H   UNL     1       5.900  31.480  59.761  1.00  0.00     0.163 HD
BRANCH  17  20
HETATM   20  C   UNL     1       4.444  32.384  61.513  1.00  0.00     0.157 A 
HETATM   21  N   UNL     1       3.590  32.821  62.465  1.00  0.00    -0.168 NA
HETATM   22  N   UNL     1       4.386  33.077  63.517  1.00  0.00    -0.277 N 
HETATM   23  H   UNL     1       3.959  33.423  64.368  1.00  0.00     0.189 HD
HETATM   24  C   UNL     1       5.713  32.835  63.297  1.00  0.00     0.063 A 
HETATM   25  C   UNL     1       5.788  32.377  61.988  1.00  0.00     0.029 A 
HETATM   26  C   UNL     1       6.832  32.981  64.120  1.00  0.00     0.032 A 
HETATM   27  C   UNL     1       7.051  32.046  61.457  1.00  0.00     0.023 A 
HETATM   28  C   UNL     1       8.199  32.187  62.257  1.00  0.00    -0.061 A 
HETATM   29  C   UNL     1       8.078  32.650  63.573  1.00  0.00     0.009 A 
HETATM   30  C   UNL     1       9.543  31.845  61.681  1.00  0.00     0.048 C 
ENDBRANCH  17  20
ENDBRANCH   1  16
TORSDOF 6
ENDMDL
MODEL 6
REMARK VINA RESULT:      -8.9      4.574      6.879
REMARK  6 active torsions:
REMARK  status: ('A' for Active; 'I' for Inactive)
REMARK    1  A    between atoms: C_2  and  C_3 
REMARK    2  A    between atoms: C_3  and  C_4 
REMARK       I    between atoms: C_4  and  N_5 
REMARK    3  A    between atoms: N_5  and  C_6 
REMARK    4  A    between atoms: C_8  and  C_9 
REMARK    5  A    between atoms: C_9  and  N_10 
REMARK       I    between atoms: N_10  and  C_11 
REMARK    6  A    between atoms: C_11  and  C_12 
ROOT
HETATM    1  C   UNL     1       9.187  31.193  61.315  1.00  0.00     0.161 C 
ENDROOT
BRANCH   1   2
HETATM    2  C   UNL     1       7.999  32.039  61.685  1.00  0.00    -0.038 A 
HETATM    3  C   UNL     1       7.869  32.534  62.996  1.00  0.00     0.038 A 
HETATM    4  C   UNL     1       6.788  33.341  63.355  1.00  0.00     0.035 A 
HETATM    5  C   UNL     1       5.823  33.648  62.387  1.00  0.00     0.029 A 
HETATM    6  C   UNL     1       5.928  33.140  61.089  1.00  0.00     0.003 A 
HETATM    7  C   UNL     1       7.010  32.334  60.741  1.00  0.00     0.009 A 
BRANCH   4   8
HETATM    8  N   UNL     1       6.607  33.891  64.641  1.00  0.00    -0.327 N 
HETATM    9  C   UNL     1       5.501  33.765  65.463  1.00  0.00     0.226 C 
HETATM   10  O   UNL     1       4.464  33.166  65.192  1.00  0.00    -0.273 OA
HETATM   11  H   UNL     1       7.360  34.478  64.971  1.00  0.00     0.169 HD
BRANCH   9  12
HETATM   12  C   UNL     1       5.654  34.440  66.829  1.00  0.00     0.074 C 
HETATM   13  C   UNL     1       4.512  34.010  67.749  1.00  0.00     0.020 C 
BRANCH  12  14
HETATM   14  C   UNL     1       7.016  34.194  67.495  1.00  0.00     0.009 C 
HETATM   15  C   UNL     1       7.162  34.914  68.830  1.00  0.00     0.006 C 
ENDBRANCH  12  14
ENDBRANCH   9  12
ENDBRANCH   4   8
ENDBRANCH   1   2
BRANCH   1  16
HETATM   16  N   UNL     1       9.061  30.647  59.993  1.00  0.00    -0.351 N 
HETATM   17  C   UNL     1       9.689  31.234  58.917  1.00  0.00     0.273 C 
HETATM   18  O   UNL     1      10.266  32.315  58.989  1.00  0.00    -0.266 OA
HETATM   19  H   UNL     1       8.717  29.702  59.846  1.00  0.00     0.163 HD
BRANCH  17  20
HETATM   20  C   UNL     1       9.622  30.428  57.687  1.00  0.00     0.157 A 
HETATM   21  N   UNL     1      10.727  30.163  56.955  1.00  0.00    -0.168 NA
HETATM   22  N   UNL     1      10.262  29.428  55.929  1.00  0.00    -0.277 N 
HETATM   23  H   UNL     1      10.923  29.106  55.233  1.00  0.00     0.189 HD
HETATM   24  C   UNL     1       8.913  29.208  55.953  1.00  0.00     0.063 A 
HETATM   25  C   UNL     1       8.459  29.852  57.097  1.00  0.00     0.029 A 
HETATM   26  C   UNL     1       8.071  28.516  55.081  1.00  0.00     0.032 A 
HETATM   27  C   UNL     1       7.082  29.812  57.396  1.00  0.00     0.023 A 
HETATM   28  C   UNL     1       6.205  29.127  56.536  1.00  0.00    -0.061 A 
HETATM   29  C   UNL     1       6.706  28.490  55.395  1.00  0.00     0.009 A 
HETATM   30  C   UNL     1       4.738  29.100  56.853  1.00  0.00     0.048 C 
ENDBRANCH  17  20
ENDBRANCH   1  16
TORSDOF 6
ENDMDL
MODEL 7
REMARK VINA RESULT:      -8.8      3.476      6.684
REMARK  6 active torsions:
REMARK  status: ('A' for Active; 'I' for Inactive)
REMARK    1  A    between atoms: C_2  and  C_3 
REMARK    2  A    between atoms: C_3  and  C_4 
REMARK       I    between atoms: C_4  and  N_5 
REMARK    3  A    between atoms: N_5  and  C_6 
REMARK    4  A    between atoms: C_8  and  C_9 
REMARK    5  A    between atoms: C_9  and  N_10 
REMARK       I    between atoms: N_10  and  C_11 
REMARK    6  A    between atoms: C_11  and  C_12 
ROOT
HETATM    1  C   UNL     1       8.463  27.885  57.117  1.00  0.00     0.161 C 
ENDROOT
BRANCH   1   2
HETATM    2  C   UNL     1       7.219  28.500  56.537  1.00  0.00    -0.038 A 
HETATM    3  C   UNL     1       6.970  28.412  55.155  1.00  0.00     0.038 A 
HETATM    4  C   UNL     1       5.811  28.956  54.598  1.00  0.00     0.035 A 
HETATM    5  C   UNL     1       4.895  29.599  55.439  1.00  0.00     0.029 A 
HETATM    6  C   UNL     1       5.144  29.715  56.809  1.00  0.00     0.003 A 
HETATM    7  C   UNL     1       6.305  29.172  57.355  1.00  0.00     0.009 A 
BRANCH   4   8
HETATM    8  N   UNL     1       5.486  28.885  53.227  1.00  0.00    -0.327 N 
HETATM    9  C   UNL     1       4.920  27.819  52.551  1.00  0.00     0.226 C 
HETATM   10  O   UNL     1       4.628  26.729  53.034  1.00  0.00    -0.273 OA
HETATM   11  H   UNL     1       5.740  29.695  52.679  1.00  0.00     0.169 HD
BRANCH   9  12
HETATM   12  C   UNL     1       4.640  28.093  51.071  1.00  0.00     0.074 C 
HETATM   13  C   UNL     1       5.379  29.356  50.629  1.00  0.00     0.020 C 
BRANCH  12  14
HETATM   14  C   UNL     1       4.971  26.913  50.145  1.00  0.00     0.009 C 
HETATM   15  C   UNL     1       4.022  26.803  48.959  1.00  0.00     0.006 C 
ENDBRANCH  12  14
ENDBRANCH   9  12
ENDBRANCH   4   8
ENDBRANCH   1   2
BRANCH   1  16
HETATM   16  N   UNL     1       8.629  26.521  56.699  1.00  0.00    -0.351 N 
HETATM   17  C   UNL     1       8.177  25.477  57.475  1.00  0.00     0.273 C 
HETATM   18  O   UNL     1       7.743  25.630  58.613  1.00  0.00    -0.266 OA
HETATM   19  H   UNL     1       8.857  26.292  55.735  1.00  0.00     0.163 HD
BRANCH  17  20
HETATM   20  C   UNL     1       8.243  24.172  56.799  1.00  0.00     0.157 A 
HETATM   21  N   UNL     1       8.503  23.034  57.481  1.00  0.00    -0.168 NA
HETATM   22  N   UNL     1       8.490  22.081  56.533  1.00  0.00    -0.277 N 
HETATM   23  H   UNL     1       8.664  21.124  56.813  1.00  0.00     0.189 HD
HETATM   24  C   UNL     1       8.242  22.541  55.269  1.00  0.00     0.063 A 
HETATM   25  C   UNL     1       8.074  23.913  55.407  1.00  0.00     0.029 A 
HETATM   26  C   UNL     1       8.158  21.880  54.041  1.00  0.00     0.032 A 
HETATM   27  C   UNL     1       7.809  24.682  54.255  1.00  0.00     0.023 A 
HETATM   28  C   UNL     1       7.723  24.050  53.003  1.00  0.00    -0.061 A 
HETATM   29  C   UNL     1       7.896  22.663  52.910  1.00  0.00     0.009 A 
HETATM   30  C   UNL     1       7.454  24.876  51.779  1.00  0.00     0.048 C 
ENDBRANCH  17  20
ENDBRANCH   1  16
TORSDOF 6
ENDMDL
MODEL 8
REMARK VINA RESULT:      -8.8      3.166      5.801
REMARK  6 active torsions:
REMARK  status: ('A' for Active; 'I' for Inactive)
REMARK    1  A    between atoms: C_2  and  C_3 
REMARK    2  A    between atoms: C_3  and  C_4 
REMARK       I    between atoms: C_4  and  N_5 
REMARK    3  A    between atoms: N_5  and  C_6 
REMARK    4  A    between atoms: C_8  and  C_9 
REMARK    5  A    between atoms: C_9  and  N_10 
REMARK       I    between atoms: N_10  and  C_11 
REMARK    6  A    between atoms: C_11  and  C_12 
ROOT
HETATM    1  C   UNL     1       8.548  31.170  60.196  1.00  0.00     0.161 C 
ENDROOT
BRANCH   1   2
HETATM    2  C   UNL     1       7.945  31.936  61.342  1.00  0.00    -0.038 A 
HETATM    3  C   UNL     1       6.736  32.632  61.164  1.00  0.00     0.038 A 
HETATM    4  C   UNL     1       6.148  33.331  62.220  1.00  0.00     0.035 A 
HETATM    5  C   UNL     1       6.786  33.334  63.467  1.00  0.00     0.029 A 
HETATM    6  C   UNL     1       8.001  32.669  63.648  1.00  0.00     0.003 A 
HETATM    7  C   UNL     1       8.581  31.976  62.587  1.00  0.00     0.009 A 
BRANCH   4   8
HETATM    8  N   UNL     1       4.926  34.029  62.120  1.00  0.00    -0.327 N 
HETATM    9  C   UNL     1       3.650  33.518  62.270  1.00  0.00     0.226 C 
HETATM   10  O   UNL     1       3.362  32.345  62.491  1.00  0.00    -0.273 OA
HETATM   11  H   UNL     1       5.004  35.004  61.867  1.00  0.00     0.169 HD
BRANCH   9  12
HETATM   12  C   UNL     1       2.537  34.564  62.159  1.00  0.00     0.074 C 
HETATM   13  C   UNL     1       3.119  35.962  62.367  1.00  0.00     0.020 C 
BRANCH  12  14
HETATM   14  C   UNL     1       1.744  34.492  60.845  1.00  0.00     0.009 C 
HETATM   15  C   UNL     1       2.636  34.521  59.611  1.00  0.00     0.006 C 
ENDBRANCH  12  14
ENDBRANCH   9  12
ENDBRANCH   4   8
ENDBRANCH   1   2
BRANCH   1  16
HETATM   16  N   UNL     1       7.559  30.407  59.487  1.00  0.00    -0.351 N 
HETATM   17  C   UNL     1       7.810  29.910  58.227  1.00  0.00     0.273 C 
HETATM   18  O   UNL     1       8.815  30.199  57.583  1.00  0.00    -0.266 OA
HETATM   19  H   UNL     1       6.757  30.010  59.969  1.00  0.00     0.163 HD
BRANCH  17  20
HETATM   20  C   UNL     1       6.774  28.985  57.743  1.00  0.00     0.157 A 
HETATM   21  N   UNL     1       5.497  29.387  57.556  1.00  0.00    -0.168 NA
HETATM   22  N   UNL     1       4.870  28.278  57.130  1.00  0.00    -0.277 N 
HETATM   23  H   UNL     1       3.881  28.337  56.920  1.00  0.00     0.189 HD
HETATM   24  C   UNL     1       5.670  27.173  57.037  1.00  0.00     0.063 A 
HETATM   25  C   UNL     1       6.930  27.602  57.433  1.00  0.00     0.029 A 
HETATM   26  C   UNL     1       5.396  25.859  56.651  1.00  0.00     0.032 A 
HETATM   27  C   UNL     1       7.988  26.670  57.452  1.00  0.00     0.023 A 
HETATM   28  C   UNL     1       7.746  25.337  57.074  1.00  0.00    -0.061 A 
HETATM   29  C   UNL     1       6.460  24.948  56.679  1.00  0.00     0.009 A 
HETATM   30  C   UNL     1       8.874  24.347  57.110  1.00  0.00     0.048 C 
ENDBRANCH  17  20
ENDBRANCH   1  16
TORSDOF 6
ENDMDL
MODEL 9
REMARK VINA RESULT:      -8.8      4.363      7.075
REMARK  6 active torsions:
REMARK  status: ('A' for Active; 'I' for Inactive)
REMARK    1  A    between atoms: C_2  and  C_3 
REMARK    2  A    between atoms: C_3  and  C_4 
REMARK       I    between atoms: C_4  and  N_5 
REMARK    3  A    between atoms: N_5  and  C_6 
REMARK    4  A    between atoms: C_8  and  C_9 
REMARK    5  A    between atoms: C_9  and  N_10 
REMARK       I    between atoms: N_10  and  C_11 
REMARK    6  A    between atoms: C_11  and  C_12 
ROOT
HETATM    1  C   UNL     1       5.306  33.179  60.539  1.00  0.00     0.161 C 
ENDROOT
BRANCH   1   2
HETATM    2  C   UNL     1       6.310  33.067  61.654  1.00  0.00    -0.038 A 
HETATM    3  C   UNL     1       6.033  33.640  62.909  1.00  0.00     0.038 A 
HETATM    4  C   UNL     1       6.941  33.529  63.964  1.00  0.00     0.035 A 
HETATM    5  C   UNL     1       8.141  32.839  63.753  1.00  0.00     0.029 A 
HETATM    6  C   UNL     1       8.438  32.290  62.504  1.00  0.00     0.003 A 
HETATM    7  C   UNL     1       7.528  32.408  61.456  1.00  0.00     0.009 A 
BRANCH   4   8
HETATM    8  N   UNL     1       6.719  34.056  65.254  1.00  0.00    -0.327 N 
HETATM    9  C   UNL     1       5.576  33.944  66.024  1.00  0.00     0.226 C 
HETATM   10  O   UNL     1       4.536  33.380  65.696  1.00  0.00    -0.273 OA
HETATM   11  H   UNL     1       7.473  34.614  65.629  1.00  0.00     0.169 HD
BRANCH   9  12
HETATM   12  C   UNL     1       5.688  34.584  67.410  1.00  0.00     0.074 C 
HETATM   13  C   UNL     1       4.632  33.990  68.342  1.00  0.00     0.020 C 
BRANCH  12  14
HETATM   14  C   UNL     1       7.089  34.481  68.032  1.00  0.00     0.009 C 
HETATM   15  C   UNL     1       7.226  35.282  69.321  1.00  0.00     0.006 C 
ENDBRANCH  12  14
ENDBRANCH   9  12
ENDBRANCH   4   8
ENDBRANCH   1   2
BRANCH   1  16
HETATM   16  N   UNL     1       5.208  31.960  59.786  1.00  0.00    -0.351 N 
HETATM   17  C   UNL     1       5.532  31.921  58.447  1.00  0.00     0.273 C 
HETATM   18  O   UNL     1       5.781  32.928  57.791  1.00  0.00    -0.266 OA
HETATM   19  H   UNL     1       5.135  31.060  60.251  1.00  0.00     0.163 HD
BRANCH  17  20
HETATM   20  C   UNL     1       5.574  30.559  57.893  1.00  0.00     0.157 A 
HETATM   21  N   UNL     1       4.447  29.837  57.704  1.00  0.00    -0.168 NA
HETATM   22  N   UNL     1       4.893  28.671  57.205  1.00  0.00    -0.277 N 
HETATM   23  H   UNL     1       4.213  27.955  56.980  1.00  0.00     0.189 HD
HETATM   24  C   UNL     1       6.251  28.595  57.066  1.00  0.00     0.063 A 
HETATM   25  C   UNL     1       6.732  29.821  57.509  1.00  0.00     0.029 A 
HETATM   26  C   UNL     1       7.080  27.572  56.601  1.00  0.00     0.032 A 
HETATM   27  C   UNL     1       8.123  30.047  57.496  1.00  0.00     0.023 A 
HETATM   28  C   UNL     1       8.987  29.036  57.039  1.00  0.00    -0.061 A 
HETATM   29  C   UNL     1       8.459  27.816  56.599  1.00  0.00     0.009 A 
HETATM   30  C   UNL     1      10.469  29.279  57.041  1.00  0.00     0.048 C 
ENDBRANCH  17  20
ENDBRANCH   1  16
TORSDOF 6
ENDMDL
MODEL 10
REMARK VINA RESULT:      -8.8      5.192      8.057
REMARK  6 active torsions:
REMARK  status: ('A' for Active; 'I' for Inactive)
REMARK    1  A    between atoms: C_2  and  C_3 
REMARK    2  A    between atoms: C_3  and  C_4 
REMARK       I    between atoms: C_4  and  N_5 
REMARK    3  A    between atoms: N_5  and  C_6 
REMARK    4  A    between atoms: C_8  and  C_9 
REMARK    5  A    between atoms: C_9  and  N_10 
REMARK       I    between atoms: N_10  and  C_11 
REMARK    6  A    between atoms: C_11  and  C_12 
ROOT
HETATM    1  C   UNL     1       5.032  26.990  54.468  1.00  0.00     0.161 C 
ENDROOT
BRANCH   1   2
HETATM    2  C   UNL     1       4.942  26.891  52.970  1.00  0.00    -0.038 A 
HETATM    3  C   UNL     1       4.623  28.030  52.208  1.00  0.00     0.038 A 
HETATM    4  C   UNL     1       4.557  27.967  50.815  1.00  0.00     0.035 A 
HETATM    5  C   UNL     1       4.808  26.743  50.181  1.00  0.00     0.029 A 
HETATM    6  C   UNL     1       5.099  25.600  50.929  1.00  0.00     0.003 A 
HETATM    7  C   UNL     1       5.161  25.672  52.319  1.00  0.00     0.009 A 
BRANCH   4   8
HETATM    8  N   UNL     1       4.268  29.073  49.987  1.00  0.00    -0.327 N 
HETATM    9  C   UNL     1       5.134  30.072  49.585  1.00  0.00     0.226 C 
HETATM   10  O   UNL     1       6.314  30.180  49.909  1.00  0.00    -0.273 OA
HETATM   11  H   UNL     1       3.303  29.156  49.698  1.00  0.00     0.169 HD
BRANCH   9  12
HETATM   12  C   UNL     1       4.511  31.097  48.633  1.00  0.00     0.074 C 
HETATM   13  C   UNL     1       5.156  32.465  48.852  1.00  0.00     0.020 C 
BRANCH  12  14
HETATM   14  C   UNL     1       4.577  30.691  47.152  1.00  0.00     0.009 C 
HETATM   15  C   UNL     1       3.226  30.771  46.454  1.00  0.00     0.006 C 
ENDBRANCH  12  14
ENDBRANCH   9  12
ENDBRANCH   4   8
ENDBRANCH   1   2
BRANCH   1  16
HETATM   16  N   UNL     1       5.725  25.868  55.035  1.00  0.00    -0.351 N 
HETATM   17  C   UNL     1       7.067  25.936  55.336  1.00  0.00     0.273 C 
HETATM   18  O   UNL     1       7.775  26.886  55.015  1.00  0.00    -0.266 OA
HETATM   19  H   UNL     1       5.216  25.091  55.450  1.00  0.00     0.163 HD
BRANCH  17  20
HETATM   20  C   UNL     1       7.559  24.777  56.097  1.00  0.00     0.157 A 
HETATM   21  N   UNL     1       7.897  24.879  57.401  1.00  0.00    -0.168 NA
HETATM   22  N   UNL     1       8.299  23.638  57.726  1.00  0.00    -0.277 N 
HETATM   23  H   UNL     1       8.607  23.467  58.676  1.00  0.00     0.189 HD
HETATM   24  C   UNL     1       8.246  22.737  56.700  1.00  0.00     0.063 A 
HETATM   25  C   UNL     1       7.763  23.452  55.611  1.00  0.00     0.029 A 
HETATM   26  C   UNL     1       8.580  21.382  56.636  1.00  0.00     0.032 A 
HETATM   27  C   UNL     1       7.603  22.785  54.379  1.00  0.00     0.023 A 
HETATM   28  C   UNL     1       7.934  21.422  54.280  1.00  0.00    -0.061 A 
HETATM   29  C   UNL     1       8.416  20.739  55.403  1.00  0.00     0.009 A 
HETATM   30  C   UNL     1       7.774  20.722  52.961  1.00  0.00     0.048 C 
ENDBRANCH  17  20
ENDBRANCH   1  16
TORSDOF 6
ENDMDL
