MODEL 1
REMARK VINA RESULT:      -8.9      0.000      0.000
REMARK  8 active torsions:
REMARK  status: ('A' for Active; 'I' for Inactive)
REMARK    1  A    between atoms: C_2  and  C_3 
REMARK    2  A    between atoms: C_3  and  O_4 
REMARK    3  A    between atoms: O_4  and  C_5 
REMARK    4  A    between atoms: C_6  and  O_7 
REMARK    5  A    between atoms: O_7  and  C_8 
REMARK    6  A    between atoms: C_8  and  C_9 
REMARK    7  A    between atoms: C_12  and  N_13 
REMARK       I    between atoms: N_13  and  C_14 
REMARK    8  A    between atoms: C_14  and  C_15 
ROOT
HETATM    1  N   UNL     1       7.331  27.442  57.384  1.00  0.00    -0.322 N 
HETATM    2  C   UNL     1       7.599  26.875  56.155  1.00  0.00     0.277 C 
HETATM    3  O   UNL     1       7.628  27.410  55.060  1.00  0.00    -0.266 OA
HETATM    4  H   UNL     1       7.245  26.772  58.145  1.00  0.00     0.169 HD
ENDROOT
BRANCH   1   5
HETATM    5  C   UNL     1       7.054  28.789  57.676  1.00  0.00     0.037 A 
HETATM    6  C   UNL     1       8.006  29.698  58.145  1.00  0.00     0.069 A 
HETATM    7  C   UNL     1       7.656  31.031  58.405  1.00  0.00     0.104 A 
HETATM    8  C   UNL     1       6.332  31.462  58.191  1.00  0.00     0.102 A 
HETATM    9  C   UNL     1       5.379  30.547  57.736  1.00  0.00     0.042 A 
HETATM   10  C   UNL     1       5.740  29.222  57.480  1.00  0.00     0.032 A 
BRANCH   7  11
HETATM   11  O   UNL     1       8.531  31.990  58.855  1.00  0.00    -0.348 OA
BRANCH  11  12
HETATM   12  C   UNL     1       9.637  31.569  59.648  1.00  0.00     0.175 C 
BRANCH  12  13
HETATM   13  C   UNL     1       9.330  31.858  61.116  1.00  0.00     0.022 C 
HETATM   14  C   UNL     1       9.158  30.589  61.937  1.00  0.00     0.007 C 
ENDBRANCH  12  13
ENDBRANCH  11  12
ENDBRANCH   7  11
BRANCH   8  15
HETATM   15  O   UNL     1       6.071  32.780  58.465  1.00  0.00    -0.348 OA
BRANCH  15  16
HETATM   16  C   UNL     1       5.091  33.068  59.461  1.00  0.00     0.175 C 
BRANCH  16  17
HETATM   17  C   UNL     1       5.788  33.070  60.818  1.00  0.00     0.022 C 
HETATM   18  C   UNL     1       4.976  32.334  61.870  1.00  0.00     0.007 C 
ENDBRANCH  16  17
ENDBRANCH  15  16
ENDBRANCH   8  15
ENDBRANCH   1   5
BRANCH   2  19
HETATM   19  C   UNL     1       7.852  25.371  56.277  1.00  0.00     0.156 A 
HETATM   20  N   UNL     1       8.122  24.944  57.480  1.00  0.00    -0.166 NA
HETATM   21  N   UNL     1       8.353  23.614  57.652  1.00  0.00    -0.242 N 
HETATM   22  C   UNL     1       8.323  22.654  56.669  1.00  0.00     0.272 A 
HETATM   23  H   UNL     1       8.527  23.295  58.601  1.00  0.00     0.192 HD
HETATM   24  O   UNL     1       8.521  21.468  56.907  1.00  0.00    -0.266 OA
HETATM   25  C   UNL     1       8.053  23.133  55.303  1.00  0.00     0.046 A 
HETATM   26  C   UNL     1       7.822  24.492  55.088  1.00  0.00     0.016 A 
HETATM   27  C   UNL     1       8.047  22.228  54.234  1.00  0.00     0.018 A 
HETATM   28  C   UNL     1       7.601  24.949  53.783  1.00  0.00     0.015 A 
HETATM   29  C   UNL     1       7.595  24.046  52.715  1.00  0.00     0.001 A 
HETATM   30  C   UNL     1       7.815  22.688  52.940  1.00  0.00     0.001 A 
ENDBRANCH   2  19
TORSDOF 8
ENDMDL
MODEL 2
REMARK VINA RESULT:      -8.8      6.016      8.356
REMARK  8 active torsions:
REMARK  status: ('A' for Active; 'I' for Inactive)
REMARK    1  A    between atoms: C_2  and  C_3 
REMARK    2  A    between atoms: C_3  and  O_4 
REMARK    3  A    between atoms: O_4  and  C_5 
REMARK    4  A    between atoms: C_6  and  O_7 
REMARK    5  A    between atoms: O_7  and  C_8 
REMARK    6  A    between atoms: C_8  and  C_9 
REMARK    7  A    between atoms: C_12  and  N_13 
REMARK       I    between atoms: N_13  and  C_14 
REMARK    8  A    between atoms: C_14  and  C_15 
ROOT
HETATM    1  N   UNL     1       6.027  25.518  53.161  1.00  0.00    -0.322 N 
HETATM    2  C   UNL     1       7.374  25.225  53.239  1.00  0.00     0.277 C 
HETATM    3  O   UNL     1       8.277  25.591  52.506  1.00  0.00    -0.266 OA
HETATM    4  H   UNL     1       5.447  24.999  53.815  1.00  0.00     0.169 HD
ENDROOT
BRANCH   1   5
HETATM    5  C   UNL     1       5.372  26.339  52.227  1.00  0.00     0.037 A 
HETATM    6  C   UNL     1       5.254  26.035  50.868  1.00  0.00     0.069 A 
HETATM    7  C   UNL     1       4.575  26.900  49.998  1.00  0.00     0.104 A 
HETATM    8  C   UNL     1       4.004  28.087  50.495  1.00  0.00     0.102 A 
HETATM    9  C   UNL     1       4.136  28.396  51.850  1.00  0.00     0.042 A 
HETATM   10  C   UNL     1       4.814  27.526  52.708  1.00  0.00     0.032 A 
BRANCH   7  11
HETATM   11  O   UNL     1       4.403  26.671  48.653  1.00  0.00    -0.348 OA
BRANCH  11  12
HETATM   12  C   UNL     1       3.428  25.711  48.256  1.00  0.00     0.175 C 
BRANCH  12  13
HETATM   13  C   UNL     1       2.653  26.261  47.061  1.00  0.00     0.022 C 
HETATM   14  C   UNL     1       1.382  26.990  47.475  1.00  0.00     0.007 C 
ENDBRANCH  12  13
ENDBRANCH  11  12
ENDBRANCH   7  11
BRANCH   8  15
HETATM   15  O   UNL     1       3.354  28.878  49.581  1.00  0.00    -0.348 OA
BRANCH  15  16
HETATM   16  C   UNL     1       3.808  30.221  49.425  1.00  0.00     0.175 C 
BRANCH  16  17
HETATM   17  C   UNL     1       4.909  30.225  48.369  1.00  0.00     0.022 C 
HETATM   18  C   UNL     1       4.372  29.874  46.993  1.00  0.00     0.007 C 
ENDBRANCH  16  17
ENDBRANCH  15  16
ENDBRANCH   8  15
ENDBRANCH   1   5
BRANCH   2  19
HETATM   19  C   UNL     1       7.675  24.290  54.413  1.00  0.00     0.156 A 
HETATM   20  N   UNL     1       7.717  24.860  55.586  1.00  0.00    -0.166 NA
HETATM   21  N   UNL     1       7.977  24.079  56.670  1.00  0.00    -0.242 N 
HETATM   22  C   UNL     1       8.197  22.722  56.654  1.00  0.00     0.272 A 
HETATM   23  H   UNL     1       7.971  24.534  57.578  1.00  0.00     0.192 HD
HETATM   24  O   UNL     1       8.405  22.082  57.679  1.00  0.00    -0.266 OA
HETATM   25  C   UNL     1       8.185  22.078  55.331  1.00  0.00     0.046 A 
HETATM   26  C   UNL     1       7.933  22.850  54.196  1.00  0.00     0.016 A 
HETATM   27  C   UNL     1       8.444  20.706  55.219  1.00  0.00     0.018 A 
HETATM   28  C   UNL     1       7.957  22.241  52.936  1.00  0.00     0.015 A 
HETATM   29  C   UNL     1       8.215  20.871  52.823  1.00  0.00     0.001 A 
HETATM   30  C   UNL     1       8.455  20.104  53.962  1.00  0.00     0.001 A 
ENDBRANCH   2  19
TORSDOF 8
ENDMDL
MODEL 3
REMARK VINA RESULT:      -8.7      1.953      3.450
REMARK  8 active torsions:
REMARK  status: ('A' for Active; 'I' for Inactive)
REMARK    1  A    between atoms: C_2  and  C_3 
REMARK    2  A    between atoms: C_3  and  O_4 
REMARK    3  A    between atoms: O_4  and  C_5 
REMARK    4  A    between atoms: C_6  and  O_7 
REMARK    5  A    between atoms: O_7  and  C_8 
REMARK    6  A    between atoms: C_8  and  C_9 
REMARK    7  A    between atoms: C_12  and  N_13 
REMARK       I    between atoms: N_13  and  C_14 
REMARK    8  A    between atoms: C_14  and  C_15 
ROOT
HETATM    1  N   UNL     1       7.143  28.491  56.445  1.00  0.00    -0.322 N 
HETATM    2  C   UNL     1       6.879  27.169  56.742  1.00  0.00     0.277 C 
HETATM    3  O   UNL     1       7.035  26.581  57.799  1.00  0.00    -0.266 OA
HETATM    4  H   UNL     1       7.046  28.725  55.460  1.00  0.00     0.169 HD
ENDROOT
BRANCH   1   5
HETATM    5  C   UNL     1       7.632  29.491  57.302  1.00  0.00     0.037 A 
HETATM    6  C   UNL     1       6.844  30.514  57.837  1.00  0.00     0.069 A 
HETATM    7  C   UNL     1       7.402  31.473  58.695  1.00  0.00     0.104 A 
HETATM    8  C   UNL     1       8.770  31.407  59.023  1.00  0.00     0.102 A 
HETATM    9  C   UNL     1       9.558  30.393  58.475  1.00  0.00     0.042 A 
HETATM   10  C   UNL     1       8.991  29.443  57.622  1.00  0.00     0.032 A 
BRANCH   7  11
HETATM   11  O   UNL     1       6.697  32.501  59.273  1.00  0.00    -0.348 OA
BRANCH  11  12
HETATM   12  C   UNL     1       5.354  32.250  59.677  1.00  0.00     0.175 C 
BRANCH  12  13
HETATM   13  C   UNL     1       5.035  33.115  60.894  1.00  0.00     0.022 C 
HETATM   14  C   UNL     1       4.426  32.314  62.036  1.00  0.00     0.007 C 
ENDBRANCH  12  13
ENDBRANCH  11  12
ENDBRANCH   7  11
BRANCH   8  15
HETATM   15  O   UNL     1       9.239  32.380  59.870  1.00  0.00    -0.348 OA
BRANCH  15  16
HETATM   16  C   UNL     1       9.806  31.962  61.109  1.00  0.00     0.175 C 
BRANCH  16  17
HETATM   17  C   UNL     1       8.686  31.382  61.967  1.00  0.00     0.022 C 
HETATM   18  C   UNL     1       8.145  32.402  62.954  1.00  0.00     0.007 C 
ENDBRANCH  16  17
ENDBRANCH  15  16
ENDBRANCH   8  15
ENDBRANCH   1   5
BRANCH   2  19
HETATM   19  C   UNL     1       6.352  26.415  55.520  1.00  0.00     0.156 A 
HETATM   20  N   UNL     1       5.279  26.917  54.973  1.00  0.00    -0.166 NA
HETATM   21  N   UNL     1       4.764  26.292  53.878  1.00  0.00    -0.242 N 
HETATM   22  C   UNL     1       5.275  25.167  53.275  1.00  0.00     0.272 A 
HETATM   23  H   UNL     1       3.950  26.717  53.445  1.00  0.00     0.192 HD
HETATM   24  O   UNL     1       4.765  24.673  52.276  1.00  0.00    -0.266 OA
HETATM   25  C   UNL     1       6.465  24.575  53.907  1.00  0.00     0.046 A 
HETATM   26  C   UNL     1       7.013  25.183  55.037  1.00  0.00     0.016 A 
HETATM   27  C   UNL     1       7.024  23.403  53.384  1.00  0.00     0.018 A 
HETATM   28  C   UNL     1       8.124  24.598  55.658  1.00  0.00     0.015 A 
HETATM   29  C   UNL     1       8.683  23.427  55.135  1.00  0.00     0.001 A 
HETATM   30  C   UNL     1       8.136  22.832  54.000  1.00  0.00     0.001 A 
ENDBRANCH   2  19
TORSDOF 8
ENDMDL
MODEL 4
REMARK VINA RESULT:      -8.7      2.097      9.231
REMARK  8 active torsions:
REMARK  status: ('A' for Active; 'I' for Inactive)
REMARK    1  A    between atoms: C_2  and  C_3 
REMARK    2  A    between atoms: C_3  and  O_4 
REMARK    3  A    between atoms: O_4  and  C_5 
REMARK    4  A    between atoms: C_6  and  O_7 
REMARK    5  A    between atoms: O_7  and  C_8 
REMARK    6  A    between atoms: C_8  and  C_9 
REMARK    7  A    between atoms: C_12  and  N_13 
REMARK       I    between atoms: N_13  and  C_14 
REMARK    8  A    between atoms: C_14  and  C_15 
ROOT
HETATM    1  N   UNL     1       6.554  28.462  57.798  1.00  0.00    -0.322 N 
HETATM    2  C   UNL     1       7.326  29.594  57.626  1.00  0.00     0.277 C 
HETATM    3  O   UNL     1       8.302  29.747  56.912  1.00  0.00    -0.266 OA
HETATM    4  H   UNL     1       5.861  28.538  58.539  1.00  0.00     0.169 HD
ENDROOT
BRANCH   1   5
HETATM    5  C   UNL     1       6.691  27.215  57.167  1.00  0.00     0.037 A 
HETATM    6  C   UNL     1       5.919  26.802  56.078  1.00  0.00     0.069 A 
HETATM    7  C   UNL     1       6.122  25.543  55.494  1.00  0.00     0.104 A 
HETATM    8  C   UNL     1       7.112  24.684  56.006  1.00  0.00     0.102 A 
HETATM    9  C   UNL     1       7.872  25.093  57.105  1.00  0.00     0.042 A 
HETATM   10  C   UNL     1       7.663  26.349  57.678  1.00  0.00     0.032 A 
BRANCH   7  11
HETATM   11  O   UNL     1       5.416  25.066  54.415  1.00  0.00    -0.348 OA
BRANCH  11  12
HETATM   12  C   UNL     1       5.586  25.719  53.160  1.00  0.00     0.175 C 
BRANCH  12  13
HETATM   13  C   UNL     1       6.399  24.814  52.238  1.00  0.00     0.022 C 
HETATM   14  C   UNL     1       7.882  25.157  52.244  1.00  0.00     0.007 C 
ENDBRANCH  12  13
ENDBRANCH  11  12
ENDBRANCH   7  11
BRANCH   8  15
HETATM   15  O   UNL     1       7.250  23.472  55.378  1.00  0.00    -0.348 OA
BRANCH  15  16
HETATM   16  C   UNL     1       8.438  22.725  55.632  1.00  0.00     0.175 C 
BRANCH  16  17
HETATM   17  C   UNL     1       8.960  22.205  54.296  1.00  0.00     0.022 C 
HETATM   18  C   UNL     1       7.877  21.491  53.506  1.00  0.00     0.007 C 
ENDBRANCH  16  17
ENDBRANCH  15  16
ENDBRANCH   8  15
ENDBRANCH   1   5
BRANCH   2  19
HETATM   19  C   UNL     1       6.835  30.745  58.505  1.00  0.00     0.156 A 
HETATM   20  N   UNL     1       5.778  31.373  58.066  1.00  0.00    -0.166 NA
HETATM   21  N   UNL     1       5.291  32.405  58.808  1.00  0.00    -0.242 N 
HETATM   22  C   UNL     1       5.806  32.858  59.999  1.00  0.00     0.272 A 
HETATM   23  H   UNL     1       4.447  32.859  58.469  1.00  0.00     0.192 HD
HETATM   24  O   UNL     1       5.297  33.783  60.622  1.00  0.00    -0.266 OA
HETATM   25  C   UNL     1       7.018  32.178  60.483  1.00  0.00     0.046 A 
HETATM   26  C   UNL     1       7.551  31.122  59.742  1.00  0.00     0.016 A 
HETATM   27  C   UNL     1       7.634  32.605  61.666  1.00  0.00     0.018 A 
HETATM   28  C   UNL     1       8.725  30.500  60.186  1.00  0.00     0.015 A 
HETATM   29  C   UNL     1       9.341  30.925  61.367  1.00  0.00     0.001 A 
HETATM   30  C   UNL     1       8.796  31.974  62.107  1.00  0.00     0.001 A 
ENDBRANCH   2  19
TORSDOF 8
ENDMDL
MODEL 5
REMARK VINA RESULT:      -8.7      4.189      7.042
REMARK  8 active torsions:
REMARK  status: ('A' for Active; 'I' for Inactive)
REMARK    1  A    between atoms: C_2  and  C_3 
REMARK    2  A    between atoms: C_3  and  O_4 
REMARK    3  A    between atoms: O_4  and  C_5 
REMARK    4  A    between atoms: C_6  and  O_7 
REMARK    5  A    between atoms: O_7  and  C_8 
REMARK    6  A    between atoms: C_8  and  C_9 
REMARK    7  A    between atoms: C_12  and  N_13 
REMARK       I    between atoms: N_13  and  C_14 
REMARK    8  A    between atoms: C_14  and  C_15 
ROOT
HETATM    1  N   UNL     1       7.868  31.883  61.193  1.00  0.00    -0.322 N 
HETATM    2  C   UNL     1       7.638  32.114  59.852  1.00  0.00     0.277 C 
HETATM    3  O   UNL     1       6.739  32.753  59.333  1.00  0.00    -0.266 OA
HETATM    4  H   UNL     1       8.614  31.218  61.381  1.00  0.00     0.169 HD
ENDROOT
BRANCH   1   5
HETATM    5  C   UNL     1       7.133  32.357  62.293  1.00  0.00     0.037 A 
HETATM    6  C   UNL     1       5.739  32.455  62.316  1.00  0.00     0.069 A 
HETATM    7  C   UNL     1       5.074  32.928  63.456  1.00  0.00     0.104 A 
HETATM    8  C   UNL     1       5.814  33.308  64.592  1.00  0.00     0.102 A 
HETATM    9  C   UNL     1       7.208  33.223  64.561  1.00  0.00     0.042 A 
HETATM   10  C   UNL     1       7.860  32.749  63.420  1.00  0.00     0.032 A 
BRANCH   7  11
HETATM   11  O   UNL     1       3.709  33.044  63.566  1.00  0.00    -0.348 OA
BRANCH  11  12
HETATM   12  C   UNL     1       3.020  33.818  62.588  1.00  0.00     0.175 C 
BRANCH  12  13
HETATM   13  C   UNL     1       3.110  35.293  62.973  1.00  0.00     0.022 C 
HETATM   14  C   UNL     1       3.956  36.099  61.998  1.00  0.00     0.007 C 
ENDBRANCH  12  13
ENDBRANCH  11  12
ENDBRANCH   7  11
BRANCH   8  15
HETATM   15  O   UNL     1       5.090  33.757  65.667  1.00  0.00    -0.348 OA
BRANCH  15  16
HETATM   16  C   UNL     1       5.808  34.324  66.760  1.00  0.00     0.175 C 
BRANCH  16  17
HETATM   17  C   UNL     1       4.955  34.168  68.015  1.00  0.00     0.022 C 
HETATM   18  C   UNL     1       5.725  34.537  69.271  1.00  0.00     0.007 C 
ENDBRANCH  16  17
ENDBRANCH  15  16
ENDBRANCH   8  15
ENDBRANCH   1   5
BRANCH   2  19
HETATM   19  C   UNL     1       8.681  31.415  58.977  1.00  0.00     0.156 A 
HETATM   20  N   UNL     1       9.829  32.028  58.877  1.00  0.00    -0.166 NA
HETATM   21  N   UNL     1      10.799  31.453  58.115  1.00  0.00    -0.242 N 
HETATM   22  C   UNL     1      10.693  30.264  57.432  1.00  0.00     0.272 A 
HETATM   23  H   UNL     1      11.697  31.926  58.077  1.00  0.00     0.192 HD
HETATM   24  O   UNL     1      11.621  29.798  56.782  1.00  0.00    -0.266 OA
HETATM   25  C   UNL     1       9.389  29.584  57.513  1.00  0.00     0.046 A 
HETATM   26  C   UNL     1       8.368  30.151  58.276  1.00  0.00     0.016 A 
HETATM   27  C   UNL     1       9.179  28.390  56.812  1.00  0.00     0.018 A 
HETATM   28  C   UNL     1       7.119  29.521  58.322  1.00  0.00     0.015 A 
HETATM   29  C   UNL     1       6.908  28.328  57.623  1.00  0.00     0.001 A 
HETATM   30  C   UNL     1       7.937  27.763  56.871  1.00  0.00     0.001 A 
ENDBRANCH   2  19
TORSDOF 8
ENDMDL
MODEL 6
REMARK VINA RESULT:      -8.6      1.750      3.141
REMARK  8 active torsions:
REMARK  status: ('A' for Active; 'I' for Inactive)
REMARK    1  A    between atoms: C_2  and  C_3 
REMARK    2  A    between atoms: C_3  and  O_4 
REMARK    3  A    between atoms: O_4  and  C_5 
REMARK    4  A    between atoms: C_6  and  O_7 
REMARK    5  A    between atoms: O_7  and  C_8 
REMARK    6  A    between atoms: C_8  and  C_9 
REMARK    7  A    between atoms: C_12  and  N_13 
REMARK       I    between atoms: N_13  and  C_14 
REMARK    8  A    between atoms: C_14  and  C_15 
ROOT
HETATM    1  N   UNL     1       8.242  27.379  56.497  1.00  0.00    -0.322 N 
HETATM    2  C   UNL     1       7.917  26.147  57.027  1.00  0.00     0.277 C 
HETATM    3  O   UNL     1       7.726  25.847  58.194  1.00  0.00    -0.266 OA
HETATM    4  H   UNL     1       8.472  27.361  55.506  1.00  0.00     0.169 HD
ENDROOT
BRANCH   1   5
HETATM    5  C   UNL     1       8.402  28.600  57.174  1.00  0.00     0.037 A 
HETATM    6  C   UNL     1       7.355  29.300  57.778  1.00  0.00     0.069 A 
HETATM    7  C   UNL     1       7.596  30.510  58.446  1.00  0.00     0.104 A 
HETATM    8  C   UNL     1       8.904  31.027  58.511  1.00  0.00     0.102 A 
HETATM    9  C   UNL     1       9.946  30.332  57.893  1.00  0.00     0.042 A 
HETATM   10  C   UNL     1       9.695  29.128  57.232  1.00  0.00     0.032 A 
BRANCH   7  11
HETATM   11  O   UNL     1       6.627  31.254  59.077  1.00  0.00    -0.348 OA
BRANCH  11  12
HETATM   12  C   UNL     1       5.637  31.888  58.271  1.00  0.00     0.175 C 
BRANCH  12  13
HETATM   13  C   UNL     1       5.149  33.145  58.988  1.00  0.00     0.022 C 
HETATM   14  C   UNL     1       5.294  33.048  60.500  1.00  0.00     0.007 C 
ENDBRANCH  12  13
ENDBRANCH  11  12
ENDBRANCH   7  11
BRANCH   8  15
HETATM   15  O   UNL     1       9.056  32.213  59.184  1.00  0.00    -0.348 OA
BRANCH  15  16
HETATM   16  C   UNL     1       9.847  32.204  60.371  1.00  0.00     0.175 C 
BRANCH  16  17
HETATM   17  C   UNL     1       8.921  31.918  61.549  1.00  0.00     0.022 C 
HETATM   18  C   UNL     1       9.126  30.518  62.101  1.00  0.00     0.007 C 
ENDBRANCH  16  17
ENDBRANCH  15  16
ENDBRANCH   8  15
ENDBRANCH   1   5
BRANCH   2  19
HETATM   19  C   UNL     1       7.837  25.073  55.940  1.00  0.00     0.156 A 
HETATM   20  N   UNL     1       8.725  24.121  56.028  1.00  0.00    -0.166 NA
HETATM   21  N   UNL     1       8.702  23.134  55.091  1.00  0.00    -0.242 N 
HETATM   22  C   UNL     1       7.816  23.033  54.044  1.00  0.00     0.272 A 
HETATM   23  H   UNL     1       9.377  22.382  55.196  1.00  0.00     0.192 HD
HETATM   24  O   UNL     1       7.845  22.100  53.251  1.00  0.00    -0.266 OA
HETATM   25  C   UNL     1       6.834  24.122  53.919  1.00  0.00     0.046 A 
HETATM   26  C   UNL     1       6.836  25.156  54.856  1.00  0.00     0.016 A 
HETATM   27  C   UNL     1       5.923  24.122  52.855  1.00  0.00     0.018 A 
HETATM   28  C   UNL     1       5.924  26.209  54.713  1.00  0.00     0.015 A 
HETATM   29  C   UNL     1       5.013  26.210  53.652  1.00  0.00     0.001 A 
HETATM   30  C   UNL     1       5.011  25.168  52.726  1.00  0.00     0.001 A 
ENDBRANCH   2  19
TORSDOF 8
ENDMDL
MODEL 7
REMARK VINA RESULT:      -8.5      5.610      8.691
REMARK  8 active torsions:
REMARK  status: ('A' for Active; 'I' for Inactive)
REMARK    1  A    between atoms: C_2  and  C_3 
REMARK    2  A    between atoms: C_3  and  O_4 
REMARK    3  A    between atoms: O_4  and  C_5 
REMARK    4  A    between atoms: C_6  and  O_7 
REMARK    5  A    between atoms: O_7  and  C_8 
REMARK    6  A    between atoms: C_8  and  C_9 
REMARK    7  A    between atoms: C_12  and  N_13 
REMARK       I    between atoms: N_13  and  C_14 
REMARK    8  A    between atoms: C_14  and  C_15 
ROOT
HETATM    1  N   UNL     1       5.589  26.698  52.854  1.00  0.00    -0.322 N 
HETATM    2  C   UNL     1       5.291  25.467  53.402  1.00  0.00     0.277 C 
HETATM    3  O   UNL     1       4.364  24.720  53.137  1.00  0.00    -0.266 OA
HETATM    4  H   UNL     1       6.346  27.191  53.320  1.00  0.00     0.169 HD
ENDROOT
BRANCH   1   5
HETATM    5  C   UNL     1       4.907  27.380  51.831  1.00  0.00     0.037 A 
HETATM    6  C   UNL     1       5.145  27.182  50.468  1.00  0.00     0.069 A 
HETATM    7  C   UNL     1       4.416  27.893  49.504  1.00  0.00     0.104 A 
HETATM    8  C   UNL     1       3.434  28.817  49.910  1.00  0.00     0.102 A 
HETATM    9  C   UNL     1       3.209  29.024  51.272  1.00  0.00     0.042 A 
HETATM   10  C   UNL     1       3.940  28.309  52.224  1.00  0.00     0.032 A 
BRANCH   7  11
HETATM   11  O   UNL     1       4.579  27.750  48.147  1.00  0.00    -0.348 OA
BRANCH  11  12
HETATM   12  C   UNL     1       4.701  26.431  47.621  1.00  0.00     0.175 C 
BRANCH  12  13
HETATM   13  C   UNL     1       3.306  25.887  47.325  1.00  0.00     0.022 C 
HETATM   14  C   UNL     1       3.008  24.601  48.084  1.00  0.00     0.007 C 
ENDBRANCH  12  13
ENDBRANCH  11  12
ENDBRANCH   7  11
BRANCH   8  15
HETATM   15  O   UNL     1       2.763  29.470  48.906  1.00  0.00    -0.348 OA
BRANCH  15  16
HETATM   16  C   UNL     1       1.430  29.054  48.619  1.00  0.00     0.175 C 
BRANCH  16  17
HETATM   17  C   UNL     1       1.285  28.955  47.104  1.00  0.00     0.022 C 
HETATM   18  C   UNL     1       0.307  27.866  46.700  1.00  0.00     0.007 C 
ENDBRANCH  16  17
ENDBRANCH  15  16
ENDBRANCH   8  15
ENDBRANCH   1   5
BRANCH   2  19
HETATM   19  C   UNL     1       6.291  25.084  54.495  1.00  0.00     0.156 A 
HETATM   20  N   UNL     1       6.262  25.830  55.565  1.00  0.00    -0.166 NA
HETATM   21  N   UNL     1       7.127  25.536  56.575  1.00  0.00    -0.242 N 
HETATM   22  C   UNL     1       8.041  24.509  56.584  1.00  0.00     0.272 A 
HETATM   23  H   UNL     1       7.066  26.104  57.415  1.00  0.00     0.192 HD
HETATM   24  O   UNL     1       8.773  24.294  57.542  1.00  0.00    -0.266 OA
HETATM   25  C   UNL     1       8.103  23.685  55.365  1.00  0.00     0.046 A 
HETATM   26  C   UNL     1       7.239  23.964  54.306  1.00  0.00     0.016 A 
HETATM   27  C   UNL     1       9.036  22.645  55.272  1.00  0.00     0.018 A 
HETATM   28  C   UNL     1       7.324  23.202  53.135  1.00  0.00     0.015 A 
HETATM   29  C   UNL     1       8.256  22.163  53.040  1.00  0.00     0.001 A 
HETATM   30  C   UNL     1       9.108  21.883  54.107  1.00  0.00     0.001 A 
ENDBRANCH   2  19
TORSDOF 8
ENDMDL
MODEL 8
REMARK VINA RESULT:      -8.3      3.624      6.805
REMARK  8 active torsions:
REMARK  status: ('A' for Active; 'I' for Inactive)
REMARK    1  A    between atoms: C_2  and  C_3 
REMARK    2  A    between atoms: C_3  and  O_4 
REMARK    3  A    between atoms: O_4  and  C_5 
REMARK    4  A    between atoms: C_6  and  O_7 
REMARK    5  A    between atoms: O_7  and  C_8 
REMARK    6  A    between atoms: C_8  and  C_9 
REMARK    7  A    between atoms: C_12  and  N_13 
REMARK       I    between atoms: N_13  and  C_14 
REMARK    8  A    between atoms: C_14  and  C_15 
ROOT
HETATM    1  N   UNL     1       6.963  31.219  60.710  1.00  0.00    -0.322 N 
HETATM    2  C   UNL     1       6.890  31.641  59.398  1.00  0.00     0.277 C 
HETATM    3  O   UNL     1       6.557  32.732  58.967  1.00  0.00    -0.266 OA
HETATM    4  H   UNL     1       7.151  30.225  60.820  1.00  0.00     0.169 HD
ENDROOT
BRANCH   1   5
HETATM    5  C   UNL     1       6.698  31.958  61.875  1.00  0.00     0.037 A 
HETATM    6  C   UNL     1       5.414  32.307  62.303  1.00  0.00     0.069 A 
HETATM    7  C   UNL     1       5.228  33.039  63.485  1.00  0.00     0.104 A 
HETATM    8  C   UNL     1       6.344  33.428  64.251  1.00  0.00     0.102 A 
HETATM    9  C   UNL     1       7.627  33.091  63.814  1.00  0.00     0.042 A 
HETATM   10  C   UNL     1       7.800  32.360  62.636  1.00  0.00     0.032 A 
BRANCH   7  11
HETATM   11  O   UNL     1       4.002  33.412  63.982  1.00  0.00    -0.348 OA
BRANCH  11  12
HETATM   12  C   UNL     1       3.093  34.070  63.104  1.00  0.00     0.175 C 
BRANCH  12  13
HETATM   13  C   UNL     1       3.646  35.453  62.768  1.00  0.00     0.022 C 
HETATM   14  C   UNL     1       3.784  36.340  63.997  1.00  0.00     0.007 C 
ENDBRANCH  12  13
ENDBRANCH  11  12
ENDBRANCH   7  11
BRANCH   8  15
HETATM   15  O   UNL     1       6.078  34.139  65.394  1.00  0.00    -0.348 OA
BRANCH  15  16
HETATM   16  C   UNL     1       6.891  33.883  66.538  1.00  0.00     0.175 C 
BRANCH  16  17
HETATM   17  C   UNL     1       6.190  34.481  67.754  1.00  0.00     0.022 C 
HETATM   18  C   UNL     1       7.175  34.837  68.854  1.00  0.00     0.007 C 
ENDBRANCH  16  17
ENDBRANCH  15  16
ENDBRANCH   8  15
ENDBRANCH   1   5
BRANCH   2  19
HETATM   19  C   UNL     1       7.265  30.519  58.428  1.00  0.00     0.156 A 
HETATM   20  N   UNL     1       6.279  29.751  58.053  1.00  0.00    -0.166 NA
HETATM   21  N   UNL     1       6.550  28.736  57.187  1.00  0.00    -0.242 N 
HETATM   22  C   UNL     1       7.780  28.438  56.650  1.00  0.00     0.272 A 
HETATM   23  H   UNL     1       5.765  28.171  56.878  1.00  0.00     0.192 HD
HETATM   24  O   UNL     1       7.942  27.518  55.856  1.00  0.00    -0.266 OA
HETATM   25  C   UNL     1       8.903  29.280  57.095  1.00  0.00     0.046 A 
HETATM   26  C   UNL     1       8.664  30.322  57.991  1.00  0.00     0.016 A 
HETATM   27  C   UNL     1      10.199  29.018  56.632  1.00  0.00     0.018 A 
HETATM   28  C   UNL     1       9.739  31.098  58.441  1.00  0.00     0.015 A 
HETATM   29  C   UNL     1      11.034  30.837  57.979  1.00  0.00     0.001 A 
HETATM   30  C   UNL     1      11.263  29.801  57.075  1.00  0.00     0.001 A 
ENDBRANCH   2  19
TORSDOF 8
ENDMDL
MODEL 9
REMARK VINA RESULT:      -8.2      4.786      8.840
REMARK  8 active torsions:
REMARK  status: ('A' for Active; 'I' for Inactive)
REMARK    1  A    between atoms: C_2  and  C_3 
REMARK    2  A    between atoms: C_3  and  O_4 
REMARK    3  A    between atoms: O_4  and  C_5 
REMARK    4  A    between atoms: C_6  and  O_7 
REMARK    5  A    between atoms: O_7  and  C_8 
REMARK    6  A    between atoms: C_8  and  C_9 
REMARK    7  A    between atoms: C_12  and  N_13 
REMARK       I    between atoms: N_13  and  C_14 
REMARK    8  A    between atoms: C_14  and  C_15 
ROOT
HETATM    1  N   UNL     1       5.298  26.269  52.501  1.00  0.00    -0.322 N 
HETATM    2  C   UNL     1       5.434  27.627  52.295  1.00  0.00     0.277 C 
HETATM    3  O   UNL     1       6.354  28.358  52.621  1.00  0.00    -0.266 OA
HETATM    4  H   UNL     1       4.387  25.896  52.246  1.00  0.00     0.169 HD
ENDROOT
BRANCH   1   5
HETATM    5  C   UNL     1       6.206  25.390  53.115  1.00  0.00     0.037 A 
HETATM    6  C   UNL     1       6.306  25.213  54.498  1.00  0.00     0.069 A 
HETATM    7  C   UNL     1       7.232  24.307  55.038  1.00  0.00     0.104 A 
HETATM    8  C   UNL     1       8.070  23.567  54.181  1.00  0.00     0.102 A 
HETATM    9  C   UNL     1       7.978  23.758  52.801  1.00  0.00     0.042 A 
HETATM   10  C   UNL     1       7.052  24.661  52.274  1.00  0.00     0.032 A 
BRANCH   7  11
HETATM   11  O   UNL     1       7.386  24.064  56.382  1.00  0.00    -0.348 OA
BRANCH  11  12
HETATM   12  C   UNL     1       8.287  24.890  57.114  1.00  0.00     0.175 C 
BRANCH  12  13
HETATM   13  C   UNL     1       7.491  25.994  57.808  1.00  0.00     0.022 C 
HETATM   14  C   UNL     1       7.904  27.385  57.351  1.00  0.00     0.007 C 
ENDBRANCH  12  13
ENDBRANCH  11  12
ENDBRANCH   7  11
BRANCH   8  15
HETATM   15  O   UNL     1       8.945  22.702  54.787  1.00  0.00    -0.348 OA
BRANCH  15  16
HETATM   16  C   UNL     1       9.103  21.408  54.209  1.00  0.00     0.175 C 
BRANCH  16  17
HETATM   17  C   UNL     1       7.931  20.544  54.664  1.00  0.00     0.022 C 
HETATM   18  C   UNL     1       7.856  20.444  56.177  1.00  0.00     0.007 C 
ENDBRANCH  16  17
ENDBRANCH  15  16
ENDBRANCH   8  15
ENDBRANCH   1   5
BRANCH   2  19
HETATM   19  C   UNL     1       4.212  28.210  51.582  1.00  0.00     0.156 A 
HETATM   20  N   UNL     1       3.385  28.873  52.343  1.00  0.00    -0.166 NA
HETATM   21  N   UNL     1       2.280  29.419  51.765  1.00  0.00    -0.242 N 
HETATM   22  C   UNL     1       1.944  29.347  50.434  1.00  0.00     0.272 A 
HETATM   23  H   UNL     1       1.666  29.962  52.366  1.00  0.00     0.192 HD
HETATM   24  O   UNL     1       0.939  29.885  49.984  1.00  0.00    -0.266 OA
HETATM   25  C   UNL     1       2.854  28.570  49.577  1.00  0.00     0.046 A 
HETATM   26  C   UNL     1       3.991  27.988  50.137  1.00  0.00     0.016 A 
HETATM   27  C   UNL     1       2.564  28.408  48.216  1.00  0.00     0.018 A 
HETATM   28  C   UNL     1       4.836  27.220  49.327  1.00  0.00     0.015 A 
HETATM   29  C   UNL     1       4.548  27.058  47.968  1.00  0.00     0.001 A 
HETATM   30  C   UNL     1       3.415  27.652  47.413  1.00  0.00     0.001 A 
ENDBRANCH   2  19
TORSDOF 8
ENDMDL
MODEL 10
REMARK VINA RESULT:      -8.1      5.725      8.385
REMARK  8 active torsions:
REMARK  status: ('A' for Active; 'I' for Inactive)
REMARK    1  A    between atoms: C_2  and  C_3 
REMARK    2  A    between atoms: C_3  and  O_4 
REMARK    3  A    between atoms: O_4  and  C_5 
REMARK    4  A    between atoms: C_6  and  O_7 
REMARK    5  A    between atoms: O_7  and  C_8 
REMARK    6  A    between atoms: C_8  and  C_9 
REMARK    7  A    between atoms: C_12  and  N_13 
REMARK       I    between atoms: N_13  and  C_14 
REMARK    8  A    between atoms: C_14  and  C_15 
ROOT
HETATM    1  N   UNL     1       6.076  26.323  52.357  1.00  0.00    -0.322 N 
HETATM    2  C   UNL     1       5.538  25.424  53.255  1.00  0.00     0.277 C 
HETATM    3  O   UNL     1       4.414  24.950  53.278  1.00  0.00    -0.266 OA
HETATM    4  H   UNL     1       6.998  26.667  52.611  1.00  0.00     0.169 HD
ENDROOT
BRANCH   1   5
HETATM    5  C   UNL     1       5.464  26.891  51.227  1.00  0.00     0.037 A 
HETATM    6  C   UNL     1       5.360  28.267  51.005  1.00  0.00     0.069 A 
HETATM    7  C   UNL     1       4.743  28.759  49.846  1.00  0.00     0.104 A 
HETATM    8  C   UNL     1       4.223  27.862  48.893  1.00  0.00     0.102 A 
HETATM    9  C   UNL     1       4.315  26.488  49.125  1.00  0.00     0.042 A 
HETATM   10  C   UNL     1       4.933  26.008  50.282  1.00  0.00     0.032 A 
BRANCH   7  11
HETATM   11  O   UNL     1       4.610  30.094  49.545  1.00  0.00    -0.348 OA
BRANCH  11  12
HETATM   12  C   UNL     1       5.305  31.037  50.356  1.00  0.00     0.175 C 
BRANCH  12  13
HETATM   13  C   UNL     1       6.172  31.916  49.457  1.00  0.00     0.022 C 
HETATM   14  C   UNL     1       5.463  32.312  48.170  1.00  0.00     0.007 C 
ENDBRANCH  12  13
ENDBRANCH  11  12
ENDBRANCH   7  11
BRANCH   8  15
HETATM   15  O   UNL     1       3.638  28.423  47.786  1.00  0.00    -0.348 OA
BRANCH  15  16
HETATM   16  C   UNL     1       2.688  27.637  47.069  1.00  0.00     0.175 C 
BRANCH  16  17
HETATM   17  C   UNL     1       1.378  28.418  47.017  1.00  0.00     0.022 C 
HETATM   18  C   UNL     1       0.234  27.565  46.498  1.00  0.00     0.007 C 
ENDBRANCH  16  17
ENDBRANCH  15  16
ENDBRANCH   8  15
ENDBRANCH   1   5
BRANCH   2  19
HETATM   19  C   UNL     1       6.544  25.052  54.346  1.00  0.00     0.156 A 
HETATM   20  N   UNL     1       6.612  25.881  55.351  1.00  0.00    -0.166 NA
HETATM   21  N   UNL     1       7.488  25.601  56.355  1.00  0.00    -0.242 N 
HETATM   22  C   UNL     1       8.320  24.509  56.422  1.00  0.00     0.272 A 
HETATM   23  H   UNL     1       7.502  26.239  57.146  1.00  0.00     0.192 HD
HETATM   24  O   UNL     1       9.068  24.314  57.373  1.00  0.00    -0.266 OA
HETATM   25  C   UNL     1       8.273  23.587  55.275  1.00  0.00     0.046 A 
HETATM   26  C   UNL     1       7.395  23.848  54.223  1.00  0.00     0.016 A 
HETATM   27  C   UNL     1       9.119  22.471  55.240  1.00  0.00     0.018 A 
HETATM   28  C   UNL     1       7.379  22.990  53.117  1.00  0.00     0.015 A 
HETATM   29  C   UNL     1       8.223  21.875  53.081  1.00  0.00     0.001 A 
HETATM   30  C   UNL     1       9.090  21.615  54.142  1.00  0.00     0.001 A 
ENDBRANCH   2  19
TORSDOF 8
ENDMDL
