MODEL 1
REMARK VINA RESULT:      -9.9      0.000      0.000
REMARK  5 active torsions:
REMARK  status: ('A' for Active; 'I' for Inactive)
REMARK    1  A    between atoms: C_4  and  N_5 
REMARK       I    between atoms: N_5  and  C_6 
REMARK    2  A    between atoms: C_6  and  C_7 
REMARK    3  A    between atoms: N_9  and  C_10 
REMARK    4  A    between atoms: C_10  and  C_11 
REMARK    5  A    between atoms: C_14  and  O_15 
ROOT
HETATM    1  C   UNL     1       6.286  27.869  57.648  1.00  0.00     0.105 C 
HETATM    2  C   UNL     1       7.718  28.375  57.692  1.00  0.00     0.140 C 
HETATM    3  N   UNL     1       7.533  29.806  57.732  1.00  0.00    -0.347 N 
HETATM    4  C   UNL     1       6.337  30.188  57.152  1.00  0.00     0.221 C 
HETATM    5  O   UNL     1       5.954  31.326  56.940  1.00  0.00    -0.273 OA
HETATM    6  C   UNL     1       5.569  28.934  56.814  1.00  0.00     0.118 C 
ENDROOT
BRANCH   1   7
HETATM    7  C   UNL     1       6.140  26.475  57.074  1.00  0.00     0.228 C 
HETATM    8  N   UNL     1       7.366  25.952  56.716  1.00  0.00    -0.325 N 
HETATM    9  H   UNL     1       8.201  26.524  56.836  1.00  0.00     0.169 HD
HETATM   10  O   UNL     1       5.048  25.941  56.926  1.00  0.00    -0.273 OA
BRANCH   8  11
HETATM   11  C   UNL     1       7.664  24.720  56.086  1.00  0.00     0.065 A 
HETATM   12  C   UNL     1       7.924  23.535  56.782  1.00  0.00     0.038 A 
HETATM   13  C   UNL     1       8.192  22.350  56.087  1.00  0.00    -0.059 A 
HETATM   14  C   UNL     1       8.505  21.085  56.831  1.00  0.00     0.048 C 
HETATM   15  C   UNL     1       8.220  22.373  54.689  1.00  0.00     0.020 A 
HETATM   16  C   UNL     1       7.961  23.559  53.985  1.00  0.00    -0.005 A 
HETATM   17  C   UNL     1       7.680  24.752  54.681  1.00  0.00     0.093 A 
HETATM   18  C   UNL     1       7.971  23.598  52.584  1.00  0.00     0.015 A 
HETATM   19  N   UNL     1       7.421  25.915  54.033  1.00  0.00    -0.258 NA
HETATM   20  C   UNL     1       7.440  25.910  52.682  1.00  0.00     0.117 A 
HETATM   21  C   UNL     1       7.706  24.790  51.920  1.00  0.00     0.020 A 
ENDBRANCH   8  11
ENDBRANCH   1   7
BRANCH   3  22
HETATM   22  C   UNL     1       8.544  30.729  58.203  1.00  0.00     0.164 C 
BRANCH  22  23
HETATM   23  C   UNL     1       8.369  31.159  59.636  1.00  0.00    -0.040 A 
HETATM   24  C   UNL     1       9.157  30.597  60.649  1.00  0.00     0.011 A 
HETATM   25  C   UNL     1       9.063  31.068  61.961  1.00  0.00     0.037 A 
HETATM   26  C   UNL     1       8.198  32.116  62.277  1.00  0.00     0.068 A 
HETATM   27  C   UNL     1       7.377  32.650  61.284  1.00  0.00     0.037 A 
HETATM   28  C   UNL     1       7.464  32.175  59.971  1.00  0.00     0.011 A 
BRANCH  26  29
HETATM   29  O   UNL     1       8.223  32.524  63.583  1.00  0.00    -0.356 OA
HETATM   30  C   UNL     1       7.126  33.332  63.995  1.00  0.00     0.210 C 
ENDBRANCH  26  29
ENDBRANCH  22  23
ENDBRANCH   3  22
TORSDOF 5
ENDMDL
MODEL 2
REMARK VINA RESULT:      -9.7      1.945      2.383
REMARK  5 active torsions:
REMARK  status: ('A' for Active; 'I' for Inactive)
REMARK    1  A    between atoms: C_4  and  N_5 
REMARK       I    between atoms: N_5  and  C_6 
REMARK    2  A    between atoms: C_6  and  C_7 
REMARK    3  A    between atoms: N_9  and  C_10 
REMARK    4  A    between atoms: C_10  and  C_11 
REMARK    5  A    between atoms: C_14  and  O_15 
ROOT
HETATM    1  C   UNL     1       8.288  29.147  57.511  1.00  0.00     0.105 C 
HETATM    2  C   UNL     1       8.226  29.738  58.910  1.00  0.00     0.140 C 
HETATM    3  N   UNL     1       9.096  30.885  58.793  1.00  0.00    -0.347 N 
HETATM    4  C   UNL     1      10.046  30.712  57.803  1.00  0.00     0.221 C 
HETATM    5  O   UNL     1      10.979  31.453  57.543  1.00  0.00    -0.273 OA
HETATM    6  C   UNL     1       9.730  29.424  57.083  1.00  0.00     0.118 C 
ENDROOT
BRANCH   1   7
HETATM    7  C   UNL     1       7.925  27.678  57.445  1.00  0.00     0.228 C 
HETATM    8  N   UNL     1       7.991  27.205  56.151  1.00  0.00    -0.325 N 
HETATM    9  H   UNL     1       8.236  27.851  55.400  1.00  0.00     0.169 HD
HETATM   10  O   UNL     1       7.581  27.046  58.436  1.00  0.00    -0.273 OA
BRANCH   8  11
HETATM   11  C   UNL     1       7.667  25.921  55.649  1.00  0.00     0.065 A 
HETATM   12  C   UNL     1       8.133  24.728  56.209  1.00  0.00     0.038 A 
HETATM   13  C   UNL     1       7.751  23.496  55.667  1.00  0.00    -0.059 A 
HETATM   14  C   UNL     1       8.277  22.214  56.245  1.00  0.00     0.048 C 
HETATM   15  C   UNL     1       6.919  23.474  54.544  1.00  0.00     0.020 A 
HETATM   16  C   UNL     1       6.449  24.669  53.976  1.00  0.00    -0.005 A 
HETATM   17  C   UNL     1       6.822  25.912  54.526  1.00  0.00     0.093 A 
HETATM   18  C   UNL     1       5.601  24.667  52.859  1.00  0.00     0.015 A 
HETATM   19  N   UNL     1       6.383  27.086  54.005  1.00  0.00    -0.258 NA
HETATM   20  C   UNL     1       5.568  27.040  52.929  1.00  0.00     0.117 A 
HETATM   21  C   UNL     1       5.153  25.870  52.326  1.00  0.00     0.020 A 
ENDBRANCH   8  11
ENDBRANCH   1   7
BRANCH   3  22
HETATM   22  C   UNL     1       9.055  32.013  59.698  1.00  0.00     0.164 C 
BRANCH  22  23
HETATM   23  C   UNL     1       7.950  31.945  60.721  1.00  0.00    -0.040 A 
HETATM   24  C   UNL     1       8.223  31.556  62.039  1.00  0.00     0.011 A 
HETATM   25  C   UNL     1       7.218  31.589  63.008  1.00  0.00     0.037 A 
HETATM   26  C   UNL     1       5.934  32.026  62.682  1.00  0.00     0.068 A 
HETATM   27  C   UNL     1       5.642  32.372  61.363  1.00  0.00     0.037 A 
HETATM   28  C   UNL     1       6.645  32.332  60.389  1.00  0.00     0.011 A 
BRANCH  26  29
HETATM   29  O   UNL     1       5.044  32.059  63.721  1.00  0.00    -0.356 OA
HETATM   30  C   UNL     1       5.075  33.239  64.518  1.00  0.00     0.210 C 
ENDBRANCH  26  29
ENDBRANCH  22  23
ENDBRANCH   3  22
TORSDOF 5
ENDMDL
MODEL 3
REMARK VINA RESULT:      -9.5      1.889      3.330
REMARK  5 active torsions:
REMARK  status: ('A' for Active; 'I' for Inactive)
REMARK    1  A    between atoms: C_4  and  N_5 
REMARK       I    between atoms: N_5  and  C_6 
REMARK    2  A    between atoms: C_6  and  C_7 
REMARK    3  A    between atoms: N_9  and  C_10 
REMARK    4  A    between atoms: C_10  and  C_11 
REMARK    5  A    between atoms: C_14  and  O_15 
ROOT
HETATM    1  C   UNL     1       8.092  29.634  57.089  1.00  0.00     0.105 C 
HETATM    2  C   UNL     1       8.180  30.024  58.555  1.00  0.00     0.140 C 
HETATM    3  N   UNL     1       9.396  30.802  58.589  1.00  0.00    -0.347 N 
HETATM    4  C   UNL     1      10.268  30.440  57.578  1.00  0.00     0.221 C 
HETATM    5  O   UNL     1      11.409  30.838  57.415  1.00  0.00    -0.273 OA
HETATM    6  C   UNL     1       9.557  29.447  56.692  1.00  0.00     0.118 C 
ENDROOT
BRANCH   1   7
HETATM    7  C   UNL     1       7.248  28.404  56.827  1.00  0.00     0.228 C 
HETATM    8  N   UNL     1       7.765  27.655  55.790  1.00  0.00    -0.325 N 
HETATM    9  H   UNL     1       8.599  27.989  55.307  1.00  0.00     0.169 HD
HETATM   10  O   UNL     1       6.221  28.171  57.453  1.00  0.00    -0.273 OA
BRANCH   8  11
HETATM   11  C   UNL     1       7.250  26.481  55.189  1.00  0.00     0.065 A 
HETATM   12  C   UNL     1       6.405  26.487  54.075  1.00  0.00     0.038 A 
HETATM   13  C   UNL     1       5.952  25.283  53.525  1.00  0.00    -0.059 A 
HETATM   14  C   UNL     1       5.017  25.286  52.350  1.00  0.00     0.048 C 
HETATM   15  C   UNL     1       6.334  24.076  54.118  1.00  0.00     0.020 A 
HETATM   16  C   UNL     1       7.182  24.064  55.238  1.00  0.00    -0.005 A 
HETATM   17  C   UNL     1       7.649  25.274  55.788  1.00  0.00     0.093 A 
HETATM   18  C   UNL     1       7.588  22.864  55.838  1.00  0.00     0.015 A 
HETATM   19  N   UNL     1       8.472  25.300  56.867  1.00  0.00    -0.258 NA
HETATM   20  C   UNL     1       8.840  24.121  57.415  1.00  0.00     0.117 A 
HETATM   21  C   UNL     1       8.431  22.891  56.943  1.00  0.00     0.020 A 
ENDBRANCH   8  11
ENDBRANCH   1   7
BRANCH   3  22
HETATM   22  C   UNL     1       9.710  31.748  59.639  1.00  0.00     0.164 C 
BRANCH  22  23
HETATM   23  C   UNL     1       8.614  31.923  60.659  1.00  0.00    -0.040 A 
HETATM   24  C   UNL     1       7.372  32.451  60.286  1.00  0.00     0.011 A 
HETATM   25  C   UNL     1       6.326  32.519  61.210  1.00  0.00     0.037 A 
HETATM   26  C   UNL     1       6.498  32.046  62.511  1.00  0.00     0.068 A 
HETATM   27  C   UNL     1       7.746  31.561  62.904  1.00  0.00     0.037 A 
HETATM   28  C   UNL     1       8.796  31.499  61.982  1.00  0.00     0.011 A 
BRANCH  26  29
HETATM   29  O   UNL     1       5.393  32.122  63.314  1.00  0.00    -0.356 OA
HETATM   30  C   UNL     1       5.447  33.108  64.340  1.00  0.00     0.210 C 
ENDBRANCH  26  29
ENDBRANCH  22  23
ENDBRANCH   3  22
TORSDOF 5
ENDMDL
MODEL 4
REMARK VINA RESULT:      -9.5      5.501     10.021
REMARK  5 active torsions:
REMARK  status: ('A' for Active; 'I' for Inactive)
REMARK    1  A    between atoms: C_4  and  N_5 
REMARK       I    between atoms: N_5  and  C_6 
REMARK    2  A    between atoms: C_6  and  C_7 
REMARK    3  A    between atoms: N_9  and  C_10 
REMARK    4  A    between atoms: C_10  and  C_11 
REMARK    5  A    between atoms: C_14  and  O_15 
ROOT
HETATM    1  C   UNL     1       5.461  26.838  51.771  1.00  0.00     0.105 C 
HETATM    2  C   UNL     1       5.103  26.665  50.304  1.00  0.00     0.140 C 
HETATM    3  N   UNL     1       4.534  27.951  49.978  1.00  0.00    -0.347 N 
HETATM    4  C   UNL     1       3.996  28.574  51.089  1.00  0.00     0.221 C 
HETATM    5  O   UNL     1       3.355  29.611  51.112  1.00  0.00    -0.273 OA
HETATM    6  C   UNL     1       4.339  27.736  52.296  1.00  0.00     0.118 C 
ENDROOT
BRANCH   1   7
HETATM    7  C   UNL     1       5.579  25.535  52.535  1.00  0.00     0.228 C 
HETATM    8  N   UNL     1       6.893  25.262  52.856  1.00  0.00    -0.325 N 
HETATM    9  H   UNL     1       7.621  25.906  52.547  1.00  0.00     0.169 HD
HETATM   10  O   UNL     1       4.608  24.828  52.773  1.00  0.00    -0.273 OA
BRANCH   8  11
HETATM   11  C   UNL     1       7.440  24.125  53.498  1.00  0.00     0.065 A 
HETATM   12  C   UNL     1       7.621  22.890  52.868  1.00  0.00     0.038 A 
HETATM   13  C   UNL     1       8.188  21.817  53.565  1.00  0.00    -0.059 A 
HETATM   14  C   UNL     1       8.354  20.481  52.902  1.00  0.00     0.048 C 
HETATM   15  C   UNL     1       8.546  21.989  54.906  1.00  0.00     0.020 A 
HETATM   16  C   UNL     1       8.365  23.226  55.545  1.00  0.00    -0.005 A 
HETATM   17  C   UNL     1       7.805  24.313  54.842  1.00  0.00     0.093 A 
HETATM   18  C   UNL     1       8.731  23.422  56.883  1.00  0.00     0.015 A 
HETATM   19  N   UNL     1       7.619  25.523  55.427  1.00  0.00    -0.258 NA
HETATM   20  C   UNL     1       7.986  25.670  56.719  1.00  0.00     0.117 A 
HETATM   21  C   UNL     1       8.540  24.662  57.481  1.00  0.00     0.020 A 
ENDBRANCH   8  11
ENDBRANCH   1   7
BRANCH   3  22
HETATM   22  C   UNL     1       4.424  28.456  48.625  1.00  0.00     0.164 C 
BRANCH  22  23
HETATM   23  C   UNL     1       3.105  28.157  47.960  1.00  0.00    -0.040 A 
HETATM   24  C   UNL     1       2.272  29.198  47.532  1.00  0.00     0.011 A 
HETATM   25  C   UNL     1       1.099  28.920  46.826  1.00  0.00     0.037 A 
HETATM   26  C   UNL     1       0.749  27.604  46.523  1.00  0.00     0.068 A 
HETATM   27  C   UNL     1       1.550  26.559  46.985  1.00  0.00     0.037 A 
HETATM   28  C   UNL     1       2.721  26.835  47.698  1.00  0.00     0.011 A 
BRANCH  26  29
HETATM   29  O   UNL     1      -0.396  27.455  45.790  1.00  0.00    -0.356 OA
HETATM   30  C   UNL     1      -1.154  28.643  45.588  1.00  0.00     0.210 C 
ENDBRANCH  26  29
ENDBRANCH  22  23
ENDBRANCH   3  22
TORSDOF 5
ENDMDL
MODEL 5
REMARK VINA RESULT:      -9.5      2.425      9.385
REMARK  5 active torsions:
REMARK  status: ('A' for Active; 'I' for Inactive)
REMARK    1  A    between atoms: C_4  and  N_5 
REMARK       I    between atoms: N_5  and  C_6 
REMARK    2  A    between atoms: C_6  and  C_7 
REMARK    3  A    between atoms: N_9  and  C_10 
REMARK    4  A    between atoms: C_10  and  C_11 
REMARK    5  A    between atoms: C_14  and  O_15 
ROOT
HETATM    1  C   UNL     1       8.656  28.670  57.181  1.00  0.00     0.105 C 
HETATM    2  C   UNL     1       7.359  27.884  57.290  1.00  0.00     0.140 C 
HETATM    3  N   UNL     1       7.238  27.315  55.969  1.00  0.00    -0.347 N 
HETATM    4  C   UNL     1       7.888  28.079  55.017  1.00  0.00     0.221 C 
HETATM    5  O   UNL     1       7.872  27.915  53.809  1.00  0.00    -0.273 OA
HETATM    6  C   UNL     1       8.633  29.175  55.737  1.00  0.00     0.118 C 
ENDROOT
BRANCH   1   7
HETATM    7  C   UNL     1       8.788  29.788  58.194  1.00  0.00     0.228 C 
HETATM    8  N   UNL     1       7.576  30.064  58.795  1.00  0.00    -0.325 N 
HETATM    9  H   UNL     1       6.750  29.543  58.501  1.00  0.00     0.169 HD
HETATM   10  O   UNL     1       9.847  30.371  58.388  1.00  0.00    -0.273 OA
BRANCH   8  11
HETATM   11  C   UNL     1       7.251  31.071  59.735  1.00  0.00     0.065 A 
HETATM   12  C   UNL     1       7.914  31.235  60.956  1.00  0.00     0.038 A 
HETATM   13  C   UNL     1       7.548  32.268  61.826  1.00  0.00    -0.059 A 
HETATM   14  C   UNL     1       8.234  32.426  63.152  1.00  0.00     0.048 C 
HETATM   15  C   UNL     1       6.495  33.117  61.470  1.00  0.00     0.020 A 
HETATM   16  C   UNL     1       5.825  32.956  60.246  1.00  0.00    -0.005 A 
HETATM   17  C   UNL     1       6.199  31.924  59.363  1.00  0.00     0.093 A 
HETATM   18  C   UNL     1       4.778  33.806  59.866  1.00  0.00     0.015 A 
HETATM   19  N   UNL     1       5.576  31.742  58.171  1.00  0.00    -0.258 NA
HETATM   20  C   UNL     1       4.572  32.583  57.841  1.00  0.00     0.117 A 
HETATM   21  C   UNL     1       4.141  33.619  58.645  1.00  0.00     0.020 A 
ENDBRANCH   8  11
ENDBRANCH   1   7
BRANCH   3  22
HETATM   22  C   UNL     1       6.420  26.158  55.671  1.00  0.00     0.164 C 
BRANCH  22  23
HETATM   23  C   UNL     1       7.184  24.993  55.096  1.00  0.00    -0.040 A 
HETATM   24  C   UNL     1       8.157  24.334  55.858  1.00  0.00     0.011 A 
HETATM   25  C   UNL     1       8.792  23.194  55.361  1.00  0.00     0.037 A 
HETATM   26  C   UNL     1       8.454  22.685  54.107  1.00  0.00     0.068 A 
HETATM   27  C   UNL     1       7.519  23.360  53.322  1.00  0.00     0.037 A 
HETATM   28  C   UNL     1       6.888  24.507  53.815  1.00  0.00     0.011 A 
BRANCH  26  29
HETATM   29  O   UNL     1       9.108  21.539  53.743  1.00  0.00    -0.356 OA
HETATM   30  C   UNL     1       8.319  20.575  53.054  1.00  0.00     0.210 C 
ENDBRANCH  26  29
ENDBRANCH  22  23
ENDBRANCH   3  22
TORSDOF 5
ENDMDL
MODEL 6
REMARK VINA RESULT:      -9.5      1.657      2.047
REMARK  5 active torsions:
REMARK  status: ('A' for Active; 'I' for Inactive)
REMARK    1  A    between atoms: C_4  and  N_5 
REMARK       I    between atoms: N_5  and  C_6 
REMARK    2  A    between atoms: C_6  and  C_7 
REMARK    3  A    between atoms: N_9  and  C_10 
REMARK    4  A    between atoms: C_10  and  C_11 
REMARK    5  A    between atoms: C_14  and  O_15 
ROOT
HETATM    1  C   UNL     1       6.672  28.381  57.760  1.00  0.00     0.105 C 
HETATM    2  C   UNL     1       7.323  29.751  57.844  1.00  0.00     0.140 C 
HETATM    3  N   UNL     1       6.178  30.630  57.858  1.00  0.00    -0.347 N 
HETATM    4  C   UNL     1       5.084  30.061  57.232  1.00  0.00     0.221 C 
HETATM    5  O   UNL     1       4.015  30.596  56.992  1.00  0.00    -0.273 OA
HETATM    6  C   UNL     1       5.441  28.636  56.888  1.00  0.00     0.118 C 
ENDROOT
BRANCH   1   7
HETATM    7  C   UNL     1       7.575  27.301  57.201  1.00  0.00     0.228 C 
HETATM    8  N   UNL     1       6.843  26.291  56.613  1.00  0.00    -0.325 N 
HETATM    9  H   UNL     1       5.824  26.345  56.630  1.00  0.00     0.169 HD
HETATM   10  O   UNL     1       8.794  27.343  57.322  1.00  0.00    -0.273 OA
BRANCH   8  11
HETATM   11  C   UNL     1       7.291  25.076  56.040  1.00  0.00     0.065 A 
HETATM   12  C   UNL     1       7.631  23.944  56.787  1.00  0.00     0.038 A 
HETATM   13  C   UNL     1       8.047  22.772  56.146  1.00  0.00    -0.059 A 
HETATM   14  C   UNL     1       8.445  21.566  56.947  1.00  0.00     0.048 C 
HETATM   15  C   UNL     1       8.143  22.756  54.751  1.00  0.00     0.020 A 
HETATM   16  C   UNL     1       7.805  23.891  53.995  1.00  0.00    -0.005 A 
HETATM   17  C   UNL     1       7.374  25.069  54.637  1.00  0.00     0.093 A 
HETATM   18  C   UNL     1       7.881  23.889  52.596  1.00  0.00     0.015 A 
HETATM   19  N   UNL     1       7.036  26.182  53.938  1.00  0.00    -0.258 NA
HETATM   20  C   UNL     1       7.123  26.139  52.591  1.00  0.00     0.117 A 
HETATM   21  C   UNL     1       7.534  25.029  51.881  1.00  0.00     0.020 A 
ENDBRANCH   8  11
ENDBRANCH   1   7
BRANCH   3  22
HETATM   22  C   UNL     1       6.223  31.992  58.348  1.00  0.00     0.164 C 
BRANCH  22  23
HETATM   23  C   UNL     1       5.907  32.130  59.815  1.00  0.00    -0.040 A 
HETATM   24  C   UNL     1       4.585  32.301  60.246  1.00  0.00     0.011 A 
HETATM   25  C   UNL     1       4.285  32.329  61.610  1.00  0.00     0.037 A 
HETATM   26  C   UNL     1       5.293  32.168  62.561  1.00  0.00     0.068 A 
HETATM   27  C   UNL     1       6.617  32.043  62.142  1.00  0.00     0.037 A 
HETATM   28  C   UNL     1       6.921  32.023  60.776  1.00  0.00     0.011 A 
BRANCH  26  29
HETATM   29  O   UNL     1       4.875  32.167  63.864  1.00  0.00    -0.356 OA
HETATM   30  C   UNL     1       5.212  33.327  64.618  1.00  0.00     0.210 C 
ENDBRANCH  26  29
ENDBRANCH  22  23
ENDBRANCH   3  22
TORSDOF 5
ENDMDL
MODEL 7
REMARK VINA RESULT:      -9.4      2.422      9.541
REMARK  5 active torsions:
REMARK  status: ('A' for Active; 'I' for Inactive)
REMARK    1  A    between atoms: C_4  and  N_5 
REMARK       I    between atoms: N_5  and  C_6 
REMARK    2  A    between atoms: C_6  and  C_7 
REMARK    3  A    between atoms: N_9  and  C_10 
REMARK    4  A    between atoms: C_10  and  C_11 
REMARK    5  A    between atoms: C_14  and  O_15 
ROOT
HETATM    1  C   UNL     1       8.927  30.289  58.795  1.00  0.00     0.105 C 
HETATM    2  C   UNL     1       7.656  29.989  58.018  1.00  0.00     0.140 C 
HETATM    3  N   UNL     1       8.168  29.311  56.850  1.00  0.00    -0.347 N 
HETATM    4  C   UNL     1       9.469  29.684  56.567  1.00  0.00     0.221 C 
HETATM    5  O   UNL     1      10.128  29.368  55.591  1.00  0.00    -0.273 OA
HETATM    6  C   UNL     1       9.949  30.568  57.692  1.00  0.00     0.118 C 
ENDROOT
BRANCH   1   7
HETATM    7  C   UNL     1       8.793  31.433  59.779  1.00  0.00     0.228 C 
HETATM    8  N   UNL     1       7.585  31.382  60.443  1.00  0.00    -0.325 N 
HETATM    9  H   UNL     1       6.923  30.643  60.208  1.00  0.00     0.169 HD
HETATM   10  O   UNL     1       9.656  32.294  59.899  1.00  0.00    -0.273 OA
BRANCH   8  11
HETATM   11  C   UNL     1       7.041  32.291  61.383  1.00  0.00     0.065 A 
HETATM   12  C   UNL     1       7.518  32.433  62.690  1.00  0.00     0.038 A 
HETATM   13  C   UNL     1       6.940  33.369  63.556  1.00  0.00    -0.059 A 
HETATM   14  C   UNL     1       7.426  33.501  64.970  1.00  0.00     0.048 C 
HETATM   15  C   UNL     1       5.864  34.141  63.104  1.00  0.00     0.020 A 
HETATM   16  C   UNL     1       5.381  34.001  61.793  1.00  0.00    -0.005 A 
HETATM   17  C   UNL     1       5.968  33.068  60.915  1.00  0.00     0.093 A 
HETATM   18  C   UNL     1       4.314  34.776  61.318  1.00  0.00     0.015 A 
HETATM   19  N   UNL     1       5.529  32.909  59.641  1.00  0.00    -0.258 NA
HETATM   20  C   UNL     1       4.499  33.676  59.222  1.00  0.00     0.117 A 
HETATM   21  C   UNL     1       3.865  34.613  60.013  1.00  0.00     0.020 A 
ENDBRANCH   8  11
ENDBRANCH   1   7
BRANCH   3  22
HETATM   22  C   UNL     1       7.362  28.452  56.008  1.00  0.00     0.164 C 
BRANCH  22  23
HETATM   23  C   UNL     1       7.698  26.988  56.119  1.00  0.00    -0.040 A 
HETATM   24  C   UNL     1       8.201  26.461  57.316  1.00  0.00     0.011 A 
HETATM   25  C   UNL     1       8.416  25.088  57.449  1.00  0.00     0.037 A 
HETATM   26  C   UNL     1       8.118  24.219  56.399  1.00  0.00     0.068 A 
HETATM   27  C   UNL     1       7.660  24.739  55.189  1.00  0.00     0.037 A 
HETATM   28  C   UNL     1       7.451  26.115  55.051  1.00  0.00     0.011 A 
BRANCH  26  29
HETATM   29  O   UNL     1       8.327  22.892  56.659  1.00  0.00    -0.356 OA
HETATM   30  C   UNL     1       7.731  21.985  55.737  1.00  0.00     0.210 C 
ENDBRANCH  26  29
ENDBRANCH  22  23
ENDBRANCH   3  22
TORSDOF 5
ENDMDL
MODEL 8
REMARK VINA RESULT:      -9.3      2.256      9.396
REMARK  5 active torsions:
REMARK  status: ('A' for Active; 'I' for Inactive)
REMARK    1  A    between atoms: C_4  and  N_5 
REMARK       I    between atoms: N_5  and  C_6 
REMARK    2  A    between atoms: C_6  and  C_7 
REMARK    3  A    between atoms: N_9  and  C_10 
REMARK    4  A    between atoms: C_10  and  C_11 
REMARK    5  A    between atoms: C_14  and  O_15 
ROOT
HETATM    1  C   UNL     1       7.019  28.733  56.023  1.00  0.00     0.105 C 
HETATM    2  C   UNL     1       7.792  27.524  55.522  1.00  0.00     0.140 C 
HETATM    3  N   UNL     1       6.979  27.084  54.413  1.00  0.00    -0.347 N 
HETATM    4  C   UNL     1       5.655  27.453  54.565  1.00  0.00     0.221 C 
HETATM    5  O   UNL     1       4.717  27.136  53.853  1.00  0.00    -0.273 OA
HETATM    6  C   UNL     1       5.561  28.333  55.787  1.00  0.00     0.118 C 
ENDROOT
BRANCH   1   7
HETATM    7  C   UNL     1       7.305  29.093  57.466  1.00  0.00     0.228 C 
HETATM    8  N   UNL     1       7.042  30.426  57.710  1.00  0.00    -0.325 N 
HETATM    9  H   UNL     1       6.727  31.016  56.940  1.00  0.00     0.169 HD
HETATM   10  O   UNL     1       7.753  28.280  58.265  1.00  0.00    -0.273 OA
BRANCH   8  11
HETATM   11  C   UNL     1       7.239  31.175  58.895  1.00  0.00     0.065 A 
HETATM   12  C   UNL     1       8.442  31.199  59.607  1.00  0.00     0.038 A 
HETATM   13  C   UNL     1       8.566  31.981  60.761  1.00  0.00    -0.059 A 
HETATM   14  C   UNL     1       9.845  31.983  61.547  1.00  0.00     0.048 C 
HETATM   15  C   UNL     1       7.464  32.719  61.205  1.00  0.00     0.020 A 
HETATM   16  C   UNL     1       6.253  32.697  60.495  1.00  0.00    -0.005 A 
HETATM   17  C   UNL     1       6.128  31.919  59.326  1.00  0.00     0.093 A 
HETATM   18  C   UNL     1       5.142  33.441  60.916  1.00  0.00     0.015 A 
HETATM   19  N   UNL     1       4.975  31.879  58.613  1.00  0.00    -0.258 NA
HETATM   20  C   UNL     1       3.927  32.610  59.053  1.00  0.00     0.117 A 
HETATM   21  C   UNL     1       3.961  33.399  60.186  1.00  0.00     0.020 A 
ENDBRANCH   8  11
ENDBRANCH   1   7
BRANCH   3  22
HETATM   22  C   UNL     1       7.475  26.242  53.344  1.00  0.00     0.164 C 
BRANCH  22  23
HETATM   23  C   UNL     1       7.499  24.773  53.677  1.00  0.00    -0.040 A 
HETATM   24  C   UNL     1       7.821  23.826  52.696  1.00  0.00     0.011 A 
HETATM   25  C   UNL     1       7.941  22.475  53.029  1.00  0.00     0.037 A 
HETATM   26  C   UNL     1       7.758  22.052  54.346  1.00  0.00     0.068 A 
HETATM   27  C   UNL     1       7.392  22.981  55.320  1.00  0.00     0.037 A 
HETATM   28  C   UNL     1       7.264  24.333  54.986  1.00  0.00     0.011 A 
BRANCH  26  29
HETATM   29  O   UNL     1       7.944  20.713  54.563  1.00  0.00    -0.356 OA
HETATM   30  C   UNL     1       7.911  20.302  55.925  1.00  0.00     0.210 C 
ENDBRANCH  26  29
ENDBRANCH  22  23
ENDBRANCH   3  22
TORSDOF 5
ENDMDL
MODEL 9
REMARK VINA RESULT:      -9.3      2.264      9.334
REMARK  5 active torsions:
REMARK  status: ('A' for Active; 'I' for Inactive)
REMARK    1  A    between atoms: C_4  and  N_5 
REMARK       I    between atoms: N_5  and  C_6 
REMARK    2  A    between atoms: C_6  and  C_7 
REMARK    3  A    between atoms: N_9  and  C_10 
REMARK    4  A    between atoms: C_10  and  C_11 
REMARK    5  A    between atoms: C_14  and  O_15 
ROOT
HETATM    1  C   UNL     1       6.102  28.544  55.304  1.00  0.00     0.105 C 
HETATM    2  C   UNL     1       7.097  27.396  55.260  1.00  0.00     0.140 C 
HETATM    3  N   UNL     1       6.820  26.803  53.973  1.00  0.00    -0.347 N 
HETATM    4  C   UNL     1       5.519  27.037  53.568  1.00  0.00     0.221 C 
HETATM    5  O   UNL     1       4.962  26.577  52.585  1.00  0.00    -0.273 OA
HETATM    6  C   UNL     1       4.888  27.976  54.566  1.00  0.00     0.118 C 
ENDROOT
BRANCH   1   7
HETATM    7  C   UNL     1       5.771  29.021  56.702  1.00  0.00     0.228 C 
HETATM    8  N   UNL     1       6.109  30.349  56.870  1.00  0.00    -0.325 N 
HETATM    9  H   UNL     1       6.547  30.848  56.096  1.00  0.00     0.169 HD
HETATM   10  O   UNL     1       5.306  28.274  57.554  1.00  0.00    -0.273 OA
BRANCH   8  11
HETATM   11  C   UNL     1       6.030  31.153  58.033  1.00  0.00     0.065 A 
HETATM   12  C   UNL     1       4.836  31.684  58.530  1.00  0.00     0.038 A 
HETATM   13  C   UNL     1       4.836  32.454  59.698  1.00  0.00    -0.059 A 
HETATM   14  C   UNL     1       3.561  33.054  60.216  1.00  0.00     0.048 C 
HETATM   15  C   UNL     1       6.050  32.707  60.347  1.00  0.00     0.020 A 
HETATM   16  C   UNL     1       7.252  32.178  59.851  1.00  0.00    -0.005 A 
HETATM   17  C   UNL     1       7.254  31.392  58.681  1.00  0.00     0.093 A 
HETATM   18  C   UNL     1       8.476  32.407  60.495  1.00  0.00     0.015 A 
HETATM   19  N   UNL     1       8.396  30.862  58.177  1.00  0.00    -0.258 NA
HETATM   20  C   UNL     1       9.554  31.106  58.828  1.00  0.00     0.117 A 
HETATM   21  C   UNL     1       9.645  31.864  59.978  1.00  0.00     0.020 A 
ENDBRANCH   8  11
ENDBRANCH   1   7
BRANCH   3  22
HETATM   22  C   UNL     1       7.757  25.955  53.267  1.00  0.00     0.164 C 
BRANCH  22  23
HETATM   23  C   UNL     1       7.674  24.498  53.641  1.00  0.00    -0.040 A 
HETATM   24  C   UNL     1       7.924  23.502  52.688  1.00  0.00     0.011 A 
HETATM   25  C   UNL     1       7.946  22.156  53.060  1.00  0.00     0.037 A 
HETATM   26  C   UNL     1       7.735  21.785  54.389  1.00  0.00     0.068 A 
HETATM   27  C   UNL     1       7.440  22.766  55.336  1.00  0.00     0.037 A 
HETATM   28  C   UNL     1       7.411  24.114  54.963  1.00  0.00     0.011 A 
BRANCH  26  29
HETATM   29  O   UNL     1       7.824  20.444  54.644  1.00  0.00    -0.356 OA
HETATM   30  C   UNL     1       8.601  20.086  55.782  1.00  0.00     0.210 C 
ENDBRANCH  26  29
ENDBRANCH  22  23
ENDBRANCH   3  22
TORSDOF 5
ENDMDL
MODEL 10
REMARK VINA RESULT:      -8.9      1.943      3.652
REMARK  5 active torsions:
REMARK  status: ('A' for Active; 'I' for Inactive)
REMARK    1  A    between atoms: C_4  and  N_5 
REMARK       I    between atoms: N_5  and  C_6 
REMARK    2  A    between atoms: C_6  and  C_7 
REMARK    3  A    between atoms: N_9  and  C_10 
REMARK    4  A    between atoms: C_10  and  C_11 
REMARK    5  A    between atoms: C_14  and  O_15 
ROOT
HETATM    1  C   UNL     1       7.519  29.925  57.359  1.00  0.00     0.105 C 
HETATM    2  C   UNL     1       6.774  31.057  58.046  1.00  0.00     0.140 C 
HETATM    3  N   UNL     1       7.633  31.348  59.169  1.00  0.00    -0.347 N 
HETATM    4  C   UNL     1       8.380  30.246  59.545  1.00  0.00     0.221 C 
HETATM    5  O   UNL     1       9.109  30.151  60.518  1.00  0.00    -0.273 OA
HETATM    6  C   UNL     1       8.136  29.157  58.530  1.00  0.00     0.118 C 
ENDROOT
BRANCH   1   7
HETATM    7  C   UNL     1       6.645  29.055  56.479  1.00  0.00     0.228 C 
HETATM    8  N   UNL     1       7.407  28.225  55.682  1.00  0.00    -0.325 N 
HETATM    9  H   UNL     1       8.423  28.288  55.734  1.00  0.00     0.169 HD
HETATM   10  O   UNL     1       5.423  29.145  56.480  1.00  0.00    -0.273 OA
BRANCH   8  11
HETATM   11  C   UNL     1       6.990  27.317  54.679  1.00  0.00     0.065 A 
HETATM   12  C   UNL     1       6.448  27.710  53.452  1.00  0.00     0.038 A 
HETATM   13  C   UNL     1       6.078  26.752  52.502  1.00  0.00    -0.059 A 
HETATM   14  C   UNL     1       5.464  27.169  51.197  1.00  0.00     0.048 C 
HETATM   15  C   UNL     1       6.233  25.395  52.807  1.00  0.00     0.020 A 
HETATM   16  C   UNL     1       6.775  24.994  54.039  1.00  0.00    -0.005 A 
HETATM   17  C   UNL     1       7.160  25.957  54.993  1.00  0.00     0.093 A 
HETATM   18  C   UNL     1       6.953  23.641  54.356  1.00  0.00     0.015 A 
HETATM   19  N   UNL     1       7.691  25.606  56.191  1.00  0.00    -0.258 NA
HETATM   20  C   UNL     1       7.846  24.290  56.458  1.00  0.00     0.117 A 
HETATM   21  C   UNL     1       7.496  23.281  55.584  1.00  0.00     0.020 A 
ENDBRANCH   8  11
ENDBRANCH   1   7
BRANCH   3  22
HETATM   22  C   UNL     1       7.607  32.603  59.890  1.00  0.00     0.164 C 
BRANCH  22  23
HETATM   23  C   UNL     1       6.842  32.553  61.187  1.00  0.00    -0.040 A 
HETATM   24  C   UNL     1       7.507  32.698  62.412  1.00  0.00     0.011 A 
HETATM   25  C   UNL     1       6.784  32.753  63.606  1.00  0.00     0.037 A 
HETATM   26  C   UNL     1       5.391  32.681  63.595  1.00  0.00     0.068 A 
HETATM   27  C   UNL     1       4.724  32.491  62.385  1.00  0.00     0.037 A 
HETATM   28  C   UNL     1       5.446  32.429  61.189  1.00  0.00     0.011 A 
BRANCH  26  29
HETATM   29  O   UNL     1       4.789  32.790  64.819  1.00  0.00    -0.356 OA
HETATM   30  C   UNL     1       4.257  34.074  65.129  1.00  0.00     0.210 C 
ENDBRANCH  26  29
ENDBRANCH  22  23
ENDBRANCH   3  22
TORSDOF 5
ENDMDL
