MODEL 1
REMARK VINA RESULT:      -8.7      0.000      0.000
REMARK  6 active torsions:
REMARK  status: ('A' for Active; 'I' for Inactive)
REMARK    1  A    between atoms: C_2  and  N_3 
REMARK    2  A    between atoms: C_2  and  C_16 
REMARK    3  A    between atoms: N_3  and  C_6 
REMARK    4  A    between atoms: C_16  and  C_17 
REMARK       I    between atoms: C_17  and  N_18 
REMARK    5  A    between atoms: N_18  and  C_19 
REMARK    6  A    between atoms: C_21  and  O_22 
ROOT
HETATM    1  C   UNL     1      10.337  30.357  57.740  1.00  0.00     0.040 C 
HETATM    2  C   UNL     1       8.810  30.396  57.774  1.00  0.00     0.191 C 
ENDROOT
BRANCH   2   3
HETATM    3  N   UNL     1       8.220  29.635  56.590  1.00  0.00    -0.063 N 
HETATM    4  H   UNL     1       8.035  30.343  55.868  1.00  0.00     0.278 HD
HETATM    5  H   UNL     1       8.982  29.072  56.185  1.00  0.00     0.278 HD
BRANCH   3   6
HETATM    6  C   UNL     1       6.982  28.746  56.645  1.00  0.00     0.221 C 
HETATM    7  C   UNL     1       7.266  27.270  56.472  1.00  0.00    -0.011 A 
HETATM    8  C   UNL     1       6.621  26.487  55.500  1.00  0.00     0.009 A 
HETATM    9  C   UNL     1       8.184  26.636  57.338  1.00  0.00     0.011 A 
HETATM   10  C   UNL     1       6.968  25.140  55.338  1.00  0.00     0.019 A 
HETATM   11  S   UNL     1       5.333  27.130  54.455  1.00  0.00    -0.129 SA
HETATM   12  C   UNL     1       7.915  24.545  56.170  1.00  0.00     0.001 A 
HETATM   13  C   UNL     1       8.512  25.288  57.179  1.00  0.00     0.001 A 
HETATM   14  C   UNL     1       4.705  28.424  55.554  1.00  0.00     0.082 C 
HETATM   15  C   UNL     1       5.847  29.385  55.831  1.00  0.00     0.048 C 
ENDBRANCH   3   6
ENDBRANCH   2   3
BRANCH   2  16
HETATM   16  C   UNL     1       8.229  29.958  59.119  1.00  0.00     0.135 C 
BRANCH  16  17
HETATM   17  C   UNL     1       7.831  31.152  59.964  1.00  0.00     0.224 C 
HETATM   18  N   UNL     1       7.585  30.800  61.277  1.00  0.00    -0.327 N 
HETATM   19  H   UNL     1       7.713  29.828  61.536  1.00  0.00     0.169 HD
HETATM   20  O   UNL     1       7.724  32.262  59.457  1.00  0.00    -0.273 OA
BRANCH  18  21
HETATM   21  C   UNL     1       7.191  31.646  62.338  1.00  0.00     0.037 A 
HETATM   22  C   UNL     1       5.861  31.873  62.709  1.00  0.00     0.066 A 
HETATM   23  C   UNL     1       5.558  32.731  63.772  1.00  0.00     0.070 A 
HETATM   24  C   UNL     1       6.593  33.369  64.458  1.00  0.00     0.037 A 
HETATM   25  C   UNL     1       7.919  33.149  64.099  1.00  0.00     0.005 A 
HETATM   26  C   UNL     1       8.217  32.288  63.044  1.00  0.00     0.029 A 
BRANCH  23  27
HETATM   27  O   UNL     1       4.306  33.032  64.232  1.00  0.00    -0.356 OA
HETATM   28  C   UNL     1       4.205  34.030  65.240  1.00  0.00     0.210 C 
ENDBRANCH  23  27
ENDBRANCH  18  21
ENDBRANCH  16  17
ENDBRANCH   2  16
TORSDOF 6
ENDMDL
MODEL 2
REMARK VINA RESULT:      -8.6      3.392      5.965
REMARK  6 active torsions:
REMARK  status: ('A' for Active; 'I' for Inactive)
REMARK    1  A    between atoms: C_2  and  N_3 
REMARK    2  A    between atoms: C_2  and  C_16 
REMARK    3  A    between atoms: N_3  and  C_6 
REMARK    4  A    between atoms: C_16  and  C_17 
REMARK       I    between atoms: C_17  and  N_18 
REMARK    5  A    between atoms: N_18  and  C_19 
REMARK    6  A    between atoms: C_21  and  O_22 
ROOT
HETATM    1  C   UNL     1       4.872  26.150  52.919  1.00  0.00     0.040 C 
HETATM    2  C   UNL     1       5.588  26.580  54.197  1.00  0.00     0.191 C 
ENDROOT
BRANCH   2   3
HETATM    3  N   UNL     1       5.881  25.375  55.088  1.00  0.00    -0.063 N 
HETATM    4  H   UNL     1       5.443  25.586  55.994  1.00  0.00     0.278 HD
HETATM    5  H   UNL     1       5.319  24.592  54.726  1.00  0.00     0.278 HD
BRANCH   3   6
HETATM    6  C   UNL     1       7.270  24.830  55.400  1.00  0.00     0.221 C 
HETATM    7  C   UNL     1       7.589  23.514  54.725  1.00  0.00    -0.011 A 
HETATM    8  C   UNL     1       8.022  22.385  55.441  1.00  0.00     0.009 A 
HETATM    9  C   UNL     1       7.489  23.415  53.320  1.00  0.00     0.011 A 
HETATM   10  C   UNL     1       8.242  21.172  54.775  1.00  0.00     0.019 A 
HETATM   11  S   UNL     1       8.339  22.426  57.190  1.00  0.00    -0.129 SA
HETATM   12  C   UNL     1       8.086  21.081  53.393  1.00  0.00     0.001 A 
HETATM   13  C   UNL     1       7.725  22.206  52.664  1.00  0.00     0.001 A 
HETATM   14  C   UNL     1       8.766  24.178  57.353  1.00  0.00     0.082 C 
HETATM   15  C   UNL     1       7.565  24.987  56.899  1.00  0.00     0.048 C 
ENDBRANCH   3   6
ENDBRANCH   2   3
BRANCH   2  16
HETATM   16  C   UNL     1       6.822  27.444  53.932  1.00  0.00     0.135 C 
BRANCH  16  17
HETATM   17  C   UNL     1       7.025  28.469  55.032  1.00  0.00     0.224 C 
HETATM   18  N   UNL     1       8.281  28.379  55.599  1.00  0.00    -0.327 N 
HETATM   19  H   UNL     1       8.919  27.685  55.224  1.00  0.00     0.169 HD
HETATM   20  O   UNL     1       6.116  29.227  55.347  1.00  0.00    -0.273 OA
BRANCH  18  21
HETATM   21  C   UNL     1       8.813  29.165  56.646  1.00  0.00     0.037 A 
HETATM   22  C   UNL     1       8.177  29.370  57.875  1.00  0.00     0.066 A 
HETATM   23  C   UNL     1       8.775  30.169  58.857  1.00  0.00     0.070 A 
HETATM   24  C   UNL     1      10.008  30.769  58.600  1.00  0.00     0.037 A 
HETATM   25  C   UNL     1      10.651  30.570  57.382  1.00  0.00     0.005 A 
HETATM   26  C   UNL     1      10.056  29.768  56.410  1.00  0.00     0.029 A 
BRANCH  23  27
HETATM   27  O   UNL     1       8.260  30.444  60.094  1.00  0.00    -0.356 OA
HETATM   28  C   UNL     1       9.098  31.139  61.008  1.00  0.00     0.210 C 
ENDBRANCH  23  27
ENDBRANCH  18  21
ENDBRANCH  16  17
ENDBRANCH   2  16
TORSDOF 6
ENDMDL
MODEL 3
REMARK VINA RESULT:      -8.5      3.373      6.326
REMARK  6 active torsions:
REMARK  status: ('A' for Active; 'I' for Inactive)
REMARK    1  A    between atoms: C_2  and  N_3 
REMARK    2  A    between atoms: C_2  and  C_16 
REMARK    3  A    between atoms: N_3  and  C_6 
REMARK    4  A    between atoms: C_16  and  C_17 
REMARK       I    between atoms: C_17  and  N_18 
REMARK    5  A    between atoms: N_18  and  C_19 
REMARK    6  A    between atoms: C_21  and  O_22 
ROOT
HETATM    1  C   UNL     1       6.986  25.957  52.284  1.00  0.00     0.040 C 
HETATM    2  C   UNL     1       5.727  25.784  53.130  1.00  0.00     0.191 C 
ENDROOT
BRANCH   2   3
HETATM    3  N   UNL     1       5.993  24.864  54.319  1.00  0.00    -0.063 N 
HETATM    4  H   UNL     1       5.535  25.311  55.124  1.00  0.00     0.278 HD
HETATM    5  H   UNL     1       5.436  24.012  54.168  1.00  0.00     0.278 HD
BRANCH   3   6
HETATM    6  C   UNL     1       7.372  24.425  54.799  1.00  0.00     0.221 C 
HETATM    7  C   UNL     1       7.713  22.986  54.481  1.00  0.00    -0.011 A 
HETATM    8  C   UNL     1       8.124  22.073  55.467  1.00  0.00     0.009 A 
HETATM    9  C   UNL     1       7.657  22.541  53.141  1.00  0.00     0.011 A 
HETATM   10  C   UNL     1       8.365  20.735  55.129  1.00  0.00     0.019 A 
HETATM   11  S   UNL     1       8.385  22.548  57.160  1.00  0.00    -0.129 SA
HETATM   12  C   UNL     1       8.253  20.303  53.809  1.00  0.00     0.001 A 
HETATM   13  C   UNL     1       7.915  21.209  52.813  1.00  0.00     0.001 A 
HETATM   14  C   UNL     1       8.806  24.289  56.897  1.00  0.00     0.082 C 
HETATM   15  C   UNL     1       7.619  24.950  56.220  1.00  0.00     0.048 C 
ENDBRANCH   3   6
ENDBRANCH   2   3
BRANCH   2  16
HETATM   16  C   UNL     1       5.085  27.112  53.531  1.00  0.00     0.135 C 
BRANCH  16  17
HETATM   17  C   UNL     1       5.497  27.526  54.930  1.00  0.00     0.224 C 
HETATM   18  N   UNL     1       6.573  28.392  54.920  1.00  0.00    -0.327 N 
HETATM   19  H   UNL     1       6.945  28.670  54.019  1.00  0.00     0.169 HD
HETATM   20  O   UNL     1       4.917  27.068  55.908  1.00  0.00    -0.273 OA
BRANCH  18  21
HETATM   21  C   UNL     1       7.222  28.974  56.032  1.00  0.00     0.037 A 
HETATM   22  C   UNL     1       6.617  29.880  56.910  1.00  0.00     0.066 A 
HETATM   23  C   UNL     1       7.336  30.412  57.986  1.00  0.00     0.070 A 
HETATM   24  C   UNL     1       8.668  30.039  58.176  1.00  0.00     0.037 A 
HETATM   25  C   UNL     1       9.279  29.136  57.311  1.00  0.00     0.005 A 
HETATM   26  C   UNL     1       8.557  28.604  56.245  1.00  0.00     0.029 A 
BRANCH  23  27
HETATM   27  O   UNL     1       6.860  31.300  58.911  1.00  0.00    -0.356 OA
HETATM   28  C   UNL     1       7.622  31.472  60.099  1.00  0.00     0.210 C 
ENDBRANCH  23  27
ENDBRANCH  18  21
ENDBRANCH  16  17
ENDBRANCH   2  16
TORSDOF 6
ENDMDL
MODEL 4
REMARK VINA RESULT:      -8.4      1.728      2.131
REMARK  6 active torsions:
REMARK  status: ('A' for Active; 'I' for Inactive)
REMARK    1  A    between atoms: C_2  and  N_3 
REMARK    2  A    between atoms: C_2  and  C_16 
REMARK    3  A    between atoms: N_3  and  C_6 
REMARK    4  A    between atoms: C_16  and  C_17 
REMARK       I    between atoms: C_17  and  N_18 
REMARK    5  A    between atoms: N_18  and  C_19 
REMARK    6  A    between atoms: C_21  and  O_22 
ROOT
HETATM    1  C   UNL     1       9.786  29.417  55.318  1.00  0.00     0.040 C 
HETATM    2  C   UNL     1       9.406  29.430  56.797  1.00  0.00     0.191 C 
ENDROOT
BRANCH   2   3
HETATM    3  N   UNL     1       8.957  28.045  57.255  1.00  0.00    -0.063 N 
HETATM    4  H   UNL     1       9.457  27.377  56.654  1.00  0.00     0.278 HD
HETATM    5  H   UNL     1       9.370  27.888  58.184  1.00  0.00     0.278 HD
BRANCH   3   6
HETATM    6  C   UNL     1       7.510  27.565  57.316  1.00  0.00     0.221 C 
HETATM    7  C   UNL     1       7.217  26.358  56.453  1.00  0.00    -0.011 A 
HETATM    8  C   UNL     1       6.184  26.346  55.500  1.00  0.00     0.009 A 
HETATM    9  C   UNL     1       7.978  25.181  56.627  1.00  0.00     0.011 A 
HETATM   10  C   UNL     1       5.996  25.225  54.681  1.00  0.00     0.019 A 
HETATM   11  S   UNL     1       5.057  27.706  55.295  1.00  0.00    -0.129 SA
HETATM   12  C   UNL     1       6.792  24.092  54.833  1.00  0.00     0.001 A 
HETATM   13  C   UNL     1       7.772  24.063  55.817  1.00  0.00     0.001 A 
HETATM   14  C   UNL     1       5.122  28.375  56.976  1.00  0.00     0.082 C 
HETATM   15  C   UNL     1       6.560  28.770  57.257  1.00  0.00     0.048 C 
ENDBRANCH   3   6
ENDBRANCH   2   3
BRANCH   2  16
HETATM   16  C   UNL     1      10.489  30.035  57.690  1.00  0.00     0.135 C 
BRANCH  16  17
HETATM   17  C   UNL     1       9.924  31.120  58.587  1.00  0.00     0.224 C 
HETATM   18  N   UNL     1       9.068  30.609  59.543  1.00  0.00    -0.327 N 
HETATM   19  H   UNL     1       8.929  29.605  59.563  1.00  0.00     0.169 HD
HETATM   20  O   UNL     1      10.212  32.295  58.394  1.00  0.00    -0.273 OA
BRANCH  18  21
HETATM   21  C   UNL     1       8.360  31.323  60.537  1.00  0.00     0.037 A 
HETATM   22  C   UNL     1       7.098  31.895  60.344  1.00  0.00     0.066 A 
HETATM   23  C   UNL     1       6.470  32.590  61.384  1.00  0.00     0.070 A 
HETATM   24  C   UNL     1       7.114  32.716  62.616  1.00  0.00     0.037 A 
HETATM   25  C   UNL     1       8.367  32.148  62.819  1.00  0.00     0.005 A 
HETATM   26  C   UNL     1       8.987  31.452  61.783  1.00  0.00     0.029 A 
BRANCH  23  27
HETATM   27  O   UNL     1       5.242  33.190  61.324  1.00  0.00    -0.356 OA
HETATM   28  C   UNL     1       4.104  32.363  61.531  1.00  0.00     0.210 C 
ENDBRANCH  23  27
ENDBRANCH  18  21
ENDBRANCH  16  17
ENDBRANCH   2  16
TORSDOF 6
ENDMDL
MODEL 5
REMARK VINA RESULT:      -8.2      2.472      4.689
REMARK  6 active torsions:
REMARK  status: ('A' for Active; 'I' for Inactive)
REMARK    1  A    between atoms: C_2  and  N_3 
REMARK    2  A    between atoms: C_2  and  C_16 
REMARK    3  A    between atoms: N_3  and  C_6 
REMARK    4  A    between atoms: C_16  and  C_17 
REMARK       I    between atoms: C_17  and  N_18 
REMARK    5  A    between atoms: N_18  and  C_19 
REMARK    6  A    between atoms: C_21  and  O_22 
ROOT
HETATM    1  C   UNL     1       4.759  27.189  53.350  1.00  0.00     0.040 C 
HETATM    2  C   UNL     1       5.106  27.324  54.831  1.00  0.00     0.191 C 
ENDROOT
BRANCH   2   3
HETATM    3  N   UNL     1       5.547  25.983  55.410  1.00  0.00    -0.063 N 
HETATM    4  H   UNL     1       5.096  25.916  56.332  1.00  0.00     0.278 HD
HETATM    5  H   UNL     1       5.078  25.250  54.860  1.00  0.00     0.278 HD
BRANCH   3   6
HETATM    6  C   UNL     1       6.994  25.543  55.608  1.00  0.00     0.221 C 
HETATM    7  C   UNL     1       7.411  24.370  54.748  1.00  0.00    -0.011 A 
HETATM    8  C   UNL     1       7.980  23.204  55.289  1.00  0.00     0.009 A 
HETATM    9  C   UNL     1       7.265  24.453  53.346  1.00  0.00     0.011 A 
HETATM   10  C   UNL     1       8.289  22.121  54.456  1.00  0.00     0.019 A 
HETATM   11  S   UNL     1       8.361  23.040  57.018  1.00  0.00    -0.129 SA
HETATM   12  C   UNL     1       8.088  22.203  53.079  1.00  0.00     0.001 A 
HETATM   13  C   UNL     1       7.591  23.374  52.522  1.00  0.00     0.001 A 
HETATM   14  C   UNL     1       8.622  24.788  57.411  1.00  0.00     0.082 C 
HETATM   15  C   UNL     1       7.332  25.525  57.106  1.00  0.00     0.048 C 
ENDBRANCH   3   6
ENDBRANCH   2   3
BRANCH   2  16
HETATM   16  C   UNL     1       6.094  28.455  55.116  1.00  0.00     0.135 C 
BRANCH  16  17
HETATM   17  C   UNL     1       6.048  28.876  56.572  1.00  0.00     0.224 C 
HETATM   18  N   UNL     1       7.036  29.790  56.880  1.00  0.00    -0.327 N 
HETATM   19  H   UNL     1       7.649  30.092  56.130  1.00  0.00     0.169 HD
HETATM   20  O   UNL     1       5.223  28.385  57.333  1.00  0.00    -0.273 OA
BRANCH  18  21
HETATM   21  C   UNL     1       7.295  30.392  58.132  1.00  0.00     0.037 A 
HETATM   22  C   UNL     1       6.525  31.424  58.681  1.00  0.00     0.066 A 
HETATM   23  C   UNL     1       6.855  31.967  59.928  1.00  0.00     0.070 A 
HETATM   24  C   UNL     1       7.964  31.478  60.621  1.00  0.00     0.037 A 
HETATM   25  C   UNL     1       8.734  30.450  60.086  1.00  0.00     0.005 A 
HETATM   26  C   UNL     1       8.399  29.908  58.847  1.00  0.00     0.029 A 
BRANCH  23  27
HETATM   27  O   UNL     1       6.185  32.971  60.572  1.00  0.00    -0.356 OA
HETATM   28  C   UNL     1       6.159  32.930  61.992  1.00  0.00     0.210 C 
ENDBRANCH  23  27
ENDBRANCH  18  21
ENDBRANCH  16  17
ENDBRANCH   2  16
TORSDOF 6
ENDMDL
MODEL 6
REMARK VINA RESULT:      -8.1      2.064      3.424
REMARK  6 active torsions:
REMARK  status: ('A' for Active; 'I' for Inactive)
REMARK    1  A    between atoms: C_2  and  N_3 
REMARK    2  A    between atoms: C_2  and  C_16 
REMARK    3  A    between atoms: N_3  and  C_6 
REMARK    4  A    between atoms: C_16  and  C_17 
REMARK       I    between atoms: C_17  and  N_18 
REMARK    5  A    between atoms: N_18  and  C_19 
REMARK    6  A    between atoms: C_21  and  O_22 
ROOT
HETATM    1  C   UNL     1       4.498  29.008  56.646  1.00  0.00     0.040 C 
HETATM    2  C   UNL     1       5.911  28.476  56.875  1.00  0.00     0.191 C 
ENDROOT
BRANCH   2   3
HETATM    3  N   UNL     1       6.237  27.359  55.887  1.00  0.00    -0.063 N 
HETATM    4  H   UNL     1       5.433  26.719  55.915  1.00  0.00     0.278 HD
HETATM    5  H   UNL     1       6.186  27.768  54.944  1.00  0.00     0.278 HD
BRANCH   3   6
HETATM    6  C   UNL     1       7.484  26.482  55.932  1.00  0.00     0.221 C 
HETATM    7  C   UNL     1       7.633  25.549  54.751  1.00  0.00    -0.011 A 
HETATM    8  C   UNL     1       7.809  24.163  54.901  1.00  0.00     0.009 A 
HETATM    9  C   UNL     1       7.635  26.084  53.443  1.00  0.00     0.011 A 
HETATM   10  C   UNL     1       7.877  23.336  53.773  1.00  0.00     0.019 A 
HETATM   11  S   UNL     1       7.982  23.390  56.494  1.00  0.00    -0.129 SA
HETATM   12  C   UNL     1       7.823  23.878  52.490  1.00  0.00     0.001 A 
HETATM   13  C   UNL     1       7.719  25.252  52.325  1.00  0.00     0.001 A 
HETATM   14  C   UNL     1       8.681  24.787  57.406  1.00  0.00     0.082 C 
HETATM   15  C   UNL     1       7.676  25.922  57.350  1.00  0.00     0.048 C 
ENDBRANCH   3   6
ENDBRANCH   2   3
BRANCH   2  16
HETATM   16  C   UNL     1       6.970  29.578  56.906  1.00  0.00     0.135 C 
BRANCH  16  17
HETATM   17  C   UNL     1       7.566  29.733  58.292  1.00  0.00     0.224 C 
HETATM   18  N   UNL     1       7.168  30.907  58.900  1.00  0.00    -0.327 N 
HETATM   19  H   UNL     1       6.528  31.507  58.392  1.00  0.00     0.169 HD
HETATM   20  O   UNL     1       8.336  28.887  58.733  1.00  0.00    -0.273 OA
BRANCH  18  21
HETATM   21  C   UNL     1       7.529  31.380  60.182  1.00  0.00     0.037 A 
HETATM   22  C   UNL     1       6.612  31.816  61.145  1.00  0.00     0.066 A 
HETATM   23  C   UNL     1       7.057  32.274  62.390  1.00  0.00     0.070 A 
HETATM   24  C   UNL     1       8.425  32.300  62.666  1.00  0.00     0.037 A 
HETATM   25  C   UNL     1       9.345  31.866  61.717  1.00  0.00     0.005 A 
HETATM   26  C   UNL     1       8.898  31.405  60.480  1.00  0.00     0.029 A 
BRANCH  23  27
HETATM   27  O   UNL     1       6.266  32.722  63.413  1.00  0.00    -0.356 OA
HETATM   28  C   UNL     1       6.579  33.992  63.969  1.00  0.00     0.210 C 
ENDBRANCH  23  27
ENDBRANCH  18  21
ENDBRANCH  16  17
ENDBRANCH   2  16
TORSDOF 6
ENDMDL
MODEL 7
REMARK VINA RESULT:      -8.1      8.015     11.496
REMARK  6 active torsions:
REMARK  status: ('A' for Active; 'I' for Inactive)
REMARK    1  A    between atoms: C_2  and  N_3 
REMARK    2  A    between atoms: C_2  and  C_16 
REMARK    3  A    between atoms: N_3  and  C_6 
REMARK    4  A    between atoms: C_16  and  C_17 
REMARK       I    between atoms: C_17  and  N_18 
REMARK    5  A    between atoms: N_18  and  C_19 
REMARK    6  A    between atoms: C_21  and  O_22 
ROOT
HETATM    1  C   UNL     1       7.609  25.106  51.743  1.00  0.00     0.040 C 
HETATM    2  C   UNL     1       6.281  25.145  52.494  1.00  0.00     0.191 C 
ENDROOT
BRANCH   2   3
HETATM    3  N   UNL     1       6.375  24.370  53.805  1.00  0.00    -0.063 N 
HETATM    4  H   UNL     1       5.804  24.895  54.481  1.00  0.00     0.278 HD
HETATM    5  H   UNL     1       5.848  23.495  53.675  1.00  0.00     0.278 HD
BRANCH   3   6
HETATM    6  C   UNL     1       7.671  24.014  54.526  1.00  0.00     0.221 C 
HETATM    7  C   UNL     1       8.054  22.554  54.434  1.00  0.00    -0.011 A 
HETATM    8  C   UNL     1       8.320  21.771  55.571  1.00  0.00     0.009 A 
HETATM    9  C   UNL     1       8.190  21.952  53.164  1.00  0.00     0.011 A 
HETATM   10  C   UNL     1       8.607  20.407  55.434  1.00  0.00     0.019 A 
HETATM   11  S   UNL     1       8.337  22.449  57.215  1.00  0.00    -0.129 SA
HETATM   12  C   UNL     1       8.685  19.820  54.173  1.00  0.00     0.001 A 
HETATM   13  C   UNL     1       8.492  20.595  53.037  1.00  0.00     0.001 A 
HETATM   14  C   UNL     1       8.791  24.154  56.807  1.00  0.00     0.082 C 
HETATM   15  C   UNL     1       7.713  24.709  55.895  1.00  0.00     0.048 C 
ENDBRANCH   3   6
ENDBRANCH   2   3
BRANCH   2  16
HETATM   16  C   UNL     1       5.733  26.562  52.673  1.00  0.00     0.135 C 
BRANCH  16  17
HETATM   17  C   UNL     1       5.234  27.131  51.359  1.00  0.00     0.224 C 
HETATM   18  N   UNL     1       4.520  26.202  50.629  1.00  0.00    -0.327 N 
HETATM   19  H   UNL     1       4.387  25.283  51.037  1.00  0.00     0.169 HD
HETATM   20  O   UNL     1       5.508  28.282  51.038  1.00  0.00    -0.273 OA
BRANCH  18  21
HETATM   21  C   UNL     1       3.915  26.379  49.364  1.00  0.00     0.037 A 
HETATM   22  C   UNL     1       3.617  27.626  48.804  1.00  0.00     0.066 A 
HETATM   23  C   UNL     1       3.012  27.711  47.544  1.00  0.00     0.070 A 
HETATM   24  C   UNL     1       2.699  26.541  46.851  1.00  0.00     0.037 A 
HETATM   25  C   UNL     1       2.993  25.296  47.397  1.00  0.00     0.005 A 
HETATM   26  C   UNL     1       3.601  25.216  48.649  1.00  0.00     0.029 A 
BRANCH  23  27
HETATM   27  O   UNL     1       2.675  28.864  46.889  1.00  0.00    -0.356 OA
HETATM   28  C   UNL     1       1.290  29.132  46.716  1.00  0.00     0.210 C 
ENDBRANCH  23  27
ENDBRANCH  18  21
ENDBRANCH  16  17
ENDBRANCH   2  16
TORSDOF 6
ENDMDL
MODEL 8
REMARK VINA RESULT:      -7.9      3.436      6.231
REMARK  6 active torsions:
REMARK  status: ('A' for Active; 'I' for Inactive)
REMARK    1  A    between atoms: C_2  and  N_3 
REMARK    2  A    between atoms: C_2  and  C_16 
REMARK    3  A    between atoms: N_3  and  C_6 
REMARK    4  A    between atoms: C_16  and  C_17 
REMARK       I    between atoms: C_17  and  N_18 
REMARK    5  A    between atoms: N_18  and  C_19 
REMARK    6  A    between atoms: C_21  and  O_22 
ROOT
HETATM    1  C   UNL     1       5.541  26.136  50.952  1.00  0.00     0.040 C 
HETATM    2  C   UNL     1       5.496  26.364  52.462  1.00  0.00     0.191 C 
ENDROOT
BRANCH   2   3
HETATM    3  N   UNL     1       6.734  25.780  53.137  1.00  0.00    -0.063 N 
HETATM    4  H   UNL     1       7.454  25.734  52.405  1.00  0.00     0.278 HD
HETATM    5  H   UNL     1       7.091  26.500  53.781  1.00  0.00     0.278 HD
BRANCH   3   6
HETATM    6  C   UNL     1       6.786  24.447  53.875  1.00  0.00     0.221 C 
HETATM    7  C   UNL     1       7.429  24.516  55.243  1.00  0.00    -0.011 A 
HETATM    8  C   UNL     1       8.498  23.684  55.616  1.00  0.00     0.009 A 
HETATM    9  C   UNL     1       6.921  25.420  56.201  1.00  0.00     0.011 A 
HETATM   10  C   UNL     1       9.100  23.834  56.872  1.00  0.00     0.019 A 
HETATM   11  S   UNL     1       9.125  22.399  54.558  1.00  0.00    -0.129 SA
HETATM   12  C   UNL     1       8.617  24.769  57.785  1.00  0.00     0.001 A 
HETATM   13  C   UNL     1       7.518  25.551  57.456  1.00  0.00     0.001 A 
HETATM   14  C   UNL     1       7.616  22.054  53.619  1.00  0.00     0.082 C 
HETATM   15  C   UNL     1       7.215  23.333  52.908  1.00  0.00     0.048 C 
ENDBRANCH   3   6
ENDBRANCH   2   3
BRANCH   2  16
HETATM   16  C   UNL     1       5.236  27.822  52.841  1.00  0.00     0.135 C 
BRANCH  16  17
HETATM   17  C   UNL     1       5.500  28.066  54.314  1.00  0.00     0.224 C 
HETATM   18  N   UNL     1       6.664  28.779  54.522  1.00  0.00    -0.327 N 
HETATM   19  H   UNL     1       7.187  29.075  53.706  1.00  0.00     0.169 HD
HETATM   20  O   UNL     1       4.740  27.613  55.163  1.00  0.00    -0.273 OA
BRANCH  18  21
HETATM   21  C   UNL     1       7.222  29.180  55.758  1.00  0.00     0.037 A 
HETATM   22  C   UNL     1       6.578  30.019  56.674  1.00  0.00     0.066 A 
HETATM   23  C   UNL     1       7.206  30.370  57.874  1.00  0.00     0.070 A 
HETATM   24  C   UNL     1       8.484  29.883  58.152  1.00  0.00     0.037 A 
HETATM   25  C   UNL     1       9.131  29.045  57.250  1.00  0.00     0.005 A 
HETATM   26  C   UNL     1       8.501  28.692  56.058  1.00  0.00     0.029 A 
BRANCH  23  27
HETATM   27  O   UNL     1       6.685  31.177  58.849  1.00  0.00    -0.356 OA
HETATM   28  C   UNL     1       7.570  31.620  59.869  1.00  0.00     0.210 C 
ENDBRANCH  23  27
ENDBRANCH  18  21
ENDBRANCH  16  17
ENDBRANCH   2  16
TORSDOF 6
ENDMDL
MODEL 9
REMARK VINA RESULT:      -7.8      2.141      3.256
REMARK  6 active torsions:
REMARK  status: ('A' for Active; 'I' for Inactive)
REMARK    1  A    between atoms: C_2  and  N_3 
REMARK    2  A    between atoms: C_2  and  C_16 
REMARK    3  A    between atoms: N_3  and  C_6 
REMARK    4  A    between atoms: C_16  and  C_17 
REMARK       I    between atoms: C_17  and  N_18 
REMARK    5  A    between atoms: N_18  and  C_19 
REMARK    6  A    between atoms: C_21  and  O_22 
ROOT
HETATM    1  C   UNL     1       5.699  27.807  57.155  1.00  0.00     0.040 C 
HETATM    2  C   UNL     1       7.216  27.927  57.018  1.00  0.00     0.191 C 
ENDROOT
BRANCH   2   3
HETATM    3  N   UNL     1       7.771  26.811  56.137  1.00  0.00    -0.063 N 
HETATM    4  H   UNL     1       8.614  27.200  55.693  1.00  0.00     0.278 HD
HETATM    5  H   UNL     1       8.144  26.089  56.768  1.00  0.00     0.278 HD
BRANCH   3   6
HETATM    6  C   UNL     1       6.999  26.094  55.035  1.00  0.00     0.221 C 
HETATM    7  C   UNL     1       7.367  24.637  54.864  1.00  0.00    -0.011 A 
HETATM    8  C   UNL     1       7.764  24.099  53.627  1.00  0.00     0.009 A 
HETATM    9  C   UNL     1       7.274  23.765  55.971  1.00  0.00     0.011 A 
HETATM   10  C   UNL     1       8.156  22.758  53.537  1.00  0.00     0.019 A 
HETATM   11  S   UNL     1       7.769  25.055  52.127  1.00  0.00    -0.129 SA
HETATM   12  C   UNL     1       8.108  21.926  54.655  1.00  0.00     0.001 A 
HETATM   13  C   UNL     1       7.652  22.425  55.868  1.00  0.00     0.001 A 
HETATM   14  C   UNL     1       6.468  26.240  52.550  1.00  0.00     0.082 C 
HETATM   15  C   UNL     1       6.916  26.991  53.790  1.00  0.00     0.048 C 
ENDBRANCH   3   6
ENDBRANCH   2   3
BRANCH   2  16
HETATM   16  C   UNL     1       7.671  29.319  56.582  1.00  0.00     0.135 C 
BRANCH  16  17
HETATM   17  C   UNL     1       8.348  30.061  57.718  1.00  0.00     0.224 C 
HETATM   18  N   UNL     1       7.483  30.304  58.767  1.00  0.00    -0.327 N 
HETATM   19  H   UNL     1       6.534  29.956  58.686  1.00  0.00     0.169 HD
HETATM   20  O   UNL     1       9.520  30.406  57.622  1.00  0.00    -0.273 OA
BRANCH  18  21
HETATM   21  C   UNL     1       7.765  30.971  59.981  1.00  0.00     0.037 A 
HETATM   22  C   UNL     1       7.051  32.078  60.453  1.00  0.00     0.066 A 
HETATM   23  C   UNL     1       7.401  32.681  61.667  1.00  0.00     0.070 A 
HETATM   24  C   UNL     1       8.474  32.176  62.403  1.00  0.00     0.037 A 
HETATM   25  C   UNL     1       9.188  31.073  61.945  1.00  0.00     0.005 A 
HETATM   26  C   UNL     1       8.833  30.471  60.739  1.00  0.00     0.029 A 
BRANCH  23  27
HETATM   27  O   UNL     1       6.784  33.761  62.236  1.00  0.00    -0.356 OA
HETATM   28  C   UNL     1       5.531  34.155  61.693  1.00  0.00     0.210 C 
ENDBRANCH  23  27
ENDBRANCH  18  21
ENDBRANCH  16  17
ENDBRANCH   2  16
TORSDOF 6
ENDMDL
MODEL 10
REMARK VINA RESULT:      -7.8      1.984      3.286
REMARK  6 active torsions:
REMARK  status: ('A' for Active; 'I' for Inactive)
REMARK    1  A    between atoms: C_2  and  N_3 
REMARK    2  A    between atoms: C_2  and  C_16 
REMARK    3  A    between atoms: N_3  and  C_6 
REMARK    4  A    between atoms: C_16  and  C_17 
REMARK       I    between atoms: C_17  and  N_18 
REMARK    5  A    between atoms: N_18  and  C_19 
REMARK    6  A    between atoms: C_21  and  O_22 
ROOT
HETATM    1  C   UNL     1       4.708  32.086  56.809  1.00  0.00     0.040 C 
HETATM    2  C   UNL     1       4.652  31.161  58.022  1.00  0.00     0.191 C 
ENDROOT
BRANCH   2   3
HETATM    3  N   UNL     1       6.049  30.682  58.407  1.00  0.00    -0.063 N 
HETATM    4  H   UNL     1       6.684  31.453  58.162  1.00  0.00     0.278 HD
HETATM    5  H   UNL     1       6.086  30.659  59.435  1.00  0.00     0.278 HD
BRANCH   3   6
HETATM    6  C   UNL     1       6.711  29.405  57.901  1.00  0.00     0.221 C 
HETATM    7  C   UNL     1       8.135  29.586  57.427  1.00  0.00    -0.011 A 
HETATM    8  C   UNL     1       8.562  29.184  56.150  1.00  0.00     0.009 A 
HETATM    9  C   UNL     1       9.091  30.145  58.304  1.00  0.00     0.011 A 
HETATM   10  C   UNL     1       9.876  29.434  55.736  1.00  0.00     0.019 A 
HETATM   11  S   UNL     1       7.496  28.326  55.012  1.00  0.00    -0.129 SA
HETATM   12  C   UNL     1      10.791  30.035  56.599  1.00  0.00     0.001 A 
HETATM   13  C   UNL     1      10.403  30.376  57.888  1.00  0.00     0.001 A 
HETATM   14  C   UNL     1       6.398  27.529  56.210  1.00  0.00     0.082 C 
HETATM   15  C   UNL     1       5.727  28.624  57.017  1.00  0.00     0.048 C 
ENDBRANCH   3   6
ENDBRANCH   2   3
BRANCH   2  16
HETATM   16  C   UNL     1       3.878  31.759  59.198  1.00  0.00     0.135 C 
BRANCH  16  17
HETATM   17  C   UNL     1       4.792  32.540  60.122  1.00  0.00     0.224 C 
HETATM   18  N   UNL     1       4.989  31.892  61.326  1.00  0.00    -0.327 N 
HETATM   19  H   UNL     1       4.543  30.991  61.454  1.00  0.00     0.169 HD
HETATM   20  O   UNL     1       5.233  33.631  59.781  1.00  0.00    -0.273 OA
BRANCH  18  21
HETATM   21  C   UNL     1       5.772  32.325  62.420  1.00  0.00     0.037 A 
HETATM   22  C   UNL     1       5.246  32.894  63.585  1.00  0.00     0.066 A 
HETATM   23  C   UNL     1       6.096  33.299  64.621  1.00  0.00     0.070 A 
HETATM   24  C   UNL     1       7.475  33.140  64.483  1.00  0.00     0.037 A 
HETATM   25  C   UNL     1       8.008  32.572  63.330  1.00  0.00     0.005 A 
HETATM   26  C   UNL     1       7.159  32.163  62.303  1.00  0.00     0.029 A 
BRANCH  23  27
HETATM   27  O   UNL     1       5.708  33.863  65.806  1.00  0.00    -0.356 OA
HETATM   28  C   UNL     1       4.317  34.082  65.998  1.00  0.00     0.210 C 
ENDBRANCH  23  27
ENDBRANCH  18  21
ENDBRANCH  16  17
ENDBRANCH   2  16
TORSDOF 6
ENDMDL
