MODEL 1
REMARK VINA RESULT:      -9.7      0.000      0.000
REMARK  6 active torsions:
REMARK  status: ('A' for Active; 'I' for Inactive)
REMARK    1  A    between atoms: C_5  and  C_6 
REMARK    2  A    between atoms: C_6  and  O_7 
REMARK    3  A    between atoms: C_6  and  C_8 
REMARK    4  A    between atoms: C_8  and  N_9 
REMARK       I    between atoms: N_9  and  C_10 
REMARK    5  A    between atoms: C_10  and  C_11 
REMARK    6  A    between atoms: C_11  and  C_12 
ROOT
HETATM    1  N   UNL     1       7.625  29.358  58.810  1.00  0.00    -0.358 N 
HETATM    2  C   UNL     1       8.001  28.546  57.764  1.00  0.00     0.222 C 
HETATM    3  O   UNL     1       9.132  28.549  57.286  1.00  0.00    -0.273 OA
HETATM    4  H   UNL     1       6.718  29.224  59.238  1.00  0.00     0.162 HD
ENDROOT
BRANCH   1   5
HETATM    5  C   UNL     1       8.576  30.219  59.498  1.00  0.00     0.159 C 
BRANCH   5   6
HETATM    6  C   UNL     1       8.211  31.718  59.554  1.00  0.00     0.169 C 
BRANCH   6   7
HETATM    7  C   UNL     1       7.858  32.205  60.946  1.00  0.00    -0.028 A 
HETATM    8  C   UNL     1       6.710  32.984  61.147  1.00  0.00     0.010 A 
HETATM    9  C   UNL     1       6.385  33.458  62.421  1.00  0.00     0.007 A 
HETATM   10  C   UNL     1       7.205  33.167  63.517  1.00  0.00    -0.062 A 
HETATM   11  C   UNL     1       6.862  33.665  64.889  1.00  0.00     0.048 C 
HETATM   12  C   UNL     1       8.342  32.375  63.322  1.00  0.00     0.007 A 
HETATM   13  C   UNL     1       8.667  31.902  62.049  1.00  0.00     0.010 A 
ENDBRANCH   6   7
BRANCH   6  14
HETATM   14  O   UNL     1       9.325  32.482  59.072  1.00  0.00    -0.389 OA
HETATM   15  H   UNL     1       9.368  33.281  59.625  1.00  0.00     0.210 HD
ENDBRANCH   6  14
ENDBRANCH   5   6
ENDBRANCH   1   5
BRANCH   2  16
HETATM   16  C   UNL     1       6.911  27.621  57.254  1.00  0.00     0.142 C 
BRANCH  16  17
HETATM   17  C   UNL     1       7.412  26.304  56.724  1.00  0.00    -0.031 A 
HETATM   18  C   UNL     1       8.198  25.441  57.478  1.00  0.00     0.125 A 
HETATM   19  N   UNL     1       8.701  24.270  57.021  1.00  0.00    -0.260 NA
HETATM   20  C   UNL     1       8.453  23.924  55.748  1.00  0.00     0.066 A 
HETATM   21  C   UNL     1       7.689  24.736  54.885  1.00  0.00    -0.007 A 
HETATM   22  C   UNL     1       8.968  22.735  55.250  1.00  0.00     0.032 A 
HETATM   23  C   UNL     1       7.172  25.936  55.397  1.00  0.00     0.022 A 
HETATM   24  C   UNL     1       7.470  24.339  53.553  1.00  0.00     0.014 A 
HETATM   25  C   UNL     1       8.002  23.141  53.077  1.00  0.00     0.001 A 
HETATM   26  C   UNL     1       8.752  22.337  53.928  1.00  0.00     0.002 A 
ENDBRANCH  16  17
ENDBRANCH   2  16
TORSDOF 6
ENDMDL
MODEL 2
REMARK VINA RESULT:      -9.6      1.663     10.173
REMARK  6 active torsions:
REMARK  status: ('A' for Active; 'I' for Inactive)
REMARK    1  A    between atoms: C_5  and  C_6 
REMARK    2  A    between atoms: C_6  and  O_7 
REMARK    3  A    between atoms: C_6  and  C_8 
REMARK    4  A    between atoms: C_8  and  N_9 
REMARK       I    between atoms: N_9  and  C_10 
REMARK    5  A    between atoms: C_10  and  C_11 
REMARK    6  A    between atoms: C_11  and  C_12 
ROOT
HETATM    1  N   UNL     1       8.617  27.205  57.103  1.00  0.00    -0.358 N 
HETATM    2  C   UNL     1       7.929  28.293  57.587  1.00  0.00     0.222 C 
HETATM    3  O   UNL     1       6.718  28.286  57.787  1.00  0.00    -0.273 OA
HETATM    4  H   UNL     1       9.628  27.232  57.075  1.00  0.00     0.162 HD
ENDROOT
BRANCH   1   5
HETATM    5  C   UNL     1       7.970  25.920  56.880  1.00  0.00     0.159 C 
BRANCH   5   6
HETATM    6  C   UNL     1       7.218  25.765  55.542  1.00  0.00     0.169 C 
BRANCH   6   7
HETATM    7  C   UNL     1       7.439  24.423  54.872  1.00  0.00    -0.028 A 
HETATM    8  C   UNL     1       7.459  23.250  55.638  1.00  0.00     0.010 A 
HETATM    9  C   UNL     1       7.684  22.010  55.036  1.00  0.00     0.007 A 
HETATM   10  C   UNL     1       7.897  21.919  53.656  1.00  0.00    -0.062 A 
HETATM   11  C   UNL     1       8.132  20.592  52.999  1.00  0.00     0.048 C 
HETATM   12  C   UNL     1       7.861  23.086  52.886  1.00  0.00     0.007 A 
HETATM   13  C   UNL     1       7.637  24.326  53.488  1.00  0.00     0.010 A 
ENDBRANCH   6   7
BRANCH   6  14
HETATM   14  O   UNL     1       5.814  25.931  55.781  1.00  0.00    -0.389 OA
HETATM   15  H   UNL     1       5.384  25.119  55.458  1.00  0.00     0.210 HD
ENDBRANCH   6  14
ENDBRANCH   5   6
ENDBRANCH   1   5
BRANCH   2  16
HETATM   16  C   UNL     1       8.789  29.509  57.881  1.00  0.00     0.142 C 
BRANCH  16  17
HETATM   17  C   UNL     1       8.190  30.466  58.877  1.00  0.00    -0.031 A 
HETATM   18  C   UNL     1       7.256  31.433  58.523  1.00  0.00     0.125 A 
HETATM   19  N   UNL     1       6.728  32.336  59.381  1.00  0.00    -0.260 NA
HETATM   20  C   UNL     1       7.148  32.325  60.656  1.00  0.00     0.066 A 
HETATM   21  C   UNL     1       8.110  31.405  61.121  1.00  0.00    -0.007 A 
HETATM   22  C   UNL     1       6.633  33.249  61.555  1.00  0.00     0.032 A 
HETATM   23  C   UNL     1       8.625  30.474  60.206  1.00  0.00     0.022 A 
HETATM   24  C   UNL     1       8.530  31.442  62.462  1.00  0.00     0.014 A 
HETATM   25  C   UNL     1       7.999  32.383  63.343  1.00  0.00     0.001 A 
HETATM   26  C   UNL     1       7.048  33.288  62.888  1.00  0.00     0.002 A 
ENDBRANCH  16  17
ENDBRANCH   2  16
TORSDOF 6
ENDMDL
MODEL 3
REMARK VINA RESULT:      -9.5      1.419      2.316
REMARK  6 active torsions:
REMARK  status: ('A' for Active; 'I' for Inactive)
REMARK    1  A    between atoms: C_5  and  C_6 
REMARK    2  A    between atoms: C_6  and  O_7 
REMARK    3  A    between atoms: C_6  and  C_8 
REMARK    4  A    between atoms: C_8  and  N_9 
REMARK       I    between atoms: N_9  and  C_10 
REMARK    5  A    between atoms: C_10  and  C_11 
REMARK    6  A    between atoms: C_11  and  C_12 
ROOT
HETATM    1  N   UNL     1       7.902  28.140  56.985  1.00  0.00    -0.358 N 
HETATM    2  C   UNL     1       6.940  27.340  56.411  1.00  0.00     0.222 C 
HETATM    3  O   UNL     1       5.820  27.188  56.890  1.00  0.00    -0.273 OA
HETATM    4  H   UNL     1       8.760  28.320  56.481  1.00  0.00     0.162 HD
ENDROOT
BRANCH   1   5
HETATM    5  C   UNL     1       7.627  28.951  58.162  1.00  0.00     0.159 C 
BRANCH   5   6
HETATM    6  C   UNL     1       8.418  30.272  58.271  1.00  0.00     0.169 C 
BRANCH   6   7
HETATM    7  C   UNL     1       8.313  30.933  59.631  1.00  0.00    -0.028 A 
HETATM    8  C   UNL     1       9.121  30.495  60.689  1.00  0.00     0.010 A 
HETATM    9  C   UNL     1       9.018  31.081  61.954  1.00  0.00     0.007 A 
HETATM   10  C   UNL     1       8.102  32.112  62.186  1.00  0.00    -0.062 A 
HETATM   11  C   UNL     1       7.989  32.752  63.537  1.00  0.00     0.048 C 
HETATM   12  C   UNL     1       7.307  32.563  61.127  1.00  0.00     0.007 A 
HETATM   13  C   UNL     1       7.408  31.978  59.864  1.00  0.00     0.010 A 
ENDBRANCH   6   7
BRANCH   6  14
HETATM   14  O   UNL     1       9.801  30.005  57.998  1.00  0.00    -0.389 OA
HETATM   15  H   UNL     1       9.863  29.839  57.041  1.00  0.00     0.210 HD
ENDBRANCH   6  14
ENDBRANCH   5   6
ENDBRANCH   1   5
BRANCH   2  16
HETATM   16  C   UNL     1       7.363  26.669  55.116  1.00  0.00     0.142 C 
BRANCH  16  17
HETATM   17  C   UNL     1       7.539  25.177  55.220  1.00  0.00    -0.031 A 
HETATM   18  C   UNL     1       7.775  24.530  56.428  1.00  0.00     0.125 A 
HETATM   19  N   UNL     1       7.979  23.198  56.554  1.00  0.00    -0.260 NA
HETATM   20  C   UNL     1       7.985  22.446  55.441  1.00  0.00     0.066 A 
HETATM   21  C   UNL     1       7.781  23.000  54.161  1.00  0.00    -0.007 A 
HETATM   22  C   UNL     1       8.205  21.080  55.540  1.00  0.00     0.032 A 
HETATM   23  C   UNL     1       7.559  24.383  54.070  1.00  0.00     0.022 A 
HETATM   24  C   UNL     1       7.811  22.174  53.023  1.00  0.00     0.014 A 
HETATM   25  C   UNL     1       8.039  20.804  53.150  1.00  0.00     0.001 A 
HETATM   26  C   UNL     1       8.236  20.256  54.412  1.00  0.00     0.002 A 
ENDBRANCH  16  17
ENDBRANCH   2  16
TORSDOF 6
ENDMDL
MODEL 4
REMARK VINA RESULT:      -9.4      1.966      9.992
REMARK  6 active torsions:
REMARK  status: ('A' for Active; 'I' for Inactive)
REMARK    1  A    between atoms: C_5  and  C_6 
REMARK    2  A    between atoms: C_6  and  O_7 
REMARK    3  A    between atoms: C_6  and  C_8 
REMARK    4  A    between atoms: C_8  and  N_9 
REMARK       I    between atoms: N_9  and  C_10 
REMARK    5  A    between atoms: C_10  and  C_11 
REMARK    6  A    between atoms: C_11  and  C_12 
ROOT
HETATM    1  N   UNL     1       7.508  27.878  56.331  1.00  0.00    -0.358 N 
HETATM    2  C   UNL     1       6.565  28.628  56.996  1.00  0.00     0.222 C 
HETATM    3  O   UNL     1       5.549  28.145  57.487  1.00  0.00    -0.273 OA
HETATM    4  H   UNL     1       8.380  28.311  56.056  1.00  0.00     0.162 HD
ENDROOT
BRANCH   1   5
HETATM    5  C   UNL     1       7.418  26.427  56.244  1.00  0.00     0.159 C 
BRANCH   5   6
HETATM    6  C   UNL     1       6.579  25.872  55.074  1.00  0.00     0.169 C 
BRANCH   6   7
HETATM    7  C   UNL     1       7.061  24.528  54.565  1.00  0.00    -0.028 A 
HETATM    8  C   UNL     1       7.343  24.352  53.203  1.00  0.00     0.010 A 
HETATM    9  C   UNL     1       7.767  23.112  52.718  1.00  0.00     0.007 A 
HETATM   10  C   UNL     1       7.912  22.023  53.584  1.00  0.00    -0.062 A 
HETATM   11  C   UNL     1       8.372  20.690  53.074  1.00  0.00     0.048 C 
HETATM   12  C   UNL     1       7.647  22.200  54.946  1.00  0.00     0.007 A 
HETATM   13  C   UNL     1       7.223  23.438  55.431  1.00  0.00     0.010 A 
ENDBRANCH   6   7
BRANCH   6  14
HETATM   14  O   UNL     1       5.219  25.736  55.507  1.00  0.00    -0.389 OA
HETATM   15  H   UNL     1       5.229  25.099  56.243  1.00  0.00     0.210 HD
ENDBRANCH   6  14
ENDBRANCH   5   6
ENDBRANCH   1   5
BRANCH   2  16
HETATM   16  C   UNL     1       6.888  30.108  57.099  1.00  0.00     0.142 C 
BRANCH  16  17
HETATM   17  C   UNL     1       7.379  30.543  58.454  1.00  0.00    -0.031 A 
HETATM   18  C   UNL     1       8.436  29.919  59.106  1.00  0.00     0.125 A 
HETATM   19  N   UNL     1       8.877  30.255  60.341  1.00  0.00    -0.260 NA
HETATM   20  C   UNL     1       8.239  31.236  61.000  1.00  0.00     0.066 A 
HETATM   21  C   UNL     1       7.139  31.920  60.445  1.00  0.00    -0.007 A 
HETATM   22  C   UNL     1       8.662  31.592  62.273  1.00  0.00     0.032 A 
HETATM   23  C   UNL     1       6.718  31.555  59.157  1.00  0.00     0.022 A 
HETATM   24  C   UNL     1       6.493  32.931  61.180  1.00  0.00     0.014 A 
HETATM   25  C   UNL     1       6.936  33.266  62.459  1.00  0.00     0.001 A 
HETATM   26  C   UNL     1       8.023  32.595  63.006  1.00  0.00     0.002 A 
ENDBRANCH  16  17
ENDBRANCH   2  16
TORSDOF 6
ENDMDL
MODEL 5
REMARK VINA RESULT:      -9.4      4.363      6.707
REMARK  6 active torsions:
REMARK  status: ('A' for Active; 'I' for Inactive)
REMARK    1  A    between atoms: C_5  and  C_6 
REMARK    2  A    between atoms: C_6  and  O_7 
REMARK    3  A    between atoms: C_6  and  C_8 
REMARK    4  A    between atoms: C_8  and  N_9 
REMARK       I    between atoms: N_9  and  C_10 
REMARK    5  A    between atoms: C_10  and  C_11 
REMARK    6  A    between atoms: C_11  and  C_12 
ROOT
HETATM    1  N   UNL     1       8.023  27.380  57.425  1.00  0.00    -0.358 N 
HETATM    2  C   UNL     1       7.556  26.091  57.544  1.00  0.00     0.222 C 
HETATM    3  O   UNL     1       6.363  25.804  57.506  1.00  0.00    -0.273 OA
HETATM    4  H   UNL     1       9.019  27.539  57.343  1.00  0.00     0.162 HD
ENDROOT
BRANCH   1   5
HETATM    5  C   UNL     1       7.136  28.499  57.143  1.00  0.00     0.159 C 
BRANCH   5   6
HETATM    6  C   UNL     1       7.101  28.980  55.677  1.00  0.00     0.169 C 
BRANCH   6   7
HETATM    7  C   UNL     1       6.596  27.932  54.705  1.00  0.00    -0.028 A 
HETATM    8  C   UNL     1       7.493  27.278  53.850  1.00  0.00     0.010 A 
HETATM    9  C   UNL     1       7.037  26.326  52.934  1.00  0.00     0.007 A 
HETATM   10  C   UNL     1       5.676  26.014  52.852  1.00  0.00    -0.062 A 
HETATM   11  C   UNL     1       5.177  24.989  51.877  1.00  0.00     0.048 C 
HETATM   12  C   UNL     1       4.780  26.654  53.717  1.00  0.00     0.007 A 
HETATM   13  C   UNL     1       5.235  27.605  54.631  1.00  0.00     0.010 A 
ENDBRANCH   6   7
BRANCH   6  14
HETATM   14  O   UNL     1       6.250  30.132  55.591  1.00  0.00    -0.389 OA
HETATM   15  H   UNL     1       6.478  30.578  54.757  1.00  0.00     0.210 HD
ENDBRANCH   6  14
ENDBRANCH   5   6
ENDBRANCH   1   5
BRANCH   2  16
HETATM   16  C   UNL     1       8.636  25.037  57.707  1.00  0.00     0.142 C 
BRANCH  16  17
HETATM   17  C   UNL     1       8.441  23.812  56.852  1.00  0.00    -0.031 A 
HETATM   18  C   UNL     1       8.440  22.524  57.375  1.00  0.00     0.125 A 
HETATM   19  N   UNL     1       8.310  21.399  56.633  1.00  0.00    -0.260 NA
HETATM   20  C   UNL     1       8.202  21.524  55.300  1.00  0.00     0.066 A 
HETATM   21  C   UNL     1       8.217  22.780  54.661  1.00  0.00    -0.007 A 
HETATM   22  C   UNL     1       8.081  20.386  54.515  1.00  0.00     0.032 A 
HETATM   23  C   UNL     1       8.340  23.925  55.463  1.00  0.00     0.022 A 
HETATM   24  C   UNL     1       8.117  22.859  53.260  1.00  0.00     0.014 A 
HETATM   25  C   UNL     1       8.000  21.700  52.494  1.00  0.00     0.001 A 
HETATM   26  C   UNL     1       7.982  20.461  53.123  1.00  0.00     0.002 A 
ENDBRANCH  16  17
ENDBRANCH   2  16
TORSDOF 6
ENDMDL
MODEL 6
REMARK VINA RESULT:      -9.4      1.958      9.942
REMARK  6 active torsions:
REMARK  status: ('A' for Active; 'I' for Inactive)
REMARK    1  A    between atoms: C_5  and  C_6 
REMARK    2  A    between atoms: C_6  and  O_7 
REMARK    3  A    between atoms: C_6  and  C_8 
REMARK    4  A    between atoms: C_8  and  N_9 
REMARK       I    between atoms: N_9  and  C_10 
REMARK    5  A    between atoms: C_10  and  C_11 
REMARK    6  A    between atoms: C_11  and  C_12 
ROOT
HETATM    1  N   UNL     1       7.690  29.188  56.258  1.00  0.00    -0.358 N 
HETATM    2  C   UNL     1       8.086  28.863  57.535  1.00  0.00     0.222 C 
HETATM    3  O   UNL     1       7.771  27.813  58.088  1.00  0.00    -0.273 OA
HETATM    4  H   UNL     1       8.080  30.009  55.814  1.00  0.00     0.162 HD
ENDROOT
BRANCH   1   5
HETATM    5  C   UNL     1       6.942  28.260  55.423  1.00  0.00     0.159 C 
BRANCH   5   6
HETATM    6  C   UNL     1       7.596  27.885  54.077  1.00  0.00     0.169 C 
BRANCH   6   7
HETATM    7  C   UNL     1       7.628  26.392  53.811  1.00  0.00    -0.028 A 
HETATM    8  C   UNL     1       7.498  25.487  54.873  1.00  0.00     0.010 A 
HETATM    9  C   UNL     1       7.547  24.109  54.645  1.00  0.00     0.007 A 
HETATM   10  C   UNL     1       7.734  23.611  53.351  1.00  0.00    -0.062 A 
HETATM   11  C   UNL     1       7.782  22.134  53.094  1.00  0.00     0.048 C 
HETATM   12  C   UNL     1       7.847  24.512  52.287  1.00  0.00     0.007 A 
HETATM   13  C   UNL     1       7.799  25.888  52.515  1.00  0.00     0.010 A 
ENDBRANCH   6   7
BRANCH   6  14
HETATM   14  O   UNL     1       6.869  28.522  53.017  1.00  0.00    -0.389 OA
HETATM   15  H   UNL     1       7.125  28.065  52.197  1.00  0.00     0.210 HD
ENDBRANCH   6  14
ENDBRANCH   5   6
ENDBRANCH   1   5
BRANCH   2  16
HETATM   16  C   UNL     1       8.968  29.898  58.209  1.00  0.00     0.142 C 
BRANCH  16  17
HETATM   17  C   UNL     1       8.253  30.765  59.212  1.00  0.00    -0.031 A 
HETATM   18  C   UNL     1       7.155  31.549  58.878  1.00  0.00     0.125 A 
HETATM   19  N   UNL     1       6.513  32.371  59.741  1.00  0.00    -0.260 NA
HETATM   20  C   UNL     1       6.978  32.463  60.998  1.00  0.00     0.066 A 
HETATM   21  C   UNL     1       8.099  31.733  61.438  1.00  0.00    -0.007 A 
HETATM   22  C   UNL     1       6.346  33.309  61.900  1.00  0.00     0.032 A 
HETATM   23  C   UNL     1       8.731  30.880  60.520  1.00  0.00     0.022 A 
HETATM   24  C   UNL     1       8.559  31.875  62.760  1.00  0.00     0.014 A 
HETATM   25  C   UNL     1       7.909  32.735  63.645  1.00  0.00     0.001 A 
HETATM   26  C   UNL     1       6.800  33.453  63.213  1.00  0.00     0.002 A 
ENDBRANCH  16  17
ENDBRANCH   2  16
TORSDOF 6
ENDMDL
MODEL 7
REMARK VINA RESULT:      -9.4      7.548     10.940
REMARK  6 active torsions:
REMARK  status: ('A' for Active; 'I' for Inactive)
REMARK    1  A    between atoms: C_5  and  C_6 
REMARK    2  A    between atoms: C_6  and  O_7 
REMARK    3  A    between atoms: C_6  and  C_8 
REMARK    4  A    between atoms: C_8  and  N_9 
REMARK       I    between atoms: N_9  and  C_10 
REMARK    5  A    between atoms: C_10  and  C_11 
REMARK    6  A    between atoms: C_11  and  C_12 
ROOT
HETATM    1  N   UNL     1       5.870  26.568  50.578  1.00  0.00    -0.358 N 
HETATM    2  C   UNL     1       6.017  25.567  51.511  1.00  0.00     0.222 C 
HETATM    3  O   UNL     1       5.067  24.972  52.010  1.00  0.00    -0.273 OA
HETATM    4  H   UNL     1       6.691  26.936  50.115  1.00  0.00     0.162 HD
ENDROOT
BRANCH   1   5
HETATM    5  C   UNL     1       4.569  26.934  50.037  1.00  0.00     0.159 C 
BRANCH   5   6
HETATM    6  C   UNL     1       4.265  26.429  48.611  1.00  0.00     0.169 C 
BRANCH   6   7
HETATM    7  C   UNL     1       3.140  27.181  47.928  1.00  0.00    -0.028 A 
HETATM    8  C   UNL     1       3.330  28.505  47.511  1.00  0.00     0.010 A 
HETATM    9  C   UNL     1       2.294  29.215  46.899  1.00  0.00     0.007 A 
HETATM   10  C   UNL     1       1.045  28.617  46.699  1.00  0.00    -0.062 A 
HETATM   11  C   UNL     1      -0.072  29.369  46.038  1.00  0.00     0.048 C 
HETATM   12  C   UNL     1       0.857  27.290  47.099  1.00  0.00     0.007 A 
HETATM   13  C   UNL     1       1.892  26.580  47.710  1.00  0.00     0.010 A 
ENDBRANCH   6   7
BRANCH   6  14
HETATM   14  O   UNL     1       5.451  26.559  47.814  1.00  0.00    -0.389 OA
HETATM   15  H   UNL     1       5.271  26.093  46.979  1.00  0.00     0.210 HD
ENDBRANCH   6  14
ENDBRANCH   5   6
ENDBRANCH   1   5
BRANCH   2  16
HETATM   16  C   UNL     1       7.455  25.233  51.863  1.00  0.00     0.142 C 
BRANCH  16  17
HETATM   17  C   UNL     1       7.608  24.333  53.061  1.00  0.00    -0.031 A 
HETATM   18  C   UNL     1       7.625  24.814  54.365  1.00  0.00     0.125 A 
HETATM   19  N   UNL     1       7.802  24.041  55.462  1.00  0.00    -0.260 NA
HETATM   20  C   UNL     1       8.002  22.725  55.288  1.00  0.00     0.066 A 
HETATM   21  C   UNL     1       8.029  22.132  54.009  1.00  0.00    -0.007 A 
HETATM   22  C   UNL     1       8.200  21.911  56.395  1.00  0.00     0.032 A 
HETATM   23  C   UNL     1       7.829  22.962  52.895  1.00  0.00     0.022 A 
HETATM   24  C   UNL     1       8.259  20.751  53.876  1.00  0.00     0.014 A 
HETATM   25  C   UNL     1       8.458  19.957  55.005  1.00  0.00     0.001 A 
HETATM   26  C   UNL     1       8.428  20.538  56.267  1.00  0.00     0.002 A 
ENDBRANCH  16  17
ENDBRANCH   2  16
TORSDOF 6
ENDMDL
MODEL 8
REMARK VINA RESULT:      -9.0      2.252      9.753
REMARK  6 active torsions:
REMARK  status: ('A' for Active; 'I' for Inactive)
REMARK    1  A    between atoms: C_5  and  C_6 
REMARK    2  A    between atoms: C_6  and  O_7 
REMARK    3  A    between atoms: C_6  and  C_8 
REMARK    4  A    between atoms: C_8  and  N_9 
REMARK       I    between atoms: N_9  and  C_10 
REMARK    5  A    between atoms: C_10  and  C_11 
REMARK    6  A    between atoms: C_11  and  C_12 
ROOT
HETATM    1  N   UNL     1       7.597  27.820  54.337  1.00  0.00    -0.358 N 
HETATM    2  C   UNL     1       7.696  27.994  55.699  1.00  0.00     0.222 C 
HETATM    3  O   UNL     1       7.127  27.270  56.510  1.00  0.00    -0.273 OA
HETATM    4  H   UNL     1       8.184  28.371  53.725  1.00  0.00     0.162 HD
ENDROOT
BRANCH   1   5
HETATM    5  C   UNL     1       6.880  26.695  53.753  1.00  0.00     0.159 C 
BRANCH   5   6
HETATM    6  C   UNL     1       7.743  25.669  52.989  1.00  0.00     0.169 C 
BRANCH   6   7
HETATM    7  C   UNL     1       7.781  24.301  53.641  1.00  0.00    -0.028 A 
HETATM    8  C   UNL     1       7.803  24.189  55.038  1.00  0.00     0.010 A 
HETATM    9  C   UNL     1       7.860  22.935  55.652  1.00  0.00     0.007 A 
HETATM   10  C   UNL     1       7.903  21.769  54.880  1.00  0.00    -0.062 A 
HETATM   11  C   UNL     1       7.958  20.418  55.528  1.00  0.00     0.048 C 
HETATM   12  C   UNL     1       7.865  21.876  53.485  1.00  0.00     0.007 A 
HETATM   13  C   UNL     1       7.808  23.129  52.872  1.00  0.00     0.010 A 
ENDBRANCH   6   7
BRANCH   6  14
HETATM   14  O   UNL     1       7.221  25.527  51.661  1.00  0.00    -0.389 OA
HETATM   15  H   UNL     1       6.276  25.754  51.713  1.00  0.00     0.210 HD
ENDBRANCH   6  14
ENDBRANCH   5   6
ENDBRANCH   1   5
BRANCH   2  16
HETATM   16  C   UNL     1       8.589  29.144  56.128  1.00  0.00     0.142 C 
BRANCH  16  17
HETATM   17  C   UNL     1       8.115  29.870  57.360  1.00  0.00    -0.031 A 
HETATM   18  C   UNL     1       6.942  30.615  57.388  1.00  0.00     0.125 A 
HETATM   19  N   UNL     1       6.507  31.314  58.462  1.00  0.00    -0.260 NA
HETATM   20  C   UNL     1       7.266  31.317  59.570  1.00  0.00     0.066 A 
HETATM   21  C   UNL     1       8.487  30.618  59.645  1.00  0.00    -0.007 A 
HETATM   22  C   UNL     1       6.849  32.037  60.681  1.00  0.00     0.032 A 
HETATM   23  C   UNL     1       8.900  29.892  58.516  1.00  0.00     0.022 A 
HETATM   24  C   UNL     1       9.255  30.664  60.822  1.00  0.00     0.014 A 
HETATM   25  C   UNL     1       8.815  31.398  61.923  1.00  0.00     0.001 A 
HETATM   26  C   UNL     1       7.610  32.085  61.853  1.00  0.00     0.002 A 
ENDBRANCH  16  17
ENDBRANCH   2  16
TORSDOF 6
ENDMDL
MODEL 9
REMARK VINA RESULT:      -8.9      6.744     10.905
REMARK  6 active torsions:
REMARK  status: ('A' for Active; 'I' for Inactive)
REMARK    1  A    between atoms: C_5  and  C_6 
REMARK    2  A    between atoms: C_6  and  O_7 
REMARK    3  A    between atoms: C_6  and  C_8 
REMARK    4  A    between atoms: C_8  and  N_9 
REMARK       I    between atoms: N_9  and  C_10 
REMARK    5  A    between atoms: C_10  and  C_11 
REMARK    6  A    between atoms: C_11  and  C_12 
ROOT
HETATM    1  N   UNL     1       4.739  26.557  50.736  1.00  0.00    -0.358 N 
HETATM    2  C   UNL     1       5.192  27.035  51.944  1.00  0.00     0.222 C 
HETATM    3  O   UNL     1       5.894  28.036  52.048  1.00  0.00    -0.273 OA
HETATM    4  H   UNL     1       4.067  25.801  50.724  1.00  0.00     0.162 HD
ENDROOT
BRANCH   1   5
HETATM    5  C   UNL     1       4.981  27.265  49.487  1.00  0.00     0.159 C 
BRANCH   5   6
HETATM    6  C   UNL     1       4.447  26.582  48.210  1.00  0.00     0.169 C 
BRANCH   6   7
HETATM    7  C   UNL     1       3.216  27.254  47.632  1.00  0.00    -0.028 A 
HETATM    8  C   UNL     1       3.219  28.634  47.387  1.00  0.00     0.010 A 
HETATM    9  C   UNL     1       2.084  29.269  46.875  1.00  0.00     0.007 A 
HETATM   10  C   UNL     1       0.923  28.537  46.604  1.00  0.00    -0.062 A 
HETATM   11  C   UNL     1      -0.298  29.207  46.048  1.00  0.00     0.048 C 
HETATM   12  C   UNL     1       0.923  27.156  46.831  1.00  0.00     0.007 A 
HETATM   13  C   UNL     1       2.057  26.522  47.344  1.00  0.00     0.010 A 
ENDBRANCH   6   7
BRANCH   6  14
HETATM   14  O   UNL     1       5.481  26.590  47.216  1.00  0.00    -0.389 OA
HETATM   15  H   UNL     1       6.068  25.843  47.427  1.00  0.00     0.210 HD
ENDBRANCH   6  14
ENDBRANCH   5   6
ENDBRANCH   1   5
BRANCH   2  16
HETATM   16  C   UNL     1       4.735  26.239  53.153  1.00  0.00     0.142 C 
BRANCH  16  17
HETATM   17  C   UNL     1       5.809  25.386  53.776  1.00  0.00    -0.031 A 
HETATM   18  C   UNL     1       6.445  25.727  54.964  1.00  0.00     0.125 A 
HETATM   19  N   UNL     1       7.441  25.008  55.531  1.00  0.00    -0.260 NA
HETATM   20  C   UNL     1       7.872  23.905  54.896  1.00  0.00     0.066 A 
HETATM   21  C   UNL     1       7.317  23.479  53.673  1.00  0.00    -0.007 A 
HETATM   22  C   UNL     1       8.902  23.157  55.449  1.00  0.00     0.032 A 
HETATM   23  C   UNL     1       6.276  24.242  53.122  1.00  0.00     0.022 A 
HETATM   24  C   UNL     1       7.812  22.326  53.038  1.00  0.00     0.014 A 
HETATM   25  C   UNL     1       8.851  21.594  53.612  1.00  0.00     0.001 A 
HETATM   26  C   UNL     1       9.396  22.011  54.821  1.00  0.00     0.002 A 
ENDBRANCH  16  17
ENDBRANCH   2  16
TORSDOF 6
ENDMDL
MODEL 10
REMARK VINA RESULT:      -8.7      5.924      8.978
REMARK  6 active torsions:
REMARK  status: ('A' for Active; 'I' for Inactive)
REMARK    1  A    between atoms: C_5  and  C_6 
REMARK    2  A    between atoms: C_6  and  O_7 
REMARK    3  A    between atoms: C_6  and  C_8 
REMARK    4  A    between atoms: C_8  and  N_9 
REMARK       I    between atoms: N_9  and  C_10 
REMARK    5  A    between atoms: C_10  and  C_11 
REMARK    6  A    between atoms: C_11  and  C_12 
ROOT
HETATM    1  N   UNL     1       6.447  27.950  53.672  1.00  0.00    -0.358 N 
HETATM    2  C   UNL     1       6.196  27.249  54.829  1.00  0.00     0.222 C 
HETATM    3  O   UNL     1       5.064  27.049  55.259  1.00  0.00    -0.273 OA
HETATM    4  H   UNL     1       7.390  27.977  53.306  1.00  0.00     0.162 HD
ENDROOT
BRANCH   1   5
HETATM    5  C   UNL     1       5.375  28.427  52.811  1.00  0.00     0.159 C 
BRANCH   5   6
HETATM    6  C   UNL     1       5.753  28.673  51.335  1.00  0.00     0.169 C 
BRANCH   6   7
HETATM    7  C   UNL     1       4.720  28.161  50.350  1.00  0.00    -0.028 A 
HETATM    8  C   UNL     1       3.609  28.951  50.023  1.00  0.00     0.010 A 
HETATM    9  C   UNL     1       2.639  28.481  49.134  1.00  0.00     0.007 A 
HETATM   10  C   UNL     1       2.757  27.212  48.559  1.00  0.00    -0.062 A 
HETATM   11  C   UNL     1       1.725  26.701  47.599  1.00  0.00     0.048 C 
HETATM   12  C   UNL     1       3.874  26.428  48.871  1.00  0.00     0.007 A 
HETATM   13  C   UNL     1       4.843  26.896  49.760  1.00  0.00     0.010 A 
ENDBRANCH   6   7
BRANCH   6  14
HETATM   14  O   UNL     1       5.919  30.083  51.131  1.00  0.00    -0.389 OA
HETATM   15  H   UNL     1       6.452  30.181  50.322  1.00  0.00     0.210 HD
ENDBRANCH   6  14
ENDBRANCH   5   6
ENDBRANCH   1   5
BRANCH   2  16
HETATM   16  C   UNL     1       7.433  26.716  55.530  1.00  0.00     0.142 C 
BRANCH  16  17
HETATM   17  C   UNL     1       7.564  25.216  55.502  1.00  0.00    -0.031 A 
HETATM   18  C   UNL     1       7.740  24.456  56.652  1.00  0.00     0.125 A 
HETATM   19  N   UNL     1       7.904  23.112  56.661  1.00  0.00    -0.260 NA
HETATM   20  C   UNL     1       7.927  22.465  55.485  1.00  0.00     0.066 A 
HETATM   21  C   UNL     1       7.783  23.138  54.255  1.00  0.00    -0.007 A 
HETATM   22  C   UNL     1       8.106  21.089  55.465  1.00  0.00     0.032 A 
HETATM   23  C   UNL     1       7.602  24.530  54.285  1.00  0.00     0.022 A 
HETATM   24  C   UNL     1       7.830  22.419  53.047  1.00  0.00     0.014 A 
HETATM   25  C   UNL     1       8.015  21.037  53.056  1.00  0.00     0.001 A 
HETATM   26  C   UNL     1       8.153  20.371  54.267  1.00  0.00     0.002 A 
ENDBRANCH  16  17
ENDBRANCH   2  16
TORSDOF 6
ENDMDL
