MODEL 1
REMARK VINA RESULT:      -8.8      0.000      0.000
REMARK  8 active torsions:
REMARK  status: ('A' for Active; 'I' for Inactive)
REMARK    1  A    between atoms: O_2  and  C_3 
REMARK    2  A    between atoms: C_4  and  O_5 
REMARK    3  A    between atoms: N_12  and  N_13 
REMARK    4  A    between atoms: N_13  and  C_14 
REMARK    5  A    between atoms: C_14  and  N_15 
REMARK    6  A    between atoms: N_15  and  C_16 
REMARK    7  A    between atoms: C_16  and  C_17 
REMARK    8  A    between atoms: C_17  and  C_18 
ROOT
HETATM    1  C   UNL     1       8.875  22.396  55.445  1.00  0.00     0.102 A 
HETATM    2  C   UNL     1       8.508  22.582  54.094  1.00  0.00     0.103 A 
HETATM    3  C   UNL     1       7.929  23.792  53.691  1.00  0.00     0.070 A 
HETATM    4  C   UNL     1       7.717  24.806  54.626  1.00  0.00     0.053 A 
HETATM    5  C   UNL     1       8.099  24.630  55.951  1.00  0.00     0.063 A 
HETATM    6  C   UNL     1       7.877  25.732  56.909  1.00  0.00     0.281 C 
HETATM    7  O   UNL     1       8.359  25.675  58.040  1.00  0.00    -0.265 OA
HETATM    8  N   UNL     1       7.138  26.816  56.423  1.00  0.00    -0.190 N 
HETATM    9  C   UNL     1       6.797  27.021  55.085  1.00  0.00     0.201 C 
HETATM   10  S   UNL     1       6.053  28.380  54.437  1.00  0.00    -0.039 SA
HETATM   11  N   UNL     1       7.116  26.002  54.221  1.00  0.00    -0.331 N 
HETATM   12  C   UNL     1       8.683  23.430  56.368  1.00  0.00     0.059 A 
HETATM   13  H   UNL     1       6.845  26.133  53.253  1.00  0.00     0.168 HD
ENDROOT
BRANCH   8  14
HETATM   14  N   UNL     1       6.786  27.806  57.380  1.00  0.00    -0.264 N 
HETATM   15  H   UNL     1       5.812  28.083  57.326  1.00  0.00     0.190 HD
BRANCH  14  16
HETATM   16  C   UNL     1       7.675  28.811  57.689  1.00  0.00     0.187 C 
HETATM   17  S   UNL     1       9.112  29.163  56.908  1.00  0.00    -0.040 SA
BRANCH  16  18
HETATM   18  N   UNL     1       7.351  29.565  58.788  1.00  0.00    -0.366 N 
HETATM   19  H   UNL     1       6.370  29.450  59.023  1.00  0.00     0.161 HD
BRANCH  18  20
HETATM   20  C   UNL     1       7.904  30.885  59.078  1.00  0.00     0.126 C 
BRANCH  20  21
HETATM   21  C   UNL     1       8.678  30.895  60.396  1.00  0.00     0.058 C 
BRANCH  21  22
HETATM   22  C   UNL     1       8.025  31.784  61.422  1.00  0.00    -0.057 A 
HETATM   23  C   UNL     1       6.911  32.561  61.071  1.00  0.00     0.007 A 
HETATM   24  C   UNL     1       6.314  33.408  62.005  1.00  0.00     0.001 A 
HETATM   25  C   UNL     1       6.826  33.491  63.297  1.00  0.00     0.000 A 
HETATM   26  C   UNL     1       7.935  32.727  63.656  1.00  0.00     0.001 A 
HETATM   27  C   UNL     1       8.534  31.878  62.723  1.00  0.00     0.007 A 
ENDBRANCH  21  22
ENDBRANCH  20  21
ENDBRANCH  18  20
ENDBRANCH  16  18
ENDBRANCH  14  16
ENDBRANCH   8  14
BRANCH   1  28
HETATM   28  O   UNL     1       9.431  21.180  55.760  1.00  0.00    -0.353 OA
HETATM   29  C   UNL     1       8.699  20.341  56.643  1.00  0.00     0.210 C 
ENDBRANCH   1  28
BRANCH   2  30
HETATM   30  O   UNL     1       8.748  21.522  53.256  1.00  0.00    -0.353 OA
HETATM   31  C   UNL     1       7.650  20.697  52.894  1.00  0.00     0.210 C 
ENDBRANCH   2  30
TORSDOF 8
ENDMDL
MODEL 2
REMARK VINA RESULT:      -8.7      2.966      3.739
REMARK  8 active torsions:
REMARK  status: ('A' for Active; 'I' for Inactive)
REMARK    1  A    between atoms: O_2  and  C_3 
REMARK    2  A    between atoms: C_4  and  O_5 
REMARK    3  A    between atoms: N_12  and  N_13 
REMARK    4  A    between atoms: N_13  and  C_14 
REMARK    5  A    between atoms: C_14  and  N_15 
REMARK    6  A    between atoms: N_15  and  C_16 
REMARK    7  A    between atoms: C_16  and  C_17 
REMARK    8  A    between atoms: C_17  and  C_18 
ROOT
HETATM    1  C   UNL     1       7.974  22.538  55.161  1.00  0.00     0.102 A 
HETATM    2  C   UNL     1       8.308  22.485  53.790  1.00  0.00     0.103 A 
HETATM    3  C   UNL     1       7.816  23.462  52.916  1.00  0.00     0.070 A 
HETATM    4  C   UNL     1       6.998  24.482  53.404  1.00  0.00     0.053 A 
HETATM    5  C   UNL     1       6.687  24.546  54.758  1.00  0.00     0.063 A 
HETATM    6  C   UNL     1       5.834  25.650  55.242  1.00  0.00     0.281 C 
HETATM    7  O   UNL     1       5.686  25.833  56.450  1.00  0.00    -0.265 OA
HETATM    8  N   UNL     1       5.268  26.457  54.249  1.00  0.00    -0.190 N 
HETATM    9  C   UNL     1       5.615  26.430  52.897  1.00  0.00     0.201 C 
HETATM   10  S   UNL     1       5.081  27.484  51.704  1.00  0.00    -0.039 SA
HETATM   11  N   UNL     1       6.490  25.440  52.521  1.00  0.00    -0.331 N 
HETATM   12  C   UNL     1       7.175  23.580  55.643  1.00  0.00     0.059 A 
HETATM   13  H   UNL     1       6.724  25.397  51.535  1.00  0.00     0.168 HD
ENDROOT
BRANCH   8  14
HETATM   14  N   UNL     1       4.324  27.421  54.696  1.00  0.00    -0.264 N 
HETATM   15  H   UNL     1       3.433  27.355  54.217  1.00  0.00     0.190 HD
BRANCH  14  16
HETATM   16  C   UNL     1       4.739  28.695  55.012  1.00  0.00     0.187 C 
HETATM   17  S   UNL     1       3.952  30.129  54.659  1.00  0.00    -0.040 SA
BRANCH  16  18
HETATM   18  N   UNL     1       5.951  28.778  55.647  1.00  0.00    -0.366 N 
HETATM   19  H   UNL     1       6.517  27.959  55.443  1.00  0.00     0.161 HD
BRANCH  18  20
HETATM   20  C   UNL     1       6.154  29.353  56.973  1.00  0.00     0.126 C 
BRANCH  20  21
HETATM   21  C   UNL     1       7.232  28.603  57.756  1.00  0.00     0.058 C 
BRANCH  21  22
HETATM   22  C   UNL     1       8.562  29.309  57.695  1.00  0.00    -0.057 A 
HETATM   23  C   UNL     1       8.758  30.499  58.411  1.00  0.00     0.007 A 
HETATM   24  C   UNL     1       9.976  31.177  58.341  1.00  0.00     0.001 A 
HETATM   25  C   UNL     1      11.007  30.675  57.551  1.00  0.00     0.000 A 
HETATM   26  C   UNL     1      10.822  29.495  56.832  1.00  0.00     0.001 A 
HETATM   27  C   UNL     1       9.604  28.815  56.901  1.00  0.00     0.007 A 
ENDBRANCH  21  22
ENDBRANCH  20  21
ENDBRANCH  18  20
ENDBRANCH  16  18
ENDBRANCH  14  16
ENDBRANCH   8  14
BRANCH   1  28
HETATM   28  O   UNL     1       8.492  21.540  55.950  1.00  0.00    -0.353 OA
HETATM   29  C   UNL     1       7.628  20.462  56.284  1.00  0.00     0.210 C 
ENDBRANCH   1  28
BRANCH   2  30
HETATM   30  O   UNL     1       9.110  21.438  53.408  1.00  0.00    -0.353 OA
HETATM   31  C   UNL     1       8.508  20.359  52.707  1.00  0.00     0.210 C 
ENDBRANCH   2  30
TORSDOF 8
ENDMDL
MODEL 3
REMARK VINA RESULT:      -8.5      2.649      9.592
REMARK  8 active torsions:
REMARK  status: ('A' for Active; 'I' for Inactive)
REMARK    1  A    between atoms: O_2  and  C_3 
REMARK    2  A    between atoms: C_4  and  O_5 
REMARK    3  A    between atoms: N_12  and  N_13 
REMARK    4  A    between atoms: N_13  and  C_14 
REMARK    5  A    between atoms: C_14  and  N_15 
REMARK    6  A    between atoms: N_15  and  C_16 
REMARK    7  A    between atoms: C_16  and  C_17 
REMARK    8  A    between atoms: C_17  and  C_18 
ROOT
HETATM    1  C   UNL     1       8.288  30.962  59.760  1.00  0.00     0.102 A 
HETATM    2  C   UNL     1       7.142  31.773  59.609  1.00  0.00     0.103 A 
HETATM    3  C   UNL     1       6.233  31.508  58.577  1.00  0.00     0.070 A 
HETATM    4  C   UNL     1       6.466  30.445  57.702  1.00  0.00     0.053 A 
HETATM    5  C   UNL     1       7.583  29.634  57.865  1.00  0.00     0.063 A 
HETATM    6  C   UNL     1       7.788  28.507  56.933  1.00  0.00     0.281 C 
HETATM    7  O   UNL     1       8.664  27.672  57.154  1.00  0.00    -0.265 OA
HETATM    8  N   UNL     1       6.907  28.453  55.847  1.00  0.00    -0.190 N 
HETATM    9  C   UNL     1       5.756  29.232  55.706  1.00  0.00     0.201 C 
HETATM   10  S   UNL     1       4.591  29.089  54.505  1.00  0.00    -0.039 SA
HETATM   11  N   UNL     1       5.567  30.202  56.659  1.00  0.00    -0.331 N 
HETATM   12  C   UNL     1       8.497  29.883  58.894  1.00  0.00     0.059 A 
HETATM   13  H   UNL     1       4.748  30.789  56.546  1.00  0.00     0.168 HD
ENDROOT
BRANCH   8  14
HETATM   14  N   UNL     1       7.193  27.467  54.864  1.00  0.00    -0.264 N 
HETATM   15  H   UNL     1       7.487  27.863  53.978  1.00  0.00     0.190 HD
BRANCH  14  16
HETATM   16  C   UNL     1       6.419  26.332  54.782  1.00  0.00     0.187 C 
HETATM   17  S   UNL     1       5.825  25.422  56.055  1.00  0.00    -0.040 SA
BRANCH  16  18
HETATM   18  N   UNL     1       6.154  25.891  53.511  1.00  0.00    -0.366 N 
HETATM   19  H   UNL     1       5.369  26.398  53.114  1.00  0.00     0.161 HD
BRANCH  18  20
HETATM   20  C   UNL     1       6.277  24.504  53.074  1.00  0.00     0.126 C 
BRANCH  20  21
HETATM   21  C   UNL     1       7.740  24.069  52.980  1.00  0.00     0.058 C 
BRANCH  21  22
HETATM   22  C   UNL     1       7.971  22.737  53.646  1.00  0.00    -0.057 A 
HETATM   23  C   UNL     1       8.211  22.673  55.026  1.00  0.00     0.007 A 
HETATM   24  C   UNL     1       8.454  21.448  55.649  1.00  0.00     0.001 A 
HETATM   25  C   UNL     1       8.465  20.276  54.898  1.00  0.00     0.000 A 
HETATM   26  C   UNL     1       8.233  20.327  53.524  1.00  0.00     0.001 A 
HETATM   27  C   UNL     1       7.988  21.552  52.899  1.00  0.00     0.007 A 
ENDBRANCH  21  22
ENDBRANCH  20  21
ENDBRANCH  18  20
ENDBRANCH  16  18
ENDBRANCH  14  16
ENDBRANCH   8  14
BRANCH   1  28
HETATM   28  O   UNL     1       9.132  31.292  60.792  1.00  0.00    -0.353 OA
HETATM   29  C   UNL     1       9.131  30.440  61.930  1.00  0.00     0.210 C 
ENDBRANCH   1  28
BRANCH   2  30
HETATM   30  O   UNL     1       7.010  32.799  60.512  1.00  0.00    -0.353 OA
HETATM   31  C   UNL     1       5.722  33.043  61.059  1.00  0.00     0.210 C 
ENDBRANCH   2  30
TORSDOF 8
ENDMDL
MODEL 4
REMARK VINA RESULT:      -8.5      1.539      1.869
REMARK  8 active torsions:
REMARK  status: ('A' for Active; 'I' for Inactive)
REMARK    1  A    between atoms: O_2  and  C_3 
REMARK    2  A    between atoms: C_4  and  O_5 
REMARK    3  A    between atoms: N_12  and  N_13 
REMARK    4  A    between atoms: N_13  and  C_14 
REMARK    5  A    between atoms: C_14  and  N_15 
REMARK    6  A    between atoms: N_15  and  C_16 
REMARK    7  A    between atoms: C_16  and  C_17 
REMARK    8  A    between atoms: C_17  and  C_18 
ROOT
HETATM    1  C   UNL     1       8.309  22.684  55.475  1.00  0.00     0.102 A 
HETATM    2  C   UNL     1       8.225  22.779  54.068  1.00  0.00     0.103 A 
HETATM    3  C   UNL     1       7.478  23.810  53.484  1.00  0.00     0.070 A 
HETATM    4  C   UNL     1       6.821  24.737  54.294  1.00  0.00     0.053 A 
HETATM    5  C   UNL     1       6.922  24.656  55.678  1.00  0.00     0.063 A 
HETATM    6  C   UNL     1       6.229  25.665  56.504  1.00  0.00     0.281 C 
HETATM    7  O   UNL     1       6.440  25.725  57.714  1.00  0.00    -0.265 OA
HETATM    8  N   UNL     1       5.380  26.534  55.809  1.00  0.00    -0.190 N 
HETATM    9  C   UNL     1       5.313  26.653  54.420  1.00  0.00     0.201 C 
HETATM   10  S   UNL     1       4.431  27.789  53.553  1.00  0.00    -0.039 SA
HETATM   11  N   UNL     1       6.057  25.748  53.704  1.00  0.00    -0.331 N 
HETATM   12  C   UNL     1       7.668  23.635  56.276  1.00  0.00     0.059 A 
HETATM   13  H   UNL     1       5.990  25.811  52.693  1.00  0.00     0.168 HD
ENDROOT
BRANCH   8  14
HETATM   14  N   UNL     1       4.592  27.404  56.611  1.00  0.00    -0.264 N 
HETATM   15  H   UNL     1       3.600  27.339  56.411  1.00  0.00     0.190 HD
BRANCH  14  16
HETATM   16  C   UNL     1       5.056  28.662  56.923  1.00  0.00     0.187 C 
HETATM   17  S   UNL     1       4.358  30.126  56.511  1.00  0.00    -0.040 SA
BRANCH  16  18
HETATM   18  N   UNL     1       6.243  28.697  57.609  1.00  0.00    -0.366 N 
HETATM   19  H   UNL     1       6.152  28.227  58.504  1.00  0.00     0.161 HD
BRANCH  18  20
HETATM   20  C   UNL     1       7.174  29.822  57.593  1.00  0.00     0.126 C 
BRANCH  20  21
HETATM   21  C   UNL     1       8.297  29.639  58.615  1.00  0.00     0.058 C 
BRANCH  21  22
HETATM   22  C   UNL     1       8.177  30.614  59.758  1.00  0.00    -0.057 A 
HETATM   23  C   UNL     1       7.209  31.627  59.718  1.00  0.00     0.007 A 
HETATM   24  C   UNL     1       7.106  32.552  60.758  1.00  0.00     0.001 A 
HETATM   25  C   UNL     1       7.974  32.477  61.845  1.00  0.00     0.000 A 
HETATM   26  C   UNL     1       8.944  31.477  61.892  1.00  0.00     0.001 A 
HETATM   27  C   UNL     1       9.048  30.549  60.853  1.00  0.00     0.007 A 
ENDBRANCH  21  22
ENDBRANCH  20  21
ENDBRANCH  18  20
ENDBRANCH  16  18
ENDBRANCH  14  16
ENDBRANCH   8  14
BRANCH   1  28
HETATM   28  O   UNL     1       9.055  21.642  55.968  1.00  0.00    -0.353 OA
HETATM   29  C   UNL     1       8.352  20.591  56.618  1.00  0.00     0.210 C 
ENDBRANCH   1  28
BRANCH   2  30
HETATM   30  O   UNL     1       8.897  21.813  53.361  1.00  0.00    -0.353 OA
HETATM   31  C   UNL     1       8.150  20.720  52.849  1.00  0.00     0.210 C 
ENDBRANCH   2  30
TORSDOF 8
ENDMDL
MODEL 5
REMARK VINA RESULT:      -8.3      3.333     10.059
REMARK  8 active torsions:
REMARK  status: ('A' for Active; 'I' for Inactive)
REMARK    1  A    between atoms: O_2  and  C_3 
REMARK    2  A    between atoms: C_4  and  O_5 
REMARK    3  A    between atoms: N_12  and  N_13 
REMARK    4  A    between atoms: N_13  and  C_14 
REMARK    5  A    between atoms: C_14  and  N_15 
REMARK    6  A    between atoms: N_15  and  C_16 
REMARK    7  A    between atoms: C_16  and  C_17 
REMARK    8  A    between atoms: C_17  and  C_18 
ROOT
HETATM    1  C   UNL     1       6.021  32.554  60.736  1.00  0.00     0.102 A 
HETATM    2  C   UNL     1       7.306  32.716  61.299  1.00  0.00     0.103 A 
HETATM    3  C   UNL     1       8.427  32.203  60.634  1.00  0.00     0.070 A 
HETATM    4  C   UNL     1       8.268  31.533  59.421  1.00  0.00     0.053 A 
HETATM    5  C   UNL     1       7.005  31.392  58.857  1.00  0.00     0.063 A 
HETATM    6  C   UNL     1       6.876  30.693  57.562  1.00  0.00     0.281 C 
HETATM    7  O   UNL     1       5.806  30.705  56.956  1.00  0.00    -0.265 OA
HETATM    8  N   UNL     1       8.041  30.079  57.088  1.00  0.00    -0.190 N 
HETATM    9  C   UNL     1       9.318  30.259  57.622  1.00  0.00     0.201 C 
HETATM   10  S   UNL     1      10.760  29.672  56.991  1.00  0.00    -0.039 SA
HETATM   11  N   UNL     1       9.388  31.001  58.775  1.00  0.00    -0.331 N 
HETATM   12  C   UNL     1       5.877  31.903  59.506  1.00  0.00     0.059 A 
HETATM   13  H   UNL     1      10.310  31.111  59.183  1.00  0.00     0.168 HD
ENDROOT
BRANCH   8  14
HETATM   14  N   UNL     1       7.890  29.275  55.926  1.00  0.00    -0.264 N 
HETATM   15  H   UNL     1       7.530  29.791  55.130  1.00  0.00     0.190 HD
BRANCH  14  16
HETATM   16  C   UNL     1       7.454  27.975  56.040  1.00  0.00     0.187 C 
HETATM   17  S   UNL     1       7.684  26.943  57.338  1.00  0.00    -0.040 SA
BRANCH  16  18
HETATM   18  N   UNL     1       6.800  27.475  54.944  1.00  0.00    -0.366 N 
HETATM   19  H   UNL     1       5.854  27.199  55.188  1.00  0.00     0.161 HD
BRANCH  18  20
HETATM   20  C   UNL     1       7.429  26.670  53.901  1.00  0.00     0.126 C 
BRANCH  20  21
HETATM   21  C   UNL     1       6.637  25.393  53.620  1.00  0.00     0.058 C 
BRANCH  21  22
HETATM   22  C   UNL     1       7.463  24.156  53.865  1.00  0.00    -0.057 A 
HETATM   23  C   UNL     1       7.468  23.117  52.922  1.00  0.00     0.007 A 
HETATM   24  C   UNL     1       8.208  21.956  53.150  1.00  0.00     0.001 A 
HETATM   25  C   UNL     1       8.944  21.819  54.324  1.00  0.00     0.000 A 
HETATM   26  C   UNL     1       8.942  22.843  55.270  1.00  0.00     0.001 A 
HETATM   27  C   UNL     1       8.203  24.007  55.043  1.00  0.00     0.007 A 
ENDBRANCH  21  22
ENDBRANCH  20  21
ENDBRANCH  18  20
ENDBRANCH  16  18
ENDBRANCH  14  16
ENDBRANCH   8  14
BRANCH   1  28
HETATM   28  O   UNL     1       4.975  33.080  61.453  1.00  0.00    -0.353 OA
HETATM   29  C   UNL     1       3.745  32.368  61.426  1.00  0.00     0.210 C 
ENDBRANCH   1  28
BRANCH   2  30
HETATM   30  O   UNL     1       7.355  33.380  62.500  1.00  0.00    -0.353 OA
HETATM   31  C   UNL     1       7.896  32.694  63.619  1.00  0.00     0.210 C 
ENDBRANCH   2  30
TORSDOF 8
ENDMDL
MODEL 6
REMARK VINA RESULT:      -8.3      3.915      9.876
REMARK  8 active torsions:
REMARK  status: ('A' for Active; 'I' for Inactive)
REMARK    1  A    between atoms: O_2  and  C_3 
REMARK    2  A    between atoms: C_4  and  O_5 
REMARK    3  A    between atoms: N_12  and  N_13 
REMARK    4  A    between atoms: N_13  and  C_14 
REMARK    5  A    between atoms: C_14  and  N_15 
REMARK    6  A    between atoms: N_15  and  C_16 
REMARK    7  A    between atoms: C_16  and  C_17 
REMARK    8  A    between atoms: C_17  and  C_18 
ROOT
HETATM    1  C   UNL     1       5.423  31.310  57.617  1.00  0.00     0.102 A 
HETATM    2  C   UNL     1       5.104  32.445  56.840  1.00  0.00     0.103 A 
HETATM    3  C   UNL     1       4.551  32.282  55.564  1.00  0.00     0.070 A 
HETATM    4  C   UNL     1       4.319  30.999  55.067  1.00  0.00     0.053 A 
HETATM    5  C   UNL     1       4.613  29.882  55.841  1.00  0.00     0.063 A 
HETATM    6  C   UNL     1       4.336  28.540  55.290  1.00  0.00     0.281 C 
HETATM    7  O   UNL     1       4.420  27.547  56.010  1.00  0.00    -0.265 OA
HETATM    8  N   UNL     1       3.947  28.507  53.946  1.00  0.00    -0.190 N 
HETATM    9  C   UNL     1       3.602  29.623  53.181  1.00  0.00     0.201 C 
HETATM   10  S   UNL     1       2.979  29.615  51.622  1.00  0.00    -0.039 SA
HETATM   11  N   UNL     1       3.789  30.844  53.782  1.00  0.00    -0.331 N 
HETATM   12  C   UNL     1       5.161  30.030  57.119  1.00  0.00     0.059 A 
HETATM   13  H   UNL     1       3.567  31.659  53.221  1.00  0.00     0.168 HD
ENDROOT
BRANCH   8  14
HETATM   14  N   UNL     1       3.831  27.215  53.366  1.00  0.00    -0.264 N 
HETATM   15  H   UNL     1       3.233  26.593  53.899  1.00  0.00     0.190 HD
BRANCH  14  16
HETATM   16  C   UNL     1       4.923  26.628  52.770  1.00  0.00     0.187 C 
HETATM   17  S   UNL     1       5.228  26.493  51.130  1.00  0.00    -0.040 SA
BRANCH  16  18
HETATM   18  N   UNL     1       5.827  26.058  53.630  1.00  0.00    -0.366 N 
HETATM   19  H   UNL     1       6.693  26.588  53.639  1.00  0.00     0.161 HD
BRANCH  18  20
HETATM   20  C   UNL     1       5.979  24.621  53.838  1.00  0.00     0.126 C 
BRANCH  20  21
HETATM   21  C   UNL     1       7.306  24.108  53.277  1.00  0.00     0.058 C 
BRANCH  21  22
HETATM   22  C   UNL     1       7.659  22.750  53.828  1.00  0.00    -0.057 A 
HETATM   23  C   UNL     1       7.981  21.700  52.956  1.00  0.00     0.007 A 
HETATM   24  C   UNL     1       8.284  20.432  53.454  1.00  0.00     0.001 A 
HETATM   25  C   UNL     1       8.262  20.200  54.827  1.00  0.00     0.000 A 
HETATM   26  C   UNL     1       7.938  21.235  55.702  1.00  0.00     0.001 A 
HETATM   27  C   UNL     1       7.636  22.505  55.207  1.00  0.00     0.007 A 
ENDBRANCH  21  22
ENDBRANCH  20  21
ENDBRANCH  18  20
ENDBRANCH  16  18
ENDBRANCH  14  16
ENDBRANCH   8  14
BRANCH   1  28
HETATM   28  O   UNL     1       5.968  31.556  58.854  1.00  0.00    -0.353 OA
HETATM   29  C   UNL     1       7.357  31.299  59.015  1.00  0.00     0.210 C 
ENDBRANCH   1  28
BRANCH   2  30
HETATM   30  O   UNL     1       5.381  33.662  57.414  1.00  0.00    -0.353 OA
HETATM   31  C   UNL     1       4.585  34.775  57.034  1.00  0.00     0.210 C 
ENDBRANCH   2  30
TORSDOF 8
ENDMDL
MODEL 7
REMARK VINA RESULT:      -8.2      4.900      8.866
REMARK  8 active torsions:
REMARK  status: ('A' for Active; 'I' for Inactive)
REMARK    1  A    between atoms: O_2  and  C_3 
REMARK    2  A    between atoms: C_4  and  O_5 
REMARK    3  A    between atoms: N_12  and  N_13 
REMARK    4  A    between atoms: N_13  and  C_14 
REMARK    5  A    between atoms: C_14  and  N_15 
REMARK    6  A    between atoms: N_15  and  C_16 
REMARK    7  A    between atoms: C_16  and  C_17 
REMARK    8  A    between atoms: C_17  and  C_18 
ROOT
HETATM    1  C   UNL     1       8.456  22.781  53.761  1.00  0.00     0.102 A 
HETATM    2  C   UNL     1       8.612  22.973  55.151  1.00  0.00     0.103 A 
HETATM    3  C   UNL     1       8.211  24.180  55.736  1.00  0.00     0.070 A 
HETATM    4  C   UNL     1       7.661  25.188  54.942  1.00  0.00     0.053 A 
HETATM    5  C   UNL     1       7.488  24.989  53.577  1.00  0.00     0.063 A 
HETATM    6  C   UNL     1       6.884  26.070  52.771  1.00  0.00     0.281 C 
HETATM    7  O   UNL     1       6.559  25.862  51.603  1.00  0.00    -0.265 OA
HETATM    8  N   UNL     1       6.687  27.284  53.439  1.00  0.00    -0.190 N 
HETATM    9  C   UNL     1       6.811  27.473  54.816  1.00  0.00     0.201 C 
HETATM   10  S   UNL     1       6.431  28.865  55.674  1.00  0.00    -0.039 SA
HETATM   11  N   UNL     1       7.285  26.400  55.529  1.00  0.00    -0.331 N 
HETATM   12  C   UNL     1       7.879  23.787  52.980  1.00  0.00     0.059 A 
HETATM   13  H   UNL     1       7.404  26.540  56.526  1.00  0.00     0.168 HD
ENDROOT
BRANCH   8  14
HETATM   14  N   UNL     1       6.255  28.372  52.633  1.00  0.00    -0.264 N 
HETATM   15  H   UNL     1       6.669  29.257  52.904  1.00  0.00     0.190 HD
BRANCH  14  16
HETATM   16  C   UNL     1       4.949  28.433  52.201  1.00  0.00     0.187 C 
HETATM   17  S   UNL     1       3.580  28.601  53.148  1.00  0.00    -0.040 SA
BRANCH  16  18
HETATM   18  N   UNL     1       4.770  28.294  50.849  1.00  0.00    -0.366 N 
HETATM   19  H   UNL     1       4.686  27.313  50.599  1.00  0.00     0.161 HD
BRANCH  18  20
HETATM   20  C   UNL     1       5.404  29.136  49.839  1.00  0.00     0.126 C 
BRANCH  20  21
HETATM   21  C   UNL     1       5.677  28.363  48.549  1.00  0.00     0.058 C 
BRANCH  21  22
HETATM   22  C   UNL     1       4.425  27.726  48.003  1.00  0.00    -0.057 A 
HETATM   23  C   UNL     1       3.336  28.527  47.628  1.00  0.00     0.007 A 
HETATM   24  C   UNL     1       2.162  27.947  47.147  1.00  0.00     0.001 A 
HETATM   25  C   UNL     1       2.061  26.562  47.041  1.00  0.00     0.000 A 
HETATM   26  C   UNL     1       3.135  25.756  47.416  1.00  0.00     0.001 A 
HETATM   27  C   UNL     1       4.312  26.334  47.897  1.00  0.00     0.007 A 
ENDBRANCH  21  22
ENDBRANCH  20  21
ENDBRANCH  18  20
ENDBRANCH  16  18
ENDBRANCH  14  16
ENDBRANCH   8  14
BRANCH   1  28
HETATM   28  O   UNL     1       8.880  21.572  53.265  1.00  0.00    -0.353 OA
HETATM   29  C   UNL     1       7.882  20.602  52.978  1.00  0.00     0.210 C 
ENDBRANCH   1  28
BRANCH   2  30
HETATM   30  O   UNL     1       9.173  21.927  55.842  1.00  0.00    -0.353 OA
HETATM   31  C   UNL     1       8.365  21.244  56.790  1.00  0.00     0.210 C 
ENDBRANCH   2  30
TORSDOF 8
ENDMDL
MODEL 8
REMARK VINA RESULT:      -8.2      5.875      9.613
REMARK  8 active torsions:
REMARK  status: ('A' for Active; 'I' for Inactive)
REMARK    1  A    between atoms: O_2  and  C_3 
REMARK    2  A    between atoms: C_4  and  O_5 
REMARK    3  A    between atoms: N_12  and  N_13 
REMARK    4  A    between atoms: N_13  and  C_14 
REMARK    5  A    between atoms: C_14  and  N_15 
REMARK    6  A    between atoms: N_15  and  C_16 
REMARK    7  A    between atoms: C_16  and  C_17 
REMARK    8  A    between atoms: C_17  and  C_18 
ROOT
HETATM    1  C   UNL     1       3.248  27.059  47.948  1.00  0.00     0.102 A 
HETATM    2  C   UNL     1       2.440  28.213  47.849  1.00  0.00     0.103 A 
HETATM    3  C   UNL     1       2.474  29.175  48.865  1.00  0.00     0.070 A 
HETATM    4  C   UNL     1       3.304  28.989  49.972  1.00  0.00     0.053 A 
HETATM    5  C   UNL     1       4.116  27.863  50.058  1.00  0.00     0.063 A 
HETATM    6  C   UNL     1       4.996  27.708  51.233  1.00  0.00     0.281 C 
HETATM    7  O   UNL     1       5.847  26.820  51.256  1.00  0.00    -0.265 OA
HETATM    8  N   UNL     1       4.810  28.646  52.256  1.00  0.00    -0.190 N 
HETATM    9  C   UNL     1       4.037  29.803  52.154  1.00  0.00     0.201 C 
HETATM   10  S   UNL     1       3.915  31.030  53.293  1.00  0.00    -0.039 SA
HETATM   11  N   UNL     1       3.314  29.942  50.994  1.00  0.00    -0.331 N 
HETATM   12  C   UNL     1       4.096  26.896  49.048  1.00  0.00     0.059 A 
HETATM   13  H   UNL     1       2.728  30.767  50.927  1.00  0.00     0.168 HD
ENDROOT
BRANCH   8  14
HETATM   14  N   UNL     1       5.541  28.412  53.452  1.00  0.00    -0.264 N 
HETATM   15  H   UNL     1       6.530  28.256  53.290  1.00  0.00     0.190 HD
BRANCH  14  16
HETATM   16  C   UNL     1       4.979  27.672  54.468  1.00  0.00     0.187 C 
HETATM   17  S   UNL     1       4.339  28.249  55.902  1.00  0.00    -0.040 SA
BRANCH  16  18
HETATM   18  N   UNL     1       4.995  26.313  54.284  1.00  0.00    -0.366 N 
HETATM   19  H   UNL     1       4.051  25.957  54.172  1.00  0.00     0.161 HD
BRANCH  18  20
HETATM   20  C   UNL     1       5.925  25.400  54.941  1.00  0.00     0.126 C 
BRANCH  20  21
HETATM   21  C   UNL     1       7.052  24.969  54.002  1.00  0.00     0.058 C 
BRANCH  21  22
HETATM   22  C   UNL     1       7.371  23.503  54.146  1.00  0.00    -0.057 A 
HETATM   23  C   UNL     1       7.386  22.909  55.417  1.00  0.00     0.007 A 
HETATM   24  C   UNL     1       7.706  21.559  55.566  1.00  0.00     0.001 A 
HETATM   25  C   UNL     1       8.020  20.791  54.448  1.00  0.00     0.000 A 
HETATM   26  C   UNL     1       8.014  21.371  53.181  1.00  0.00     0.001 A 
HETATM   27  C   UNL     1       7.692  22.722  53.029  1.00  0.00     0.007 A 
ENDBRANCH  21  22
ENDBRANCH  20  21
ENDBRANCH  18  20
ENDBRANCH  16  18
ENDBRANCH  14  16
ENDBRANCH   8  14
BRANCH   1  28
HETATM   28  O   UNL     1       3.153  26.162  46.913  1.00  0.00    -0.353 OA
HETATM   29  C   UNL     1       2.946  24.797  47.254  1.00  0.00     0.210 C 
ENDBRANCH   1  28
BRANCH   2  30
HETATM   30  O   UNL     1       1.651  28.298  46.728  1.00  0.00    -0.353 OA
HETATM   31  C   UNL     1       0.312  27.833  46.819  1.00  0.00     0.210 C 
ENDBRANCH   2  30
TORSDOF 8
ENDMDL
MODEL 9
REMARK VINA RESULT:      -8.1      2.928      4.075
REMARK  8 active torsions:
REMARK  status: ('A' for Active; 'I' for Inactive)
REMARK    1  A    between atoms: O_2  and  C_3 
REMARK    2  A    between atoms: C_4  and  O_5 
REMARK    3  A    between atoms: N_12  and  N_13 
REMARK    4  A    between atoms: N_13  and  C_14 
REMARK    5  A    between atoms: C_14  and  N_15 
REMARK    6  A    between atoms: N_15  and  C_16 
REMARK    7  A    between atoms: C_16  and  C_17 
REMARK    8  A    between atoms: C_17  and  C_18 
ROOT
HETATM    1  C   UNL     1       6.576  26.338  54.188  1.00  0.00     0.102 A 
HETATM    2  C   UNL     1       5.578  27.209  53.701  1.00  0.00     0.103 A 
HETATM    3  C   UNL     1       5.311  28.408  54.374  1.00  0.00     0.070 A 
HETATM    4  C   UNL     1       6.032  28.734  55.523  1.00  0.00     0.053 A 
HETATM    5  C   UNL     1       7.030  27.886  55.990  1.00  0.00     0.063 A 
HETATM    6  C   UNL     1       7.786  28.272  57.199  1.00  0.00     0.281 C 
HETATM    7  O   UNL     1       8.784  27.636  57.534  1.00  0.00    -0.265 OA
HETATM    8  N   UNL     1       7.310  29.402  57.874  1.00  0.00    -0.190 N 
HETATM    9  C   UNL     1       6.344  30.284  57.384  1.00  0.00     0.201 C 
HETATM   10  S   UNL     1       5.862  31.731  58.085  1.00  0.00    -0.039 SA
HETATM   11  N   UNL     1       5.743  29.921  56.204  1.00  0.00    -0.331 N 
HETATM   12  C   UNL     1       7.311  26.688  55.326  1.00  0.00     0.059 A 
HETATM   13  H   UNL     1       5.021  30.543  55.858  1.00  0.00     0.168 HD
ENDROOT
BRANCH   8  14
HETATM   14  N   UNL     1       7.932  29.689  59.119  1.00  0.00    -0.264 N 
HETATM   15  H   UNL     1       7.275  29.735  59.890  1.00  0.00     0.190 HD
BRANCH  14  16
HETATM   16  C   UNL     1       8.982  30.577  59.176  1.00  0.00     0.187 C 
HETATM   17  S   UNL     1      10.131  30.858  57.992  1.00  0.00    -0.040 SA
BRANCH  16  18
HETATM   18  N   UNL     1       9.107  31.265  60.355  1.00  0.00    -0.366 N 
HETATM   19  H   UNL     1      10.081  31.310  60.641  1.00  0.00     0.161 HD
BRANCH  18  20
HETATM   20  C   UNL     1       8.145  31.209  61.452  1.00  0.00     0.126 C 
BRANCH  20  21
HETATM   21  C   UNL     1       8.574  32.091  62.625  1.00  0.00     0.058 C 
BRANCH  21  22
HETATM   22  C   UNL     1       7.388  32.625  63.387  1.00  0.00    -0.057 A 
HETATM   23  C   UNL     1       7.580  33.294  64.605  1.00  0.00     0.007 A 
HETATM   24  C   UNL     1       6.488  33.770  65.332  1.00  0.00     0.001 A 
HETATM   25  C   UNL     1       5.195  33.577  64.853  1.00  0.00     0.000 A 
HETATM   26  C   UNL     1       4.993  32.909  63.647  1.00  0.00     0.001 A 
HETATM   27  C   UNL     1       6.084  32.433  62.916  1.00  0.00     0.007 A 
ENDBRANCH  21  22
ENDBRANCH  20  21
ENDBRANCH  18  20
ENDBRANCH  16  18
ENDBRANCH  14  16
ENDBRANCH   8  14
BRANCH   1  28
HETATM   28  O   UNL     1       6.772  25.181  53.475  1.00  0.00    -0.353 OA
HETATM   29  C   UNL     1       7.871  25.151  52.574  1.00  0.00     0.210 C 
ENDBRANCH   1  28
BRANCH   2  30
HETATM   30  O   UNL     1       4.918  26.793  52.571  1.00  0.00    -0.353 OA
HETATM   31  C   UNL     1       5.097  27.544  51.379  1.00  0.00     0.210 C 
ENDBRANCH   2  30
TORSDOF 8
ENDMDL
MODEL 10
REMARK VINA RESULT:      -8.1      4.209      4.820
REMARK  8 active torsions:
REMARK  status: ('A' for Active; 'I' for Inactive)
REMARK    1  A    between atoms: O_2  and  C_3 
REMARK    2  A    between atoms: C_4  and  O_5 
REMARK    3  A    between atoms: N_12  and  N_13 
REMARK    4  A    between atoms: N_13  and  C_14 
REMARK    5  A    between atoms: C_14  and  N_15 
REMARK    6  A    between atoms: N_15  and  C_16 
REMARK    7  A    between atoms: C_16  and  C_17 
REMARK    8  A    between atoms: C_17  and  C_18 
ROOT
HETATM    1  C   UNL     1       7.561  23.178  54.836  1.00  0.00     0.102 A 
HETATM    2  C   UNL     1       8.126  22.940  53.564  1.00  0.00     0.103 A 
HETATM    3  C   UNL     1       7.740  23.727  52.472  1.00  0.00     0.070 A 
HETATM    4  C   UNL     1       6.797  24.742  52.647  1.00  0.00     0.053 A 
HETATM    5  C   UNL     1       6.258  24.990  53.904  1.00  0.00     0.063 A 
HETATM    6  C   UNL     1       5.278  26.085  54.055  1.00  0.00     0.281 C 
HETATM    7  O   UNL     1       4.916  26.441  55.175  1.00  0.00    -0.265 OA
HETATM    8  N   UNL     1       4.848  26.680  52.863  1.00  0.00    -0.190 N 
HETATM    9  C   UNL     1       5.421  26.471  51.608  1.00  0.00     0.201 C 
HETATM   10  S   UNL     1       5.044  27.281  50.187  1.00  0.00    -0.039 SA
HETATM   11  N   UNL     1       6.398  25.507  51.547  1.00  0.00    -0.331 N 
HETATM   12  C   UNL     1       6.637  24.216  55.004  1.00  0.00     0.059 A 
HETATM   13  H   UNL     1       6.798  25.331  50.632  1.00  0.00     0.168 HD
ENDROOT
BRANCH   8  14
HETATM   14  N   UNL     1       3.792  27.624  52.987  1.00  0.00    -0.264 N 
HETATM   15  H   UNL     1       2.972  27.375  52.445  1.00  0.00     0.190 HD
BRANCH  14  16
HETATM   16  C   UNL     1       4.076  28.969  53.057  1.00  0.00     0.187 C 
HETATM   17  S   UNL     1       3.520  30.172  52.036  1.00  0.00    -0.040 SA
BRANCH  16  18
HETATM   18  N   UNL     1       4.945  29.335  54.052  1.00  0.00    -0.366 N 
HETATM   19  H   UNL     1       5.747  28.712  54.073  1.00  0.00     0.161 HD
BRANCH  18  20
HETATM   20  C   UNL     1       4.541  29.864  55.351  1.00  0.00     0.126 C 
BRANCH  20  21
HETATM   21  C   UNL     1       5.726  30.457  56.113  1.00  0.00     0.058 C 
BRANCH  21  22
HETATM   22  C   UNL     1       6.710  29.395  56.532  1.00  0.00    -0.057 A 
HETATM   23  C   UNL     1       8.046  29.470  56.112  1.00  0.00     0.007 A 
HETATM   24  C   UNL     1       8.960  28.478  56.471  1.00  0.00     0.001 A 
HETATM   25  C   UNL     1       8.547  27.399  57.249  1.00  0.00     0.000 A 
HETATM   26  C   UNL     1       7.220  27.312  57.668  1.00  0.00     0.001 A 
HETATM   27  C   UNL     1       6.304  28.304  57.310  1.00  0.00     0.007 A 
ENDBRANCH  21  22
ENDBRANCH  20  21
ENDBRANCH  18  20
ENDBRANCH  16  18
ENDBRANCH  14  16
ENDBRANCH   8  14
BRANCH   1  28
HETATM   28  O   UNL     1       7.988  22.359  55.852  1.00  0.00    -0.353 OA
HETATM   29  C   UNL     1       8.418  22.985  57.054  1.00  0.00     0.210 C 
ENDBRANCH   1  28
BRANCH   2  30
HETATM   30  O   UNL     1       9.035  21.913  53.495  1.00  0.00    -0.353 OA
HETATM   31  C   UNL     1       8.586  20.658  53.003  1.00  0.00     0.210 C 
ENDBRANCH   2  30
TORSDOF 8
ENDMDL
