MODEL 1
REMARK VINA RESULT:     -10.0      0.000      0.000
REMARK  8 active torsions:
REMARK  status: ('A' for Active; 'I' for Inactive)
REMARK    1  A    between atoms: C_2  and  C_3 
REMARK    2  A    between atoms: C_3  and  C_4 
REMARK       I    between atoms: C_4  and  N_5 
REMARK    3  A    between atoms: N_8  and  C_9 
REMARK    4  A    between atoms: C_13  and  N_14 
REMARK    5  A    between atoms: N_14  and  C_15 
REMARK    6  A    between atoms: C_15  and  N_16 
REMARK       I    between atoms: N_16  and  C_17 
REMARK    7  A    between atoms: C_17  and  C_18 
REMARK    8  A    between atoms: C_19  and  O_20 
ROOT
HETATM    1  C   UNL     1       7.243  30.128  57.992  1.00  0.00     0.052 A 
HETATM    2  C   UNL     1       6.166  29.719  57.176  1.00  0.00     0.062 A 
HETATM    3 CL   UNL     1       4.497  29.857  57.630  1.00  0.00    -0.082 Cl
HETATM    4  C   UNL     1       6.384  29.112  55.926  1.00  0.00     0.055 A 
HETATM    5  C   UNL     1       7.672  28.842  55.471  1.00  0.00     0.036 A 
HETATM    6  C   UNL     1       8.751  29.157  56.291  1.00  0.00     0.032 A 
HETATM    7  C   UNL     1       8.533  29.797  57.520  1.00  0.00     0.033 A 
ENDROOT
BRANCH   5   8
HETATM    8  N   UNL     1       7.811  28.365  54.148  1.00  0.00    -0.333 N 
HETATM    9  H   UNL     1       8.552  28.808  53.616  1.00  0.00     0.168 HD
BRANCH   8  10
HETATM   10  C   UNL     1       7.385  27.180  53.649  1.00  0.00     0.179 C 
HETATM   11  S   UNL     1       6.256  27.148  52.416  1.00  0.00    -0.040 SA
BRANCH  10  12
HETATM   12  N   UNL     1       7.801  25.997  54.184  1.00  0.00    -0.299 N 
HETATM   13  C   UNL     1       6.933  25.022  54.673  1.00  0.00     0.260 C 
HETATM   14  O   UNL     1       5.865  25.219  55.235  1.00  0.00    -0.267 OA
HETATM   15  H   UNL     1       8.614  25.641  53.700  1.00  0.00     0.171 HD
BRANCH  13  16
HETATM   16  C   UNL     1       7.424  23.628  54.490  1.00  0.00     0.066 A 
HETATM   17  C   UNL     1       7.819  22.813  55.565  1.00  0.00     0.089 A 
HETATM   18  C   UNL     1       8.185  21.472  55.322  1.00  0.00    -0.028 A 
HETATM   19  C   UNL     1       8.566  20.560  56.457  1.00  0.00     0.051 C 
HETATM   20  C   UNL     1       8.178  20.974  54.011  1.00  0.00     0.009 A 
HETATM   21  C   UNL     1       7.790  21.784  52.947  1.00  0.00     0.002 A 
HETATM   22  C   UNL     1       7.404  23.101  53.185  1.00  0.00     0.020 A 
BRANCH  17  23
HETATM   23  O   UNL     1       7.815  23.189  56.883  1.00  0.00    -0.354 OA
HETATM   24  C   UNL     1       8.815  24.133  57.251  1.00  0.00     0.210 C 
ENDBRANCH  17  23
ENDBRANCH  13  16
ENDBRANCH  10  12
ENDBRANCH   8  10
ENDBRANCH   5   8
BRANCH   1  25
HETATM   25  N   UNL     1       7.177  30.896  59.159  1.00  0.00    -0.376 N 
HETATM   26  C   UNL     1       6.586  32.246  59.047  1.00  0.00     0.143 C 
HETATM   27  C   UNL     1       6.027  32.696  60.413  1.00  0.00     0.145 C 
HETATM   28  N   UNL     1       6.976  32.532  61.524  1.00  0.00    -0.349 N 
HETATM   29  C   UNL     1       6.771  33.307  62.663  1.00  0.00     0.219 C 
HETATM   30  C   UNL     1       7.678  31.241  61.554  1.00  0.00     0.145 C 
HETATM   31  O   UNL     1       5.928  34.203  62.701  1.00  0.00    -0.273 OA
HETATM   32  C   UNL     1       8.232  30.821  60.181  1.00  0.00     0.143 C 
BRANCH  29  33
HETATM   33  C   UNL     1       7.668  33.009  63.858  1.00  0.00     0.103 C 
BRANCH  33  34
HETATM   34  C   UNL     1       7.629  34.107  64.918  1.00  0.00     0.005 C 
HETATM   35  C   UNL     1       6.692  33.743  66.059  1.00  0.00     0.005 C 
ENDBRANCH  33  34
ENDBRANCH  29  33
ENDBRANCH   1  25
TORSDOF 8
ENDMDL
MODEL 2
REMARK VINA RESULT:      -9.9      2.001      2.733
REMARK  8 active torsions:
REMARK  status: ('A' for Active; 'I' for Inactive)
REMARK    1  A    between atoms: C_2  and  C_3 
REMARK    2  A    between atoms: C_3  and  C_4 
REMARK       I    between atoms: C_4  and  N_5 
REMARK    3  A    between atoms: N_8  and  C_9 
REMARK    4  A    between atoms: C_13  and  N_14 
REMARK    5  A    between atoms: N_14  and  C_15 
REMARK    6  A    between atoms: C_15  and  N_16 
REMARK       I    between atoms: N_16  and  C_17 
REMARK    7  A    between atoms: C_17  and  C_18 
REMARK    8  A    between atoms: C_19  and  O_20 
ROOT
HETATM    1  C   UNL     1       6.426  29.118  56.501  1.00  0.00     0.052 A 
HETATM    2  C   UNL     1       7.171  28.595  55.422  1.00  0.00     0.062 A 
HETATM    3 CL   UNL     1       8.834  28.982  55.113  1.00  0.00    -0.082 Cl
HETATM    4  C   UNL     1       6.583  27.740  54.472  1.00  0.00     0.055 A 
HETATM    5  C   UNL     1       5.228  27.421  54.532  1.00  0.00     0.036 A 
HETATM    6  C   UNL     1       4.451  27.989  55.536  1.00  0.00     0.032 A 
HETATM    7  C   UNL     1       5.047  28.811  56.504  1.00  0.00     0.033 A 
ENDROOT
BRANCH   5   8
HETATM    8  N   UNL     1       4.747  26.444  53.631  1.00  0.00    -0.333 N 
HETATM    9  H   UNL     1       3.739  26.337  53.626  1.00  0.00     0.168 HD
BRANCH   8  10
HETATM   10  C   UNL     1       5.377  25.945  52.541  1.00  0.00     0.179 C 
HETATM   11  S   UNL     1       5.340  26.783  51.095  1.00  0.00    -0.040 SA
BRANCH  10  12
HETATM   12  N   UNL     1       5.985  24.725  52.573  1.00  0.00    -0.299 N 
HETATM   13  C   UNL     1       7.349  24.546  52.798  1.00  0.00     0.260 C 
HETATM   14  O   UNL     1       8.247  25.292  52.433  1.00  0.00    -0.267 OA
HETATM   15  H   UNL     1       5.387  24.028  52.998  1.00  0.00     0.171 HD
BRANCH  13  16
HETATM   16  C   UNL     1       7.683  23.293  53.530  1.00  0.00     0.066 A 
HETATM   17  C   UNL     1       7.905  23.257  54.917  1.00  0.00     0.089 A 
HETATM   18  C   UNL     1       8.126  22.018  55.553  1.00  0.00    -0.028 A 
HETATM   19  C   UNL     1       8.318  21.941  57.044  1.00  0.00     0.051 C 
HETATM   20  C   UNL     1       8.149  20.838  54.794  1.00  0.00     0.009 A 
HETATM   21  C   UNL     1       7.933  20.876  53.419  1.00  0.00     0.002 A 
HETATM   22  C   UNL     1       7.689  22.095  52.791  1.00  0.00     0.020 A 
BRANCH  17  23
HETATM   23  O   UNL     1       7.855  24.343  55.752  1.00  0.00    -0.354 OA
HETATM   24  C   UNL     1       6.566  24.654  56.271  1.00  0.00     0.210 C 
ENDBRANCH  17  23
ENDBRANCH  13  16
ENDBRANCH  10  12
ENDBRANCH   8  10
ENDBRANCH   5   8
BRANCH   1  25
HETATM   25  N   UNL     1       6.917  29.825  57.604  1.00  0.00    -0.376 N 
HETATM   26  C   UNL     1       8.009  29.196  58.378  1.00  0.00     0.143 C 
HETATM   27  C   UNL     1       8.828  30.278  59.113  1.00  0.00     0.145 C 
HETATM   28  N   UNL     1       8.004  31.227  59.876  1.00  0.00    -0.349 N 
HETATM   29  C   UNL     1       8.620  31.922  60.915  1.00  0.00     0.219 C 
HETATM   30  C   UNL     1       6.829  31.743  59.159  1.00  0.00     0.145 C 
HETATM   31  O   UNL     1       9.762  31.657  61.291  1.00  0.00    -0.273 OA
HETATM   32  C   UNL     1       6.027  30.643  58.442  1.00  0.00     0.143 C 
BRANCH  29  33
HETATM   33  C   UNL     1       7.794  33.012  61.587  1.00  0.00     0.103 C 
BRANCH  33  34
HETATM   34  C   UNL     1       7.064  32.519  62.834  1.00  0.00     0.005 C 
HETATM   35  C   UNL     1       7.607  33.181  64.092  1.00  0.00     0.005 C 
ENDBRANCH  33  34
ENDBRANCH  29  33
ENDBRANCH   1  25
TORSDOF 8
ENDMDL
MODEL 3
REMARK VINA RESULT:      -9.8      2.304     11.064
REMARK  8 active torsions:
REMARK  status: ('A' for Active; 'I' for Inactive)
REMARK    1  A    between atoms: C_2  and  C_3 
REMARK    2  A    between atoms: C_3  and  C_4 
REMARK       I    between atoms: C_4  and  N_5 
REMARK    3  A    between atoms: N_8  and  C_9 
REMARK    4  A    between atoms: C_13  and  N_14 
REMARK    5  A    between atoms: N_14  and  C_15 
REMARK    6  A    between atoms: C_15  and  N_16 
REMARK       I    between atoms: N_16  and  C_17 
REMARK    7  A    between atoms: C_17  and  C_18 
REMARK    8  A    between atoms: C_19  and  O_20 
ROOT
HETATM    1  C   UNL     1       7.515  27.112  56.861  1.00  0.00     0.052 A 
HETATM    2  C   UNL     1       6.299  27.819  56.983  1.00  0.00     0.062 A 
HETATM    3 CL   UNL     1       4.745  27.150  56.596  1.00  0.00    -0.082 Cl
HETATM    4  C   UNL     1       6.272  29.164  57.391  1.00  0.00     0.055 A 
HETATM    5  C   UNL     1       7.449  29.866  57.639  1.00  0.00     0.036 A 
HETATM    6  C   UNL     1       8.666  29.220  57.446  1.00  0.00     0.032 A 
HETATM    7  C   UNL     1       8.690  27.868  57.076  1.00  0.00     0.033 A 
ENDROOT
BRANCH   5   8
HETATM    8  N   UNL     1       7.333  31.165  58.184  1.00  0.00    -0.333 N 
HETATM    9  H   UNL     1       7.863  31.877  57.692  1.00  0.00     0.168 HD
BRANCH   8  10
HETATM   10  C   UNL     1       6.347  31.640  58.981  1.00  0.00     0.179 C 
HETATM   11  S   UNL     1       4.970  32.304  58.305  1.00  0.00    -0.040 SA
BRANCH  10  12
HETATM   12  N   UNL     1       6.484  31.660  60.338  1.00  0.00    -0.299 N 
HETATM   13  C   UNL     1       7.419  32.447  61.009  1.00  0.00     0.260 C 
HETATM   14  O   UNL     1       8.540  32.734  60.614  1.00  0.00    -0.267 OA
HETATM   15  H   UNL     1       5.588  31.576  60.799  1.00  0.00     0.171 HD
BRANCH  13  16
HETATM   16  C   UNL     1       6.962  32.927  62.342  1.00  0.00     0.066 A 
HETATM   17  C   UNL     1       5.659  33.400  62.576  1.00  0.00     0.089 A 
HETATM   18  C   UNL     1       5.272  33.751  63.886  1.00  0.00    -0.028 A 
HETATM   19  C   UNL     1       3.870  34.215  64.177  1.00  0.00     0.051 C 
HETATM   20  C   UNL     1       6.196  33.650  64.937  1.00  0.00     0.009 A 
HETATM   21  C   UNL     1       7.487  33.185  64.703  1.00  0.00     0.002 A 
HETATM   22  C   UNL     1       7.866  32.814  63.415  1.00  0.00     0.020 A 
BRANCH  17  23
HETATM   23  O   UNL     1       4.671  33.490  61.629  1.00  0.00    -0.354 OA
HETATM   24  C   UNL     1       4.561  34.754  60.981  1.00  0.00     0.210 C 
ENDBRANCH  17  23
ENDBRANCH  13  16
ENDBRANCH  10  12
ENDBRANCH   8  10
ENDBRANCH   5   8
BRANCH   1  25
HETATM   25  N   UNL     1       7.679  25.740  56.643  1.00  0.00    -0.376 N 
HETATM   26  C   UNL     1       8.729  25.053  57.425  1.00  0.00     0.143 C 
HETATM   27  C   UNL     1       8.396  23.551  57.554  1.00  0.00     0.145 C 
HETATM   28  N   UNL     1       8.063  22.907  56.274  1.00  0.00    -0.349 N 
HETATM   29  C   UNL     1       8.206  21.524  56.195  1.00  0.00     0.219 C 
HETATM   30  C   UNL     1       7.131  23.662  55.424  1.00  0.00     0.145 C 
HETATM   31  O   UNL     1       8.729  20.868  57.096  1.00  0.00    -0.273 OA
HETATM   32  C   UNL     1       7.491  25.154  55.307  1.00  0.00     0.143 C 
BRANCH  29  33
HETATM   33  C   UNL     1       7.708  20.861  54.917  1.00  0.00     0.103 C 
BRANCH  33  34
HETATM   34  C   UNL     1       8.795  20.730  53.853  1.00  0.00     0.005 C 
HETATM   35  C   UNL     1       8.202  20.393  52.493  1.00  0.00     0.005 C 
ENDBRANCH  33  34
ENDBRANCH  29  33
ENDBRANCH   1  25
TORSDOF 8
ENDMDL
MODEL 4
REMARK VINA RESULT:      -9.8      2.423      3.907
REMARK  8 active torsions:
REMARK  status: ('A' for Active; 'I' for Inactive)
REMARK    1  A    between atoms: C_2  and  C_3 
REMARK    2  A    between atoms: C_3  and  C_4 
REMARK       I    between atoms: C_4  and  N_5 
REMARK    3  A    between atoms: N_8  and  C_9 
REMARK    4  A    between atoms: C_13  and  N_14 
REMARK    5  A    between atoms: N_14  and  C_15 
REMARK    6  A    between atoms: C_15  and  N_16 
REMARK       I    between atoms: N_16  and  C_17 
REMARK    7  A    between atoms: C_17  and  C_18 
REMARK    8  A    between atoms: C_19  and  O_20 
ROOT
HETATM    1  C   UNL     1       7.315  31.797  61.031  1.00  0.00     0.052 A 
HETATM    2  C   UNL     1       8.325  30.838  60.800  1.00  0.00     0.062 A 
HETATM    3 CL   UNL     1       9.486  30.344  61.991  1.00  0.00    -0.082 Cl
HETATM    4  C   UNL     1       8.491  30.240  59.538  1.00  0.00     0.055 A 
HETATM    5  C   UNL     1       7.698  30.612  58.454  1.00  0.00     0.036 A 
HETATM    6  C   UNL     1       6.751  31.615  58.632  1.00  0.00     0.032 A 
HETATM    7  C   UNL     1       6.561  32.182  59.900  1.00  0.00     0.033 A 
ENDROOT
BRANCH   5   8
HETATM    8  N   UNL     1       7.829  29.864  57.262  1.00  0.00    -0.333 N 
HETATM    9  H   UNL     1       7.270  30.206  56.488  1.00  0.00     0.168 HD
BRANCH   8  10
HETATM   10  C   UNL     1       8.848  29.044  56.910  1.00  0.00     0.179 C 
HETATM   11  S   UNL     1      10.218  29.673  56.190  1.00  0.00    -0.040 SA
BRANCH  10  12
HETATM   12  N   UNL     1       8.750  27.692  57.060  1.00  0.00    -0.299 N 
HETATM   13  C   UNL     1       7.565  26.978  56.889  1.00  0.00     0.260 C 
HETATM   14  O   UNL     1       6.439  27.369  57.164  1.00  0.00    -0.267 OA
HETATM   15  H   UNL     1       9.582  27.224  56.725  1.00  0.00     0.171 HD
BRANCH  13  16
HETATM   16  C   UNL     1       7.758  25.605  56.346  1.00  0.00     0.066 A 
HETATM   17  C   UNL     1       7.492  25.272  55.007  1.00  0.00     0.089 A 
HETATM   18  C   UNL     1       7.787  23.972  54.544  1.00  0.00    -0.028 A 
HETATM   19  C   UNL     1       7.561  23.598  53.104  1.00  0.00     0.051 C 
HETATM   20  C   UNL     1       8.315  23.019  55.428  1.00  0.00     0.009 A 
HETATM   21  C   UNL     1       8.573  23.350  56.755  1.00  0.00     0.002 A 
HETATM   22  C   UNL     1       8.307  24.639  57.211  1.00  0.00     0.020 A 
BRANCH  17  23
HETATM   23  O   UNL     1       7.024  26.140  54.056  1.00  0.00    -0.354 OA
HETATM   24  C   UNL     1       5.606  26.236  53.963  1.00  0.00     0.210 C 
ENDBRANCH  17  23
ENDBRANCH  13  16
ENDBRANCH  10  12
ENDBRANCH   8  10
ENDBRANCH   5   8
BRANCH   1  25
HETATM   25  N   UNL     1       6.923  32.334  62.263  1.00  0.00    -0.376 N 
HETATM   26  C   UNL     1       5.565  32.910  62.346  1.00  0.00     0.143 C 
HETATM   27  C   UNL     1       5.065  32.881  63.807  1.00  0.00     0.145 C 
HETATM   28  N   UNL     1       6.028  33.435  64.771  1.00  0.00    -0.349 N 
HETATM   29  C   UNL     1       5.528  33.881  65.993  1.00  0.00     0.219 C 
HETATM   30  C   UNL     1       7.414  32.976  64.597  1.00  0.00     0.145 C 
HETATM   31  O   UNL     1       4.319  33.957  66.216  1.00  0.00    -0.273 OA
HETATM   32  C   UNL     1       7.887  33.023  63.134  1.00  0.00     0.143 C 
BRANCH  29  33
HETATM   33  C   UNL     1       6.556  34.303  67.035  1.00  0.00     0.103 C 
BRANCH  33  34
HETATM   34  C   UNL     1       5.950  34.495  68.423  1.00  0.00     0.005 C 
HETATM   35  C   UNL     1       6.915  35.211  69.355  1.00  0.00     0.005 C 
ENDBRANCH  33  34
ENDBRANCH  29  33
ENDBRANCH   1  25
TORSDOF 8
ENDMDL
MODEL 5
REMARK VINA RESULT:      -9.7      2.382      3.212
REMARK  8 active torsions:
REMARK  status: ('A' for Active; 'I' for Inactive)
REMARK    1  A    between atoms: C_2  and  C_3 
REMARK    2  A    between atoms: C_3  and  C_4 
REMARK       I    between atoms: C_4  and  N_5 
REMARK    3  A    between atoms: N_8  and  C_9 
REMARK    4  A    between atoms: C_13  and  N_14 
REMARK    5  A    between atoms: N_14  and  C_15 
REMARK    6  A    between atoms: C_15  and  N_16 
REMARK       I    between atoms: N_16  and  C_17 
REMARK    7  A    between atoms: C_17  and  C_18 
REMARK    8  A    between atoms: C_19  and  O_20 
ROOT
HETATM    1  C   UNL     1       6.240  28.407  56.172  1.00  0.00     0.052 A 
HETATM    2  C   UNL     1       5.405  28.771  55.092  1.00  0.00     0.062 A 
HETATM    3 CL   UNL     1       4.904  30.398  54.758  1.00  0.00    -0.082 Cl
HETATM    4  C   UNL     1       4.871  27.803  54.222  1.00  0.00     0.055 A 
HETATM    5  C   UNL     1       5.103  26.445  54.425  1.00  0.00     0.036 A 
HETATM    6  C   UNL     1       5.852  26.052  55.530  1.00  0.00     0.032 A 
HETATM    7  C   UNL     1       6.415  27.020  56.374  1.00  0.00     0.033 A 
ENDROOT
BRANCH   5   8
HETATM    8  N   UNL     1       4.655  25.549  53.428  1.00  0.00    -0.333 N 
HETATM    9  H   UNL     1       3.647  25.445  53.378  1.00  0.00     0.168 HD
BRANCH   8  10
HETATM   10  C   UNL     1       5.324  25.143  52.323  1.00  0.00     0.179 C 
HETATM   11  S   UNL     1       5.067  25.908  50.860  1.00  0.00    -0.040 SA
BRANCH  10  12
HETATM   12  N   UNL     1       6.156  24.063  52.358  1.00  0.00    -0.299 N 
HETATM   13  C   UNL     1       7.397  24.064  52.993  1.00  0.00     0.260 C 
HETATM   14  O   UNL     1       8.168  25.009  53.074  1.00  0.00    -0.267 OA
HETATM   15  H   UNL     1       5.634  23.200  52.441  1.00  0.00     0.171 HD
BRANCH  13  16
HETATM   16  C   UNL     1       7.777  22.750  53.582  1.00  0.00     0.066 A 
HETATM   17  C   UNL     1       7.895  22.541  54.967  1.00  0.00     0.089 A 
HETATM   18  C   UNL     1       8.168  21.245  55.453  1.00  0.00    -0.028 A 
HETATM   19  C   UNL     1       8.252  20.980  56.932  1.00  0.00     0.051 C 
HETATM   20  C   UNL     1       8.347  20.185  54.552  1.00  0.00     0.009 A 
HETATM   21  C   UNL     1       8.234  20.394  53.180  1.00  0.00     0.002 A 
HETATM   22  C   UNL     1       7.939  21.667  52.697  1.00  0.00     0.020 A 
BRANCH  17  23
HETATM   23  O   UNL     1       7.692  23.497  55.929  1.00  0.00    -0.354 OA
HETATM   24  C   UNL     1       8.870  24.132  56.415  1.00  0.00     0.210 C 
ENDBRANCH  17  23
ENDBRANCH  13  16
ENDBRANCH  10  12
ENDBRANCH   8  10
ENDBRANCH   5   8
BRANCH   1  25
HETATM   25  N   UNL     1       6.976  29.263  56.998  1.00  0.00    -0.376 N 
HETATM   26  C   UNL     1       8.441  29.067  57.038  1.00  0.00     0.143 C 
HETATM   27  C   UNL     1       9.140  30.381  57.447  1.00  0.00     0.145 C 
HETATM   28  N   UNL     1       8.571  31.003  58.652  1.00  0.00    -0.349 N 
HETATM   29  C   UNL     1       9.380  31.890  59.360  1.00  0.00     0.219 C 
HETATM   30  C   UNL     1       7.103  31.065  58.683  1.00  0.00     0.145 C 
HETATM   31  O   UNL     1      10.571  32.045  59.092  1.00  0.00    -0.273 OA
HETATM   32  C   UNL     1       6.432  29.741  58.278  1.00  0.00     0.143 C 
BRANCH  29  33
HETATM   33  C   UNL     1       8.720  32.641  60.510  1.00  0.00     0.103 C 
BRANCH  33  34
HETATM   34  C   UNL     1       9.132  32.109  61.881  1.00  0.00     0.005 C 
HETATM   35  C   UNL     1       9.093  30.589  61.920  1.00  0.00     0.005 C 
ENDBRANCH  33  34
ENDBRANCH  29  33
ENDBRANCH   1  25
TORSDOF 8
ENDMDL
MODEL 6
REMARK VINA RESULT:      -9.5      2.503     10.914
REMARK  8 active torsions:
REMARK  status: ('A' for Active; 'I' for Inactive)
REMARK    1  A    between atoms: C_2  and  C_3 
REMARK    2  A    between atoms: C_3  and  C_4 
REMARK       I    between atoms: C_4  and  N_5 
REMARK    3  A    between atoms: N_8  and  C_9 
REMARK    4  A    between atoms: C_13  and  N_14 
REMARK    5  A    between atoms: N_14  and  C_15 
REMARK    6  A    between atoms: C_15  and  N_16 
REMARK       I    between atoms: N_16  and  C_17 
REMARK    7  A    between atoms: C_17  and  C_18 
REMARK    8  A    between atoms: C_19  and  O_20 
ROOT
HETATM    1  C   UNL     1       6.818  27.772  56.457  1.00  0.00     0.052 A 
HETATM    2  C   UNL     1       7.702  28.755  56.952  1.00  0.00     0.062 A 
HETATM    3 CL   UNL     1       9.411  28.518  57.139  1.00  0.00    -0.082 Cl
HETATM    4  C   UNL     1       7.235  30.009  57.385  1.00  0.00     0.055 A 
HETATM    5  C   UNL     1       5.874  30.308  57.390  1.00  0.00     0.036 A 
HETATM    6  C   UNL     1       4.972  29.328  56.987  1.00  0.00     0.032 A 
HETATM    7  C   UNL     1       5.443  28.093  56.520  1.00  0.00     0.033 A 
ENDROOT
BRANCH   5   8
HETATM    8  N   UNL     1       5.498  31.635  57.701  1.00  0.00    -0.333 N 
HETATM    9  H   UNL     1       5.411  32.247  56.896  1.00  0.00     0.168 HD
BRANCH   8  10
HETATM   10  C   UNL     1       4.875  32.076  58.820  1.00  0.00     0.179 C 
HETATM   11  S   UNL     1       3.424  32.895  58.702  1.00  0.00    -0.040 SA
BRANCH  10  12
HETATM   12  N   UNL     1       5.448  31.933  60.049  1.00  0.00    -0.299 N 
HETATM   13  C   UNL     1       6.685  32.475  60.393  1.00  0.00     0.260 C 
HETATM   14  O   UNL     1       7.650  32.606  59.653  1.00  0.00    -0.267 OA
HETATM   15  H   UNL     1       4.752  31.956  60.783  1.00  0.00     0.171 HD
BRANCH  13  16
HETATM   16  C   UNL     1       6.790  32.886  61.821  1.00  0.00     0.066 A 
HETATM   17  C   UNL     1       5.782  33.610  62.481  1.00  0.00     0.089 A 
HETATM   18  C   UNL     1       5.912  33.883  63.859  1.00  0.00    -0.028 A 
HETATM   19  C   UNL     1       4.827  34.612  64.605  1.00  0.00     0.051 C 
HETATM   20  C   UNL     1       7.056  33.456  64.549  1.00  0.00     0.009 A 
HETATM   21  C   UNL     1       8.056  32.743  63.893  1.00  0.00     0.002 A 
HETATM   22  C   UNL     1       7.919  32.449  62.538  1.00  0.00     0.020 A 
BRANCH  17  23
HETATM   23  O   UNL     1       4.608  34.028  61.909  1.00  0.00    -0.354 OA
HETATM   24  C   UNL     1       4.646  35.324  61.318  1.00  0.00     0.210 C 
ENDBRANCH  17  23
ENDBRANCH  13  16
ENDBRANCH  10  12
ENDBRANCH   8  10
ENDBRANCH   5   8
BRANCH   1  25
HETATM   25  N   UNL     1       7.156  26.566  55.833  1.00  0.00    -0.376 N 
HETATM   26  C   UNL     1       6.441  26.228  54.585  1.00  0.00     0.143 C 
HETATM   27  C   UNL     1       7.296  25.271  53.726  1.00  0.00     0.145 C 
HETATM   28  N   UNL     1       7.814  24.113  54.470  1.00  0.00    -0.349 N 
HETATM   29  C   UNL     1       8.178  22.988  53.734  1.00  0.00     0.219 C 
HETATM   30  C   UNL     1       8.394  24.429  55.783  1.00  0.00     0.145 C 
HETATM   31  O   UNL     1       7.945  22.892  52.529  1.00  0.00    -0.273 OA
HETATM   32  C   UNL     1       7.518  25.378  56.620  1.00  0.00     0.143 C 
BRANCH  29  33
HETATM   33  C   UNL     1       8.858  21.863  54.504  1.00  0.00     0.103 C 
BRANCH  33  34
HETATM   34  C   UNL     1       7.944  20.660  54.727  1.00  0.00     0.005 C 
HETATM   35  C   UNL     1       7.802  20.339  56.207  1.00  0.00     0.005 C 
ENDBRANCH  33  34
ENDBRANCH  29  33
ENDBRANCH   1  25
TORSDOF 8
ENDMDL
MODEL 7
REMARK VINA RESULT:      -9.5      2.456     11.234
REMARK  8 active torsions:
REMARK  status: ('A' for Active; 'I' for Inactive)
REMARK    1  A    between atoms: C_2  and  C_3 
REMARK    2  A    between atoms: C_3  and  C_4 
REMARK       I    between atoms: C_4  and  N_5 
REMARK    3  A    between atoms: N_8  and  C_9 
REMARK    4  A    between atoms: C_13  and  N_14 
REMARK    5  A    between atoms: N_14  and  C_15 
REMARK    6  A    between atoms: C_15  and  N_16 
REMARK       I    between atoms: N_16  and  C_17 
REMARK    7  A    between atoms: C_17  and  C_18 
REMARK    8  A    between atoms: C_19  and  O_20 
ROOT
HETATM    1  C   UNL     1       8.004  28.637  56.912  1.00  0.00     0.052 A 
HETATM    2  C   UNL     1       7.013  29.370  57.600  1.00  0.00     0.062 A 
HETATM    3 CL   UNL     1       5.310  29.076  57.450  1.00  0.00    -0.082 Cl
HETATM    4  C   UNL     1       7.349  30.448  58.438  1.00  0.00     0.055 A 
HETATM    5  C   UNL     1       8.670  30.867  58.578  1.00  0.00     0.036 A 
HETATM    6  C   UNL     1       9.659  30.217  57.846  1.00  0.00     0.032 A 
HETATM    7  C   UNL     1       9.327  29.118  57.041  1.00  0.00     0.033 A 
ENDROOT
BRANCH   5   8
HETATM    8  N   UNL     1       8.942  31.860  59.547  1.00  0.00    -0.333 N 
HETATM    9  H   UNL     1       8.932  32.809  59.191  1.00  0.00     0.168 HD
BRANCH   8  10
HETATM   10  C   UNL     1       8.818  31.756  60.892  1.00  0.00     0.179 C 
HETATM   11  S   UNL     1       9.430  30.419  61.687  1.00  0.00    -0.040 SA
BRANCH  10  12
HETATM   12  N   UNL     1       8.133  32.688  61.612  1.00  0.00    -0.299 N 
HETATM   13  C   UNL     1       6.774  32.592  61.906  1.00  0.00     0.260 C 
HETATM   14  O   UNL     1       5.910  32.107  61.189  1.00  0.00    -0.267 OA
HETATM   15  H   UNL     1       8.704  33.073  62.353  1.00  0.00     0.171 HD
BRANCH  13  16
HETATM   16  C   UNL     1       6.395  33.181  63.221  1.00  0.00     0.066 A 
HETATM   17  C   UNL     1       5.100  33.647  63.502  1.00  0.00     0.089 A 
HETATM   18  C   UNL     1       4.793  34.107  64.800  1.00  0.00    -0.028 A 
HETATM   19  C   UNL     1       3.402  34.566  65.146  1.00  0.00     0.051 C 
HETATM   20  C   UNL     1       5.789  34.120  65.788  1.00  0.00     0.009 A 
HETATM   21  C   UNL     1       7.073  33.662  65.507  1.00  0.00     0.002 A 
HETATM   22  C   UNL     1       7.373  33.184  64.233  1.00  0.00     0.020 A 
BRANCH  17  23
HETATM   23  O   UNL     1       4.047  33.630  62.623  1.00  0.00    -0.354 OA
HETATM   24  C   UNL     1       3.914  34.792  61.810  1.00  0.00     0.210 C 
ENDBRANCH  17  23
ENDBRANCH  13  16
ENDBRANCH  10  12
ENDBRANCH   8  10
ENDBRANCH   5   8
BRANCH   1  25
HETATM   25  N   UNL     1       7.834  27.446  56.197  1.00  0.00    -0.376 N 
HETATM   26  C   UNL     1       7.089  27.525  54.922  1.00  0.00     0.143 C 
HETATM   27  C   UNL     1       7.501  26.361  53.995  1.00  0.00     0.145 C 
HETATM   28  N   UNL     1       7.464  25.044  54.648  1.00  0.00    -0.349 N 
HETATM   29  C   UNL     1       7.355  23.924  53.827  1.00  0.00     0.219 C 
HETATM   30  C   UNL     1       8.074  24.997  55.985  1.00  0.00     0.145 C 
HETATM   31  O   UNL     1       7.148  24.017  52.618  1.00  0.00    -0.273 OA
HETATM   32  C   UNL     1       7.641  26.163  56.889  1.00  0.00     0.143 C 
BRANCH  29  33
HETATM   33  C   UNL     1       7.478  22.566  54.510  1.00  0.00     0.103 C 
BRANCH  33  34
HETATM   34  C   UNL     1       8.577  21.696  53.907  1.00  0.00     0.005 C 
HETATM   35  C   UNL     1       7.994  20.568  53.068  1.00  0.00     0.005 C 
ENDBRANCH  33  34
ENDBRANCH  29  33
ENDBRANCH   1  25
TORSDOF 8
ENDMDL
MODEL 8
REMARK VINA RESULT:      -9.3      2.607     10.692
REMARK  8 active torsions:
REMARK  status: ('A' for Active; 'I' for Inactive)
REMARK    1  A    between atoms: C_2  and  C_3 
REMARK    2  A    between atoms: C_3  and  C_4 
REMARK       I    between atoms: C_4  and  N_5 
REMARK    3  A    between atoms: N_8  and  C_9 
REMARK    4  A    between atoms: C_13  and  N_14 
REMARK    5  A    between atoms: N_14  and  C_15 
REMARK    6  A    between atoms: C_15  and  N_16 
REMARK       I    between atoms: N_16  and  C_17 
REMARK    7  A    between atoms: C_17  and  C_18 
REMARK    8  A    between atoms: C_19  and  O_20 
ROOT
HETATM    1  C   UNL     1       5.557  28.390  56.300  1.00  0.00     0.052 A 
HETATM    2  C   UNL     1       6.200  29.140  57.309  1.00  0.00     0.062 A 
HETATM    3 CL   UNL     1       7.756  28.746  57.968  1.00  0.00    -0.082 Cl
HETATM    4  C   UNL     1       5.582  30.259  57.895  1.00  0.00     0.055 A 
HETATM    5  C   UNL     1       4.290  30.637  57.540  1.00  0.00     0.036 A 
HETATM    6  C   UNL     1       3.599  29.866  56.610  1.00  0.00     0.032 A 
HETATM    7  C   UNL     1       4.231  28.774  55.998  1.00  0.00     0.033 A 
ENDROOT
BRANCH   5   8
HETATM    8  N   UNL     1       3.797  31.853  58.065  1.00  0.00    -0.333 N 
HETATM    9  H   UNL     1       2.987  31.754  58.668  1.00  0.00     0.168 HD
BRANCH   8  10
HETATM   10  C   UNL     1       4.462  33.025  58.196  1.00  0.00     0.179 C 
HETATM   11  S   UNL     1       4.633  34.043  56.882  1.00  0.00    -0.040 SA
BRANCH  10  12
HETATM   12  N   UNL     1       5.069  33.365  59.369  1.00  0.00    -0.299 N 
HETATM   13  C   UNL     1       4.859  32.692  60.572  1.00  0.00     0.260 C 
HETATM   14  O   UNL     1       3.812  32.179  60.941  1.00  0.00    -0.267 OA
HETATM   15  H   UNL     1       6.019  33.676  59.214  1.00  0.00     0.171 HD
BRANCH  13  16
HETATM   16  C   UNL     1       6.052  32.656  61.462  1.00  0.00     0.066 A 
HETATM   17  C   UNL     1       6.065  33.232  62.743  1.00  0.00     0.089 A 
HETATM   18  C   UNL     1       7.202  33.077  63.564  1.00  0.00    -0.028 A 
HETATM   19  C   UNL     1       7.227  33.640  64.960  1.00  0.00     0.051 C 
HETATM   20  C   UNL     1       8.317  32.373  63.085  1.00  0.00     0.009 A 
HETATM   21  C   UNL     1       8.305  31.806  61.813  1.00  0.00     0.002 A 
HETATM   22  C   UNL     1       7.175  31.936  61.009  1.00  0.00     0.020 A 
BRANCH  17  23
HETATM   23  O   UNL     1       5.012  33.895  63.320  1.00  0.00    -0.354 OA
HETATM   24  C   UNL     1       4.851  35.251  62.917  1.00  0.00     0.210 C 
ENDBRANCH  17  23
ENDBRANCH  13  16
ENDBRANCH  10  12
ENDBRANCH   8  10
ENDBRANCH   5   8
BRANCH   1  25
HETATM   25  N   UNL     1       6.115  27.377  55.513  1.00  0.00    -0.376 N 
HETATM   26  C   UNL     1       5.784  27.382  54.072  1.00  0.00     0.143 C 
HETATM   27  C   UNL     1       6.889  26.660  53.271  1.00  0.00     0.145 C 
HETATM   28  N   UNL     1       7.246  25.341  53.815  1.00  0.00    -0.349 N 
HETATM   29  C   UNL     1       7.856  24.435  52.950  1.00  0.00     0.219 C 
HETATM   30  C   UNL     1       7.431  25.300  55.272  1.00  0.00     0.145 C 
HETATM   31  O   UNL     1       7.963  24.654  51.743  1.00  0.00    -0.273 OA
HETATM   32  C   UNL     1       6.312  26.020  56.045  1.00  0.00     0.143 C 
BRANCH  29  33
HETATM   33  C   UNL     1       8.360  23.137  53.570  1.00  0.00     0.103 C 
BRANCH  33  34
HETATM   34  C   UNL     1       7.570  21.914  53.110  1.00  0.00     0.005 C 
HETATM   35  C   UNL     1       8.453  20.677  53.046  1.00  0.00     0.005 C 
ENDBRANCH  33  34
ENDBRANCH  29  33
ENDBRANCH   1  25
TORSDOF 8
ENDMDL
MODEL 9
REMARK VINA RESULT:      -8.7      1.953      2.988
REMARK  8 active torsions:
REMARK  status: ('A' for Active; 'I' for Inactive)
REMARK    1  A    between atoms: C_2  and  C_3 
REMARK    2  A    between atoms: C_3  and  C_4 
REMARK       I    between atoms: C_4  and  N_5 
REMARK    3  A    between atoms: N_8  and  C_9 
REMARK    4  A    between atoms: C_13  and  N_14 
REMARK    5  A    between atoms: N_14  and  C_15 
REMARK    6  A    between atoms: C_15  and  N_16 
REMARK       I    between atoms: N_16  and  C_17 
REMARK    7  A    between atoms: C_17  and  C_18 
REMARK    8  A    between atoms: C_19  and  O_20 
ROOT
HETATM    1  C   UNL     1       5.359  30.077  56.972  1.00  0.00     0.052 A 
HETATM    2  C   UNL     1       5.034  30.700  55.748  1.00  0.00     0.062 A 
HETATM    3 CL   UNL     1       5.142  32.410  55.471  1.00  0.00    -0.082 Cl
HETATM    4  C   UNL     1       4.542  29.960  54.658  1.00  0.00     0.055 A 
HETATM    5  C   UNL     1       4.306  28.592  54.764  1.00  0.00     0.036 A 
HETATM    6  C   UNL     1       4.537  27.966  55.985  1.00  0.00     0.032 A 
HETATM    7  C   UNL     1       5.064  28.698  57.059  1.00  0.00     0.033 A 
ENDROOT
BRANCH   5   8
HETATM    8  N   UNL     1       3.950  27.897  53.586  1.00  0.00    -0.333 N 
HETATM    9  H   UNL     1       3.084  28.206  53.160  1.00  0.00     0.168 HD
BRANCH   8  10
HETATM   10  C   UNL     1       4.766  27.190  52.767  1.00  0.00     0.179 C 
HETATM   11  S   UNL     1       4.736  27.462  51.119  1.00  0.00    -0.040 SA
BRANCH  10  12
HETATM   12  N   UNL     1       5.564  26.196  53.252  1.00  0.00    -0.299 N 
HETATM   13  C   UNL     1       6.834  26.416  53.785  1.00  0.00     0.260 C 
HETATM   14  O   UNL     1       7.637  27.262  53.418  1.00  0.00    -0.267 OA
HETATM   15  H   UNL     1       5.021  25.485  53.722  1.00  0.00     0.171 HD
BRANCH  13  16
HETATM   16  C   UNL     1       7.200  25.479  54.882  1.00  0.00     0.066 A 
HETATM   17  C   UNL     1       7.200  24.082  54.723  1.00  0.00     0.089 A 
HETATM   18  C   UNL     1       7.648  23.263  55.780  1.00  0.00    -0.028 A 
HETATM   19  C   UNL     1       7.707  21.767  55.623  1.00  0.00     0.051 C 
HETATM   20  C   UNL     1       8.062  23.845  56.987  1.00  0.00     0.009 A 
HETATM   21  C   UNL     1       8.057  25.229  57.145  1.00  0.00     0.002 A 
HETATM   22  C   UNL     1       7.640  26.043  56.095  1.00  0.00     0.020 A 
BRANCH  17  23
HETATM   23  O   UNL     1       6.862  23.420  53.571  1.00  0.00    -0.354 OA
HETATM   24  C   UNL     1       7.885  23.356  52.582  1.00  0.00     0.210 C 
ENDBRANCH  17  23
ENDBRANCH  13  16
ENDBRANCH  10  12
ENDBRANCH   8  10
ENDBRANCH   5   8
BRANCH   1  25
HETATM   25  N   UNL     1       6.018  30.650  58.066  1.00  0.00    -0.376 N 
HETATM   26  C   UNL     1       7.302  30.042  58.475  1.00  0.00     0.143 C 
HETATM   27  C   UNL     1       8.168  31.082  59.217  1.00  0.00     0.145 C 
HETATM   28  N   UNL     1       7.453  31.788  60.291  1.00  0.00    -0.349 N 
HETATM   29  C   UNL     1       8.221  32.375  61.294  1.00  0.00     0.219 C 
HETATM   30  C   UNL     1       6.111  32.266  59.932  1.00  0.00     0.145 C 
HETATM   31  O   UNL     1       9.436  32.194  61.378  1.00  0.00    -0.273 OA
HETATM   32  C   UNL     1       5.267  31.208  59.201  1.00  0.00     0.143 C 
BRANCH  29  33
HETATM   33  C   UNL     1       7.473  33.234  62.308  1.00  0.00     0.103 C 
BRANCH  33  34
HETATM   34  C   UNL     1       7.884  32.944  63.749  1.00  0.00     0.005 C 
HETATM   35  C   UNL     1       6.815  33.395  64.732  1.00  0.00     0.005 C 
ENDBRANCH  33  34
ENDBRANCH  29  33
ENDBRANCH   1  25
TORSDOF 8
ENDMDL
MODEL 10
REMARK VINA RESULT:      -8.5      6.651      8.767
REMARK  8 active torsions:
REMARK  status: ('A' for Active; 'I' for Inactive)
REMARK    1  A    between atoms: C_2  and  C_3 
REMARK    2  A    between atoms: C_3  and  C_4 
REMARK       I    between atoms: C_4  and  N_5 
REMARK    3  A    between atoms: N_8  and  C_9 
REMARK    4  A    between atoms: C_13  and  N_14 
REMARK    5  A    between atoms: N_14  and  C_15 
REMARK    6  A    between atoms: C_15  and  N_16 
REMARK       I    between atoms: N_16  and  C_17 
REMARK    7  A    between atoms: C_17  and  C_18 
REMARK    8  A    between atoms: C_19  and  O_20 
ROOT
HETATM    1  C   UNL     1       4.610  29.507  50.783  1.00  0.00     0.052 A 
HETATM    2  C   UNL     1       4.839  28.151  50.464  1.00  0.00     0.062 A 
HETATM    3 CL   UNL     1       5.135  27.569  48.856  1.00  0.00    -0.082 Cl
HETATM    4  C   UNL     1       4.793  27.149  51.450  1.00  0.00     0.055 A 
HETATM    5  C   UNL     1       4.466  27.452  52.770  1.00  0.00     0.036 A 
HETATM    6  C   UNL     1       4.152  28.767  53.096  1.00  0.00     0.032 A 
HETATM    7  C   UNL     1       4.237  29.771  52.120  1.00  0.00     0.033 A 
ENDROOT
BRANCH   5   8
HETATM    8  N   UNL     1       4.583  26.417  53.725  1.00  0.00    -0.333 N 
HETATM    9  H   UNL     1       3.749  25.852  53.838  1.00  0.00     0.168 HD
BRANCH   8  10
HETATM   10  C   UNL     1       5.721  25.851  54.193  1.00  0.00     0.179 C 
HETATM   11  S   UNL     1       6.856  26.785  54.987  1.00  0.00    -0.040 SA
BRANCH  10  12
HETATM   12  N   UNL     1       6.002  24.536  53.962  1.00  0.00    -0.299 N 
HETATM   13  C   UNL     1       7.149  24.095  53.304  1.00  0.00     0.260 C 
HETATM   14  O   UNL     1       7.721  24.665  52.386  1.00  0.00    -0.267 OA
HETATM   15  H   UNL     1       5.703  23.956  54.735  1.00  0.00     0.171 HD
BRANCH  13  16
HETATM   16  C   UNL     1       7.658  22.783  53.790  1.00  0.00     0.066 A 
HETATM   17  C   UNL     1       7.837  22.493  55.153  1.00  0.00     0.089 A 
HETATM   18  C   UNL     1       8.236  21.196  55.541  1.00  0.00    -0.028 A 
HETATM   19  C   UNL     1       8.388  20.840  56.995  1.00  0.00     0.051 C 
HETATM   20  C   UNL     1       8.477  20.219  54.563  1.00  0.00     0.009 A 
HETATM   21  C   UNL     1       8.304  20.510  53.213  1.00  0.00     0.002 A 
HETATM   22  C   UNL     1       7.886  21.781  52.827  1.00  0.00     0.020 A 
BRANCH  17  23
HETATM   23  O   UNL     1       7.582  23.359  56.184  1.00  0.00    -0.354 OA
HETATM   24  C   UNL     1       8.704  24.107  56.643  1.00  0.00     0.210 C 
ENDBRANCH  17  23
ENDBRANCH  13  16
ENDBRANCH  10  12
ENDBRANCH   8  10
ENDBRANCH   5   8
BRANCH   1  25
HETATM   25  N   UNL     1       4.798  30.616  49.951  1.00  0.00    -0.376 N 
HETATM   26  C   UNL     1       3.750  30.892  48.945  1.00  0.00     0.143 C 
HETATM   27  C   UNL     1       3.760  32.387  48.564  1.00  0.00     0.145 C 
HETATM   28  N   UNL     1       5.095  32.899  48.216  1.00  0.00    -0.349 N 
HETATM   29  C   UNL     1       5.156  34.050  47.433  1.00  0.00     0.219 C 
HETATM   30  C   UNL     1       6.170  32.502  49.136  1.00  0.00     0.145 C 
HETATM   31  O   UNL     1       4.153  34.545  46.920  1.00  0.00    -0.273 OA
HETATM   32  C   UNL     1       6.140  31.006  49.492  1.00  0.00     0.143 C 
BRANCH  29  33
HETATM   33  C   UNL     1       6.540  34.651  47.217  1.00  0.00     0.103 C 
BRANCH  33  34
HETATM   34  C   UNL     1       6.656  36.078  47.747  1.00  0.00     0.005 C 
HETATM   35  C   UNL     1       7.270  36.103  49.139  1.00  0.00     0.005 C 
ENDBRANCH  33  34
ENDBRANCH  29  33
ENDBRANCH   1  25
TORSDOF 8
ENDMDL
