MODEL 1
REMARK VINA RESULT:     -10.4      0.000      0.000
REMARK  5 active torsions:
REMARK  status: ('A' for Active; 'I' for Inactive)
REMARK    1  A    between atoms: N_4  and  C_5 
REMARK    2  A    between atoms: C_16  and  N_17 
REMARK       I    between atoms: N_17  and  C_18 
REMARK    3  A    between atoms: C_18  and  C_19 
REMARK       I    between atoms: C_19  and  N_20 
REMARK    4  A    between atoms: N_20  and  C_21 
REMARK    5  A    between atoms: C_21  and  C_22 
ROOT
HETATM    1  C   UNL     1       3.928  28.031  50.870  1.00  0.00     0.072 C 
HETATM    2  C   UNL     1       4.986  27.756  51.874  1.00  0.00     0.055 C 
HETATM    3  N   UNL     1       5.009  26.593  52.530  1.00  0.00    -0.156 NA
HETATM    4  N   UNL     1       6.134  26.665  53.325  1.00  0.00    -0.045 N 
HETATM    5  C   UNL     1       6.666  27.953  53.310  1.00  0.00     0.152 C 
HETATM    6  C   UNL     1       6.026  28.614  52.285  1.00  0.00     0.079 C 
ENDROOT
BRANCH   5   7
HETATM    7  N   UNL     1       7.678  28.458  54.105  1.00  0.00    -0.303 N 
HETATM    8  C   UNL     1       7.479  28.739  55.444  1.00  0.00     0.315 C 
HETATM    9  O   UNL     1       6.460  28.599  56.106  1.00  0.00    -0.262 OA
HETATM   10  H   UNL     1       8.454  28.958  53.676  1.00  0.00     0.171 HD
BRANCH   8  11
HETATM   11  C   UNL     1       8.714  29.420  56.076  1.00  0.00     0.310 C 
HETATM   12  N   UNL     1       8.526  29.826  57.375  1.00  0.00    -0.349 N 
HETATM   13  H   UNL     1       7.595  29.704  57.763  1.00  0.00     0.163 HD
HETATM   14  O   UNL     1       9.728  29.576  55.410  1.00  0.00    -0.262 OA
BRANCH  12  15
HETATM   15  C   UNL     1       9.548  30.500  58.132  1.00  0.00     0.161 C 
BRANCH  15  16
HETATM   16  C   UNL     1       9.001  31.123  59.390  1.00  0.00    -0.040 A 
HETATM   17  C   UNL     1       7.638  31.437  59.501  1.00  0.00     0.010 A 
HETATM   18  C   UNL     1       7.132  31.994  60.678  1.00  0.00     0.024 A 
HETATM   19  C   UNL     1       7.987  32.249  61.748  1.00  0.00     0.034 A 
HETATM   20 CL   UNL     1       7.360  32.922  63.203  1.00  0.00    -0.084 Cl
HETATM   21  C   UNL     1       9.345  31.960  61.649  1.00  0.00     0.024 A 
HETATM   22  C   UNL     1       9.852  31.404  60.471  1.00  0.00     0.010 A 
ENDBRANCH  15  16
ENDBRANCH  12  15
ENDBRANCH   8  11
ENDBRANCH   5   7
BRANCH   4  23
HETATM   23  C   UNL     1       6.656  25.452  53.835  1.00  0.00     0.732 A 
HETATM   24  N   UNL     1       6.886  24.386  53.139  1.00  0.00    -0.067 NA
HETATM   25  C   UNL     1       7.358  23.291  53.831  1.00  0.00     0.065 A 
HETATM   26  C   UNL     1       7.480  23.234  55.171  1.00  0.00     0.036 A 
HETATM   27  C   UNL     1       7.756  22.114  52.969  1.00  0.00     0.060 C 
HETATM   28  C   UNL     1       7.937  22.028  55.939  1.00  0.00     0.046 C 
HETATM   29  C   UNL     1       7.138  24.449  55.947  1.00  0.00     0.268 A 
HETATM   30  C   UNL     1       8.009  20.765  55.079  1.00  0.00     0.005 C 
HETATM   31  C   UNL     1       8.600  21.072  53.708  1.00  0.00     0.006 C 
HETATM   32  O   UNL     1       7.146  24.469  57.171  1.00  0.00    -0.267 OA
HETATM   33  N   UNL     1       6.809  25.531  55.196  1.00  0.00    -0.152 N 
HETATM   34  H   UNL     1       6.529  26.387  55.664  1.00  0.00     0.188 HD
ENDBRANCH   4  23
TORSDOF 5
ENDMDL
MODEL 2
REMARK VINA RESULT:     -10.2      1.855      2.475
REMARK  5 active torsions:
REMARK  status: ('A' for Active; 'I' for Inactive)
REMARK    1  A    between atoms: N_4  and  C_5 
REMARK    2  A    between atoms: C_16  and  N_17 
REMARK       I    between atoms: N_17  and  C_18 
REMARK    3  A    between atoms: C_18  and  C_19 
REMARK       I    between atoms: C_19  and  N_20 
REMARK    4  A    between atoms: N_20  and  C_21 
REMARK    5  A    between atoms: C_21  and  C_22 
ROOT
HETATM    1  C   UNL     1       3.268  28.906  52.737  1.00  0.00     0.072 C 
HETATM    2  C   UNL     1       4.369  28.391  53.589  1.00  0.00     0.055 C 
HETATM    3  N   UNL     1       4.580  27.076  53.699  1.00  0.00    -0.156 NA
HETATM    4  N   UNL     1       5.691  26.969  54.510  1.00  0.00    -0.045 N 
HETATM    5  C   UNL     1       6.017  28.206  55.063  1.00  0.00     0.152 C 
HETATM    6  C   UNL     1       5.269  29.137  54.377  1.00  0.00     0.079 C 
ENDROOT
BRANCH   5   7
HETATM    7  N   UNL     1       6.949  28.471  56.049  1.00  0.00    -0.303 N 
HETATM    8  C   UNL     1       6.573  28.899  57.309  1.00  0.00     0.315 C 
HETATM    9  O   UNL     1       5.445  29.099  57.737  1.00  0.00    -0.262 OA
HETATM   10  H   UNL     1       7.906  28.701  55.790  1.00  0.00     0.171 HD
BRANCH   8  11
HETATM   11  C   UNL     1       7.798  29.258  58.181  1.00  0.00     0.310 C 
HETATM   12  N   UNL     1       7.511  30.099  59.228  1.00  0.00    -0.349 N 
HETATM   13  H   UNL     1       6.560  30.450  59.288  1.00  0.00     0.163 HD
HETATM   14  O   UNL     1       8.901  28.817  57.889  1.00  0.00    -0.262 OA
BRANCH  12  15
HETATM   15  C   UNL     1       8.519  30.569  60.143  1.00  0.00     0.161 C 
BRANCH  15  16
HETATM   16  C   UNL     1       7.961  31.543  61.148  1.00  0.00    -0.040 A 
HETATM   17  C   UNL     1       8.530  31.660  62.425  1.00  0.00     0.010 A 
HETATM   18  C   UNL     1       8.023  32.581  63.346  1.00  0.00     0.024 A 
HETATM   19  C   UNL     1       6.938  33.383  62.999  1.00  0.00     0.034 A 
HETATM   20 CL   UNL     1       6.324  34.527  64.128  1.00  0.00    -0.084 Cl
HETATM   21  C   UNL     1       6.350  33.267  61.742  1.00  0.00     0.024 A 
HETATM   22  C   UNL     1       6.856  32.345  60.822  1.00  0.00     0.010 A 
ENDBRANCH  15  16
ENDBRANCH  12  15
ENDBRANCH   8  11
ENDBRANCH   5   7
BRANCH   4  23
HETATM   23  C   UNL     1       6.401  25.745  54.493  1.00  0.00     0.732 A 
HETATM   24  N   UNL     1       6.857  25.131  55.537  1.00  0.00    -0.067 NA
HETATM   25  C   UNL     1       7.561  23.968  55.306  1.00  0.00     0.065 A 
HETATM   26  C   UNL     1       7.890  23.510  54.084  1.00  0.00     0.036 A 
HETATM   27  C   UNL     1       7.950  23.200  56.549  1.00  0.00     0.060 C 
HETATM   28  C   UNL     1       8.705  22.277  53.822  1.00  0.00     0.046 C 
HETATM   29  C   UNL     1       7.415  24.276  52.908  1.00  0.00     0.268 A 
HETATM   30  C   UNL     1       9.360  21.716  55.086  1.00  0.00     0.005 C 
HETATM   31  C   UNL     1       8.397  21.763  56.266  1.00  0.00     0.006 C 
HETATM   32  O   UNL     1       7.727  23.979  51.762  1.00  0.00    -0.267 OA
HETATM   33  N   UNL     1       6.617  25.334  53.203  1.00  0.00    -0.152 N 
HETATM   34  H   UNL     1       6.285  25.925  52.447  1.00  0.00     0.188 HD
ENDBRANCH   4  23
TORSDOF 5
ENDMDL
MODEL 3
REMARK VINA RESULT:     -10.2      4.785      8.584
REMARK  5 active torsions:
REMARK  status: ('A' for Active; 'I' for Inactive)
REMARK    1  A    between atoms: N_4  and  C_5 
REMARK    2  A    between atoms: C_16  and  N_17 
REMARK       I    between atoms: N_17  and  C_18 
REMARK    3  A    between atoms: C_18  and  C_19 
REMARK       I    between atoms: C_19  and  N_20 
REMARK    4  A    between atoms: N_20  and  C_21 
REMARK    5  A    between atoms: C_21  and  C_22 
ROOT
HETATM    1  C   UNL     1       5.045  28.888  56.966  1.00  0.00     0.072 C 
HETATM    2  C   UNL     1       5.338  27.903  55.895  1.00  0.00     0.055 C 
HETATM    3  N   UNL     1       6.326  27.017  56.043  1.00  0.00    -0.156 NA
HETATM    4  N   UNL     1       6.275  26.246  54.900  1.00  0.00    -0.045 N 
HETATM    5  C   UNL     1       5.401  26.803  53.969  1.00  0.00     0.152 C 
HETATM    6  C   UNL     1       4.699  27.776  54.645  1.00  0.00     0.079 C 
ENDROOT
BRANCH   5   7
HETATM    7  N   UNL     1       5.212  26.421  52.654  1.00  0.00    -0.303 N 
HETATM    8  C   UNL     1       5.460  27.286  51.603  1.00  0.00     0.315 C 
HETATM    9  O   UNL     1       5.858  28.441  51.650  1.00  0.00    -0.262 OA
HETATM   10  H   UNL     1       4.573  25.660  52.436  1.00  0.00     0.171 HD
BRANCH   8  11
HETATM   11  C   UNL     1       5.043  26.673  50.247  1.00  0.00     0.310 C 
HETATM   12  N   UNL     1       5.302  27.480  49.166  1.00  0.00    -0.349 N 
HETATM   13  H   UNL     1       5.670  28.406  49.363  1.00  0.00     0.163 HD
HETATM   14  O   UNL     1       4.509  25.573  50.216  1.00  0.00    -0.262 OA
BRANCH  12  15
HETATM   15  C   UNL     1       4.967  27.101  47.818  1.00  0.00     0.161 C 
BRANCH  15  16
HETATM   16  C   UNL     1       3.589  27.567  47.425  1.00  0.00    -0.040 A 
HETATM   17  C   UNL     1       2.540  26.649  47.269  1.00  0.00     0.010 A 
HETATM   18  C   UNL     1       1.258  27.088  46.926  1.00  0.00     0.024 A 
HETATM   19  C   UNL     1       1.020  28.446  46.727  1.00  0.00     0.034 A 
HETATM   20 CL   UNL     1      -0.561  28.987  46.318  1.00  0.00    -0.084 Cl
HETATM   21  C   UNL     1       2.055  29.368  46.860  1.00  0.00     0.024 A 
HETATM   22  C   UNL     1       3.337  28.929  47.202  1.00  0.00     0.010 A 
ENDBRANCH  15  16
ENDBRANCH  12  15
ENDBRANCH   8  11
ENDBRANCH   5   7
BRANCH   4  23
HETATM   23  C   UNL     1       6.918  24.985  54.930  1.00  0.00     0.732 A 
HETATM   24  N   UNL     1       6.876  24.102  53.984  1.00  0.00    -0.067 NA
HETATM   25  C   UNL     1       7.536  22.915  54.223  1.00  0.00     0.065 A 
HETATM   26  C   UNL     1       8.109  22.588  55.397  1.00  0.00     0.036 A 
HETATM   27  C   UNL     1       7.594  21.969  53.045  1.00  0.00     0.060 C 
HETATM   28  C   UNL     1       8.779  21.277  55.686  1.00  0.00     0.046 C 
HETATM   29  C   UNL     1       8.076  23.592  56.485  1.00  0.00     0.268 A 
HETATM   30  C   UNL     1       8.529  20.227  54.602  1.00  0.00     0.005 C 
HETATM   31  C   UNL     1       8.621  20.845  53.212  1.00  0.00     0.006 C 
HETATM   32  O   UNL     1       8.503  23.357  57.608  1.00  0.00    -0.267 OA
HETATM   33  N   UNL     1       7.529  24.787  56.141  1.00  0.00    -0.152 N 
HETATM   34  H   UNL     1       7.442  25.509  56.849  1.00  0.00     0.188 HD
ENDBRANCH   4  23
TORSDOF 5
ENDMDL
MODEL 4
REMARK VINA RESULT:      -9.7      4.500      9.368
REMARK  5 active torsions:
REMARK  status: ('A' for Active; 'I' for Inactive)
REMARK    1  A    between atoms: N_4  and  C_5 
REMARK    2  A    between atoms: C_16  and  N_17 
REMARK       I    between atoms: N_17  and  C_18 
REMARK    3  A    between atoms: C_18  and  C_19 
REMARK       I    between atoms: C_19  and  N_20 
REMARK    4  A    between atoms: N_20  and  C_21 
REMARK    5  A    between atoms: C_21  and  C_22 
ROOT
HETATM    1  C   UNL     1       8.302  21.186  53.434  1.00  0.00     0.072 C 
HETATM    2  C   UNL     1       7.894  22.610  53.329  1.00  0.00     0.055 C 
HETATM    3  N   UNL     1       7.522  23.288  54.418  1.00  0.00    -0.156 NA
HETATM    4  N   UNL     1       7.268  24.565  53.963  1.00  0.00    -0.045 N 
HETATM    5  C   UNL     1       7.278  24.601  52.570  1.00  0.00     0.152 C 
HETATM    6  C   UNL     1       7.810  23.397  52.164  1.00  0.00     0.079 C 
ENDROOT
BRANCH   5   7
HETATM    7  N   UNL     1       6.902  25.649  51.750  1.00  0.00    -0.303 N 
HETATM    8  C   UNL     1       5.572  25.928  51.490  1.00  0.00     0.315 C 
HETATM    9  O   UNL     1       4.580  25.347  51.908  1.00  0.00    -0.262 OA
HETATM   10  H   UNL     1       7.554  26.004  51.055  1.00  0.00     0.171 HD
BRANCH   8  11
HETATM   11  C   UNL     1       5.417  27.052  50.441  1.00  0.00     0.310 C 
HETATM   12  N   UNL     1       5.192  26.598  49.164  1.00  0.00    -0.349 N 
HETATM   13  H   UNL     1       5.216  25.592  49.024  1.00  0.00     0.163 HD
HETATM   14  O   UNL     1       5.525  28.221  50.784  1.00  0.00    -0.262 OA
BRANCH  12  15
HETATM   15  C   UNL     1       5.042  27.486  48.041  1.00  0.00     0.161 C 
BRANCH  15  16
HETATM   16  C   UNL     1       3.612  27.571  47.573  1.00  0.00    -0.040 A 
HETATM   17  C   UNL     1       2.890  26.409  47.263  1.00  0.00     0.010 A 
HETATM   18  C   UNL     1       1.557  26.491  46.851  1.00  0.00     0.024 A 
HETATM   19  C   UNL     1       0.942  27.735  46.738  1.00  0.00     0.034 A 
HETATM   20 CL   UNL     1      -0.704  27.834  46.244  1.00  0.00    -0.084 Cl
HETATM   21  C   UNL     1       1.650  28.899  47.025  1.00  0.00     0.024 A 
HETATM   22  C   UNL     1       2.983  28.818  47.436  1.00  0.00     0.010 A 
ENDBRANCH  15  16
ENDBRANCH  12  15
ENDBRANCH   8  11
ENDBRANCH   5   7
BRANCH   4  23
HETATM   23  C   UNL     1       7.243  25.610  54.917  1.00  0.00     0.732 A 
HETATM   24  N   UNL     1       6.961  26.847  54.663  1.00  0.00    -0.067 NA
HETATM   25  C   UNL     1       7.032  27.723  55.726  1.00  0.00     0.065 A 
HETATM   26  C   UNL     1       7.477  27.393  56.953  1.00  0.00     0.036 A 
HETATM   27  C   UNL     1       6.554  29.127  55.429  1.00  0.00     0.060 C 
HETATM   28  C   UNL     1       7.613  28.351  58.101  1.00  0.00     0.046 C 
HETATM   29  C   UNL     1       7.863  25.983  57.192  1.00  0.00     0.268 A 
HETATM   30  C   UNL     1       7.445  29.813  57.681  1.00  0.00     0.005 C 
HETATM   31  C   UNL     1       6.301  29.966  56.685  1.00  0.00     0.006 C 
HETATM   32  O   UNL     1       8.348  25.606  58.251  1.00  0.00    -0.267 OA
HETATM   33  N   UNL     1       7.643  25.147  56.145  1.00  0.00    -0.152 N 
HETATM   34  H   UNL     1       7.917  24.174  56.227  1.00  0.00     0.188 HD
ENDBRANCH   4  23
TORSDOF 5
ENDMDL
MODEL 5
REMARK VINA RESULT:      -9.5      2.853      6.257
REMARK  5 active torsions:
REMARK  status: ('A' for Active; 'I' for Inactive)
REMARK    1  A    between atoms: N_4  and  C_5 
REMARK    2  A    between atoms: C_16  and  N_17 
REMARK       I    between atoms: N_17  and  C_18 
REMARK    3  A    between atoms: C_18  and  C_19 
REMARK       I    between atoms: C_19  and  N_20 
REMARK    4  A    between atoms: N_20  and  C_21 
REMARK    5  A    between atoms: C_21  and  C_22 
ROOT
HETATM    1  C   UNL     1       7.586  24.694  56.024  1.00  0.00     0.072 C 
HETATM    2  C   UNL     1       7.520  26.143  56.336  1.00  0.00     0.055 C 
HETATM    3  N   UNL     1       6.865  26.980  55.527  1.00  0.00    -0.156 NA
HETATM    4  N   UNL     1       6.966  28.210  56.143  1.00  0.00    -0.045 N 
HETATM    5  C   UNL     1       7.863  28.154  57.209  1.00  0.00     0.152 C 
HETATM    6  C   UNL     1       8.113  26.817  57.423  1.00  0.00     0.079 C 
ENDROOT
BRANCH   5   7
HETATM    7  N   UNL     1       8.355  29.210  57.954  1.00  0.00    -0.303 N 
HETATM    8  C   UNL     1       9.358  30.033  57.474  1.00  0.00     0.315 C 
HETATM    9  O   UNL     1       9.934  29.978  56.397  1.00  0.00    -0.262 OA
HETATM   10  H   UNL     1       8.264  29.198  58.967  1.00  0.00     0.171 HD
BRANCH   8  11
HETATM   11  C   UNL     1       9.828  31.045  58.543  1.00  0.00     0.310 C 
HETATM   12  N   UNL     1       9.260  30.856  59.780  1.00  0.00    -0.349 N 
HETATM   13  H   UNL     1       8.553  30.130  59.854  1.00  0.00     0.163 HD
HETATM   14  O   UNL     1      10.617  31.928  58.238  1.00  0.00    -0.262 OA
BRANCH  12  15
HETATM   15  C   UNL     1       9.550  31.707  60.904  1.00  0.00     0.161 C 
BRANCH  15  16
HETATM   16  C   UNL     1       8.299  32.147  61.619  1.00  0.00    -0.040 A 
HETATM   17  C   UNL     1       8.301  32.353  63.006  1.00  0.00     0.010 A 
HETATM   18  C   UNL     1       7.144  32.782  63.662  1.00  0.00     0.024 A 
HETATM   19  C   UNL     1       5.975  32.999  62.935  1.00  0.00     0.034 A 
HETATM   20 CL   UNL     1       4.555  33.541  63.741  1.00  0.00    -0.084 Cl
HETATM   21  C   UNL     1       5.951  32.782  61.560  1.00  0.00     0.024 A 
HETATM   22  C   UNL     1       7.108  32.352  60.905  1.00  0.00     0.010 A 
ENDBRANCH  15  16
ENDBRANCH  12  15
ENDBRANCH   8  11
ENDBRANCH   5   7
BRANCH   4  23
HETATM   23  C   UNL     1       6.050  29.217  55.754  1.00  0.00     0.732 A 
HETATM   24  N   UNL     1       5.881  30.348  56.360  1.00  0.00    -0.067 NA
HETATM   25  C   UNL     1       4.907  31.179  55.847  1.00  0.00     0.065 A 
HETATM   26  C   UNL     1       4.068  30.840  54.851  1.00  0.00     0.036 A 
HETATM   27  C   UNL     1       4.838  32.549  56.484  1.00  0.00     0.060 C 
HETATM   28  C   UNL     1       2.967  31.714  54.324  1.00  0.00     0.046 C 
HETATM   29  C   UNL     1       4.239  29.508  54.227  1.00  0.00     0.268 A 
HETATM   30  C   UNL     1       2.709  32.941  55.201  1.00  0.00     0.005 C 
HETATM   31  C   UNL     1       4.019  33.559  55.675  1.00  0.00     0.006 C 
HETATM   32  O   UNL     1       3.478  29.083  53.367  1.00  0.00    -0.267 OA
HETATM   33  N   UNL     1       5.299  28.795  54.687  1.00  0.00    -0.152 N 
HETATM   34  H   UNL     1       5.455  27.858  54.329  1.00  0.00     0.188 HD
ENDBRANCH   4  23
TORSDOF 5
ENDMDL
MODEL 6
REMARK VINA RESULT:      -9.4      4.363     10.080
REMARK  5 active torsions:
REMARK  status: ('A' for Active; 'I' for Inactive)
REMARK    1  A    between atoms: N_4  and  C_5 
REMARK    2  A    between atoms: C_16  and  N_17 
REMARK       I    between atoms: N_17  and  C_18 
REMARK    3  A    between atoms: C_18  and  C_19 
REMARK       I    between atoms: C_19  and  N_20 
REMARK    4  A    between atoms: N_20  and  C_21 
REMARK    5  A    between atoms: C_21  and  C_22 
ROOT
HETATM    1  C   UNL     1       9.915  31.175  61.585  1.00  0.00     0.072 C 
HETATM    2  C   UNL     1       8.877  31.100  60.526  1.00  0.00     0.055 C 
HETATM    3  N   UNL     1       7.673  31.644  60.721  1.00  0.00    -0.156 NA
HETATM    4  N   UNL     1       7.001  31.434  59.535  1.00  0.00    -0.045 N 
HETATM    5  C   UNL     1       7.722  30.576  58.706  1.00  0.00     0.152 C 
HETATM    6  C   UNL     1       8.975  30.470  59.269  1.00  0.00     0.079 C 
ENDROOT
BRANCH   5   7
HETATM    7  N   UNL     1       7.305  29.997  57.522  1.00  0.00    -0.303 N 
HETATM    8  C   UNL     1       7.355  28.630  57.324  1.00  0.00     0.315 C 
HETATM    9  O   UNL     1       7.741  27.764  58.097  1.00  0.00    -0.262 OA
HETATM   10  H   UNL     1       7.291  30.550  56.668  1.00  0.00     0.171 HD
BRANCH   8  11
HETATM   11  C   UNL     1       6.967  28.246  55.878  1.00  0.00     0.310 C 
HETATM   12  N   UNL     1       7.476  27.039  55.464  1.00  0.00    -0.349 N 
HETATM   13  H   UNL     1       8.098  26.558  56.108  1.00  0.00     0.163 HD
HETATM   14  O   UNL     1       6.287  29.011  55.208  1.00  0.00    -0.262 OA
BRANCH  12  15
HETATM   15  C   UNL     1       7.248  26.513  54.143  1.00  0.00     0.161 C 
BRANCH  15  16
HETATM   16  C   UNL     1       7.431  25.019  54.089  1.00  0.00    -0.040 A 
HETATM   17  C   UNL     1       7.283  24.237  55.245  1.00  0.00     0.010 A 
HETATM   18  C   UNL     1       7.432  22.849  55.186  1.00  0.00     0.024 A 
HETATM   19  C   UNL     1       7.738  22.235  53.973  1.00  0.00     0.034 A 
HETATM   20 CL   UNL     1       7.907  20.524  53.899  1.00  0.00    -0.084 Cl
HETATM   21  C   UNL     1       7.906  22.998  52.821  1.00  0.00     0.024 A 
HETATM   22  C   UNL     1       7.758  24.386  52.880  1.00  0.00     0.010 A 
ENDBRANCH  15  16
ENDBRANCH  12  15
ENDBRANCH   8  11
ENDBRANCH   5   7
BRANCH   4  23
HETATM   23  C   UNL     1       5.860  32.231  59.276  1.00  0.00     0.732 A 
HETATM   24  N   UNL     1       5.682  32.962  58.223  1.00  0.00    -0.067 NA
HETATM   25  C   UNL     1       4.518  33.700  58.178  1.00  0.00     0.065 A 
HETATM   26  C   UNL     1       3.635  33.787  59.190  1.00  0.00     0.036 A 
HETATM   27  C   UNL     1       4.272  34.425  56.874  1.00  0.00     0.060 C 
HETATM   28  C   UNL     1       2.395  34.632  59.174  1.00  0.00     0.046 C 
HETATM   29  C   UNL     1       3.905  32.995  60.412  1.00  0.00     0.268 A 
HETATM   30  C   UNL     1       2.349  35.601  57.991  1.00  0.00     0.005 C 
HETATM   31  C   UNL     1       2.834  34.926  56.714  1.00  0.00     0.006 C 
HETATM   32  O   UNL     1       3.200  33.068  61.411  1.00  0.00    -0.267 OA
HETATM   33  N   UNL     1       4.995  32.189  60.339  1.00  0.00    -0.152 N 
HETATM   34  H   UNL     1       5.260  31.645  61.154  1.00  0.00     0.188 HD
ENDBRANCH   4  23
TORSDOF 5
ENDMDL
MODEL 7
REMARK VINA RESULT:      -9.3      4.574      9.479
REMARK  5 active torsions:
REMARK  status: ('A' for Active; 'I' for Inactive)
REMARK    1  A    between atoms: N_4  and  C_5 
REMARK    2  A    between atoms: C_16  and  N_17 
REMARK       I    between atoms: N_17  and  C_18 
REMARK    3  A    between atoms: C_18  and  C_19 
REMARK       I    between atoms: C_19  and  N_20 
REMARK    4  A    between atoms: N_20  and  C_21 
REMARK    5  A    between atoms: C_21  and  C_22 
ROOT
HETATM    1  C   UNL     1       7.568  33.276  64.447  1.00  0.00     0.072 C 
HETATM    2  C   UNL     1       7.430  32.707  63.083  1.00  0.00     0.055 C 
HETATM    3  N   UNL     1       6.291  32.855  62.401  1.00  0.00    -0.156 NA
HETATM    4  N   UNL     1       6.536  32.259  61.182  1.00  0.00    -0.045 N 
HETATM    5  C   UNL     1       7.743  31.563  61.208  1.00  0.00     0.152 C 
HETATM    6  C   UNL     1       8.382  31.956  62.364  1.00  0.00     0.079 C 
ENDROOT
BRANCH   5   7
HETATM    7  N   UNL     1       8.245  30.705  60.247  1.00  0.00    -0.303 N 
HETATM    8  C   UNL     1       9.074  31.154  59.234  1.00  0.00     0.315 C 
HETATM    9  O   UNL     1       9.477  32.290  59.031  1.00  0.00    -0.262 OA
HETATM   10  H   UNL     1       7.759  29.835  60.044  1.00  0.00     0.171 HD
BRANCH   8  11
HETATM   11  C   UNL     1       9.385  30.037  58.213  1.00  0.00     0.310 C 
HETATM   12  N   UNL     1       8.329  29.194  57.967  1.00  0.00    -0.349 N 
HETATM   13  H   UNL     1       7.487  29.340  58.516  1.00  0.00     0.163 HD
HETATM   14  O   UNL     1      10.505  29.953  57.726  1.00  0.00    -0.262 OA
BRANCH  12  15
HETATM   15  C   UNL     1       8.423  28.077  57.063  1.00  0.00     0.161 C 
BRANCH  15  16
HETATM   16  C   UNL     1       7.269  28.033  56.095  1.00  0.00    -0.040 A 
HETATM   17  C   UNL     1       7.495  27.977  54.712  1.00  0.00     0.010 A 
HETATM   18  C   UNL     1       6.422  27.914  53.819  1.00  0.00     0.024 A 
HETATM   19  C   UNL     1       5.116  27.916  54.304  1.00  0.00     0.034 A 
HETATM   20 CL   UNL     1       3.795  27.824  53.205  1.00  0.00    -0.084 Cl
HETATM   21  C   UNL     1       4.873  27.989  55.673  1.00  0.00     0.024 A 
HETATM   22  C   UNL     1       5.946  28.053  56.566  1.00  0.00     0.010 A 
ENDBRANCH  15  16
ENDBRANCH  12  15
ENDBRANCH   8  11
ENDBRANCH   5   7
BRANCH   4  23
HETATM   23  C   UNL     1       5.683  32.594  60.103  1.00  0.00     0.732 A 
HETATM   24  N   UNL     1       5.655  31.992  58.957  1.00  0.00    -0.067 NA
HETATM   25  C   UNL     1       4.779  32.498  58.021  1.00  0.00     0.065 A 
HETATM   26  C   UNL     1       4.054  33.620  58.187  1.00  0.00     0.036 A 
HETATM   27  C   UNL     1       4.663  31.685  56.751  1.00  0.00     0.060 C 
HETATM   28  C   UNL     1       3.141  34.211  57.152  1.00  0.00     0.046 C 
HETATM   29  C   UNL     1       4.164  34.328  59.483  1.00  0.00     0.268 A 
HETATM   30  C   UNL     1       3.301  33.563  55.775  1.00  0.00     0.005 C 
HETATM   31  C   UNL     1       3.445  32.050  55.898  1.00  0.00     0.006 C 
HETATM   32  O   UNL     1       3.602  35.394  59.699  1.00  0.00    -0.267 OA
HETATM   33  N   UNL     1       4.939  33.705  60.408  1.00  0.00    -0.152 N 
HETATM   34  H   UNL     1       5.088  34.152  61.307  1.00  0.00     0.188 HD
ENDBRANCH   4  23
TORSDOF 5
ENDMDL
MODEL 8
REMARK VINA RESULT:      -9.3      4.160      7.519
REMARK  5 active torsions:
REMARK  status: ('A' for Active; 'I' for Inactive)
REMARK    1  A    between atoms: N_4  and  C_5 
REMARK    2  A    between atoms: C_16  and  N_17 
REMARK       I    between atoms: N_17  and  C_18 
REMARK    3  A    between atoms: C_18  and  C_19 
REMARK       I    between atoms: C_19  and  N_20 
REMARK    4  A    between atoms: N_20  and  C_21 
REMARK    5  A    between atoms: C_21  and  C_22 
ROOT
HETATM    1  C   UNL     1       3.620  32.377  56.597  1.00  0.00     0.072 C 
HETATM    2  C   UNL     1       4.212  31.057  56.261  1.00  0.00     0.055 C 
HETATM    3  N   UNL     1       3.841  30.414  55.151  1.00  0.00    -0.156 NA
HETATM    4  N   UNL     1       4.616  29.272  55.136  1.00  0.00    -0.045 N 
HETATM    5  C   UNL     1       5.294  29.122  56.345  1.00  0.00     0.152 C 
HETATM    6  C   UNL     1       5.151  30.320  57.010  1.00  0.00     0.079 C 
ENDROOT
BRANCH   5   7
HETATM    7  N   UNL     1       6.024  28.029  56.773  1.00  0.00    -0.303 N 
HETATM    8  C   UNL     1       7.316  27.802  56.334  1.00  0.00     0.315 C 
HETATM    9  O   UNL     1       7.983  28.472  55.559  1.00  0.00    -0.262 OA
HETATM   10  H   UNL     1       5.541  27.204  57.118  1.00  0.00     0.171 HD
BRANCH   8  11
HETATM   11  C   UNL     1       7.864  26.450  56.846  1.00  0.00     0.310 C 
HETATM   12  N   UNL     1       7.063  25.374  56.550  1.00  0.00    -0.349 N 
HETATM   13  H   UNL     1       6.176  25.573  56.096  1.00  0.00     0.163 HD
HETATM   14  O   UNL     1       8.912  26.419  57.475  1.00  0.00    -0.262 OA
BRANCH  12  15
HETATM   15  C   UNL     1       7.386  24.032  56.958  1.00  0.00     0.161 C 
BRANCH  15  16
HETATM   16  C   UNL     1       7.603  23.119  55.779  1.00  0.00    -0.040 A 
HETATM   17  C   UNL     1       7.620  23.629  54.473  1.00  0.00     0.010 A 
HETATM   18  C   UNL     1       7.844  22.781  53.384  1.00  0.00     0.024 A 
HETATM   19  C   UNL     1       8.042  21.419  53.595  1.00  0.00     0.034 A 
HETATM   20 CL   UNL     1       8.331  20.378  52.255  1.00  0.00    -0.084 Cl
HETATM   21  C   UNL     1       8.010  20.894  54.884  1.00  0.00     0.024 A 
HETATM   22  C   UNL     1       7.785  21.741  55.973  1.00  0.00     0.010 A 
ENDBRANCH  15  16
ENDBRANCH  12  15
ENDBRANCH   8  11
ENDBRANCH   5   7
BRANCH   4  23
HETATM   23  C   UNL     1       4.753  28.587  53.905  1.00  0.00     0.732 A 
HETATM   24  N   UNL     1       4.768  29.144  52.737  1.00  0.00    -0.067 NA
HETATM   25  C   UNL     1       4.868  28.296  51.654  1.00  0.00     0.065 A 
HETATM   26  C   UNL     1       4.836  26.953  51.736  1.00  0.00     0.036 A 
HETATM   27  C   UNL     1       5.033  28.985  50.318  1.00  0.00     0.060 C 
HETATM   28  C   UNL     1       4.886  26.022  50.560  1.00  0.00     0.046 C 
HETATM   29  C   UNL     1       4.744  26.346  53.084  1.00  0.00     0.268 A 
HETATM   30  C   UNL     1       4.715  26.743  49.221  1.00  0.00     0.005 C 
HETATM   31  C   UNL     1       5.500  28.049  49.200  1.00  0.00     0.006 C 
HETATM   32  O   UNL     1       4.634  25.138  53.253  1.00  0.00    -0.267 OA
HETATM   33  N   UNL     1       4.783  27.232  54.112  1.00  0.00    -0.152 N 
HETATM   34  H   UNL     1       4.688  26.887  55.062  1.00  0.00     0.188 HD
ENDBRANCH   4  23
TORSDOF 5
ENDMDL
MODEL 9
REMARK VINA RESULT:      -9.1      4.278      9.499
REMARK  5 active torsions:
REMARK  status: ('A' for Active; 'I' for Inactive)
REMARK    1  A    between atoms: N_4  and  C_5 
REMARK    2  A    between atoms: C_16  and  N_17 
REMARK       I    between atoms: N_17  and  C_18 
REMARK    3  A    between atoms: C_18  and  C_19 
REMARK       I    between atoms: C_19  and  N_20 
REMARK    4  A    between atoms: N_20  and  C_21 
REMARK    5  A    between atoms: C_21  and  C_22 
ROOT
HETATM    1  C   UNL     1       8.001  22.799  55.683  1.00  0.00     0.072 C 
HETATM    2  C   UNL     1       7.697  24.205  55.318  1.00  0.00     0.055 C 
HETATM    3  N   UNL     1       7.530  25.129  56.268  1.00  0.00    -0.156 NA
HETATM    4  N   UNL     1       7.319  26.304  55.577  1.00  0.00    -0.045 N 
HETATM    5  C   UNL     1       7.142  26.051  54.218  1.00  0.00     0.152 C 
HETATM    6  C   UNL     1       7.518  24.739  54.026  1.00  0.00     0.079 C 
ENDROOT
BRANCH   5   7
HETATM    7  N   UNL     1       6.743  26.940  53.238  1.00  0.00    -0.303 N 
HETATM    8  C   UNL     1       5.647  26.690  52.433  1.00  0.00     0.315 C 
HETATM    9  O   UNL     1       4.900  25.721  52.446  1.00  0.00    -0.262 OA
HETATM   10  H   UNL     1       7.415  27.597  52.850  1.00  0.00     0.171 HD
BRANCH   8  11
HETATM   11  C   UNL     1       5.490  27.761  51.330  1.00  0.00     0.310 C 
HETATM   12  N   UNL     1       5.495  27.255  50.053  1.00  0.00    -0.349 N 
HETATM   13  H   UNL     1       5.665  26.258  49.956  1.00  0.00     0.163 HD
HETATM   14  O   UNL     1       5.402  28.942  51.639  1.00  0.00    -0.262 OA
BRANCH  12  15
HETATM   15  C   UNL     1       5.384  28.092  48.887  1.00  0.00     0.161 C 
BRANCH  15  16
HETATM   16  C   UNL     1       4.080  27.881  48.162  1.00  0.00    -0.040 A 
HETATM   17  C   UNL     1       3.624  26.586  47.870  1.00  0.00     0.010 A 
HETATM   18  C   UNL     1       2.403  26.395  47.218  1.00  0.00     0.024 A 
HETATM   19  C   UNL     1       1.636  27.496  46.844  1.00  0.00     0.034 A 
HETATM   20 CL   UNL     1       0.126  27.259  46.053  1.00  0.00    -0.084 Cl
HETATM   21  C   UNL     1       2.083  28.788  47.110  1.00  0.00     0.024 A 
HETATM   22  C   UNL     1       3.304  28.980  47.762  1.00  0.00     0.010 A 
ENDBRANCH  15  16
ENDBRANCH  12  15
ENDBRANCH   8  11
ENDBRANCH   5   7
BRANCH   4  23
HETATM   23  C   UNL     1       7.505  27.520  56.277  1.00  0.00     0.732 A 
HETATM   24  N   UNL     1       8.642  27.971  56.703  1.00  0.00    -0.067 NA
HETATM   25  C   UNL     1       8.607  29.159  57.402  1.00  0.00     0.065 A 
HETATM   26  C   UNL     1       7.477  29.799  57.756  1.00  0.00     0.036 A 
HETATM   27  C   UNL     1       9.962  29.731  57.754  1.00  0.00     0.060 C 
HETATM   28  C   UNL     1       7.426  31.061  58.567  1.00  0.00     0.046 C 
HETATM   29  C   UNL     1       6.188  29.217  57.316  1.00  0.00     0.268 A 
HETATM   30  C   UNL     1       8.776  31.427  59.186  1.00  0.00     0.005 C 
HETATM   31  C   UNL     1       9.912  31.196  58.196  1.00  0.00     0.006 C 
HETATM   32  O   UNL     1       5.108  29.687  57.653  1.00  0.00    -0.267 OA
HETATM   33  N   UNL     1       6.298  28.123  56.520  1.00  0.00    -0.152 N 
HETATM   34  H   UNL     1       5.453  27.652  56.212  1.00  0.00     0.188 HD
ENDBRANCH   4  23
TORSDOF 5
ENDMDL
MODEL 10
REMARK VINA RESULT:      -9.0      4.901      9.017
REMARK  5 active torsions:
REMARK  status: ('A' for Active; 'I' for Inactive)
REMARK    1  A    between atoms: N_4  and  C_5 
REMARK    2  A    between atoms: C_16  and  N_17 
REMARK       I    between atoms: N_17  and  C_18 
REMARK    3  A    between atoms: C_18  and  C_19 
REMARK       I    between atoms: C_19  and  N_20 
REMARK    4  A    between atoms: N_20  and  C_21 
REMARK    5  A    between atoms: C_21  and  C_22 
ROOT
HETATM    1  C   UNL     1       3.457  31.750  55.729  1.00  0.00     0.072 C 
HETATM    2  C   UNL     1       4.004  30.542  55.062  1.00  0.00     0.055 C 
HETATM    3  N   UNL     1       5.105  29.949  55.534  1.00  0.00    -0.156 NA
HETATM    4  N   UNL     1       5.287  28.853  54.717  1.00  0.00    -0.045 N 
HETATM    5  C   UNL     1       4.425  28.906  53.623  1.00  0.00     0.152 C 
HETATM    6  C   UNL     1       3.514  29.900  53.907  1.00  0.00     0.079 C 
ENDROOT
BRANCH   5   7
HETATM    7  N   UNL     1       4.425  28.090  52.507  1.00  0.00    -0.303 N 
HETATM    8  C   UNL     1       5.226  28.356  51.412  1.00  0.00     0.315 C 
HETATM    9  O   UNL     1       6.011  29.280  51.253  1.00  0.00    -0.262 OA
HETATM   10  H   UNL     1       3.616  27.505  52.310  1.00  0.00     0.171 HD
BRANCH   8  11
HETATM   11  C   UNL     1       4.944  27.382  50.246  1.00  0.00     0.310 C 
HETATM   12  N   UNL     1       4.409  27.983  49.132  1.00  0.00    -0.349 N 
HETATM   13  H   UNL     1       4.193  28.973  49.204  1.00  0.00     0.163 HD
HETATM   14  O   UNL     1       5.174  26.188  50.382  1.00  0.00    -0.262 OA
BRANCH  12  15
HETATM   15  C   UNL     1       4.055  27.244  47.948  1.00  0.00     0.161 C 
BRANCH  15  16
HETATM   16  C   UNL     1       2.765  27.734  47.341  1.00  0.00    -0.040 A 
HETATM   17  C   UNL     1       1.730  26.837  47.038  1.00  0.00     0.010 A 
HETATM   18  C   UNL     1       0.528  27.298  46.496  1.00  0.00     0.024 A 
HETATM   19  C   UNL     1       0.356  28.658  46.245  1.00  0.00     0.034 A 
HETATM   20 CL   UNL     1      -1.130  29.226  45.590  1.00  0.00    -0.084 Cl
HETATM   21  C   UNL     1       1.381  29.559  46.523  1.00  0.00     0.024 A 
HETATM   22  C   UNL     1       2.583  29.098  47.064  1.00  0.00     0.010 A 
ENDBRANCH  15  16
ENDBRANCH  12  15
ENDBRANCH   8  11
ENDBRANCH   5   7
BRANCH   4  23
HETATM   23  C   UNL     1       6.120  27.812  55.191  1.00  0.00     0.732 A 
HETATM   24  N   UNL     1       6.220  26.635  54.661  1.00  0.00    -0.067 NA
HETATM   25  C   UNL     1       7.058  25.745  55.299  1.00  0.00     0.065 A 
HETATM   26  C   UNL     1       7.671  25.986  56.473  1.00  0.00     0.036 A 
HETATM   27  C   UNL     1       7.267  24.434  54.574  1.00  0.00     0.060 C 
HETATM   28  C   UNL     1       8.538  25.003  57.204  1.00  0.00     0.046 C 
HETATM   29  C   UNL     1       7.476  27.318  57.092  1.00  0.00     0.268 A 
HETATM   30  C   UNL     1       8.459  23.591  56.623  1.00  0.00     0.005 C 
HETATM   31  C   UNL     1       8.458  23.627  55.100  1.00  0.00     0.006 C 
HETATM   32  O   UNL     1       7.932  27.603  58.193  1.00  0.00    -0.267 OA
HETATM   33  N   UNL     1       6.750  28.191  56.348  1.00  0.00    -0.152 N 
HETATM   34  H   UNL     1       6.548  29.111  56.728  1.00  0.00     0.188 HD
ENDBRANCH   4  23
TORSDOF 5
ENDMDL
