MODEL 1
REMARK VINA RESULT:      -8.4      0.000      0.000
REMARK  4 active torsions:
REMARK  status: ('A' for Active; 'I' for Inactive)
REMARK    1  A    between atoms: C_4  and  N_5 
REMARK       I    between atoms: N_5  and  C_6 
REMARK    2  A    between atoms: C_6  and  C_7 
REMARK    3  A    between atoms: C_7  and  O_8 
REMARK    4  A    between atoms: O_8  and  C_9 
ROOT
HETATM    1  N   UNL     1       6.742  28.888  55.239  1.00  0.00    -0.309 N 
HETATM    2  C   UNL     1       6.373  27.600  54.986  1.00  0.00     0.252 C 
HETATM    3  O   UNL     1       5.721  27.415  53.949  1.00  0.00    -0.270 OA
HETATM    4  H   UNL     1       6.373  29.528  54.550  1.00  0.00     0.170 HD
ENDROOT
BRANCH   2   5
HETATM    5  C   UNL     1       6.713  26.440  55.950  1.00  0.00     0.217 C 
HETATM    6  C   UNL     1       5.632  25.365  55.828  1.00  0.00     0.050 C 
BRANCH   5   7
HETATM    7  O   UNL     1       7.939  25.773  55.620  1.00  0.00    -0.335 OA
BRANCH   7   8
HETATM    8  C   UNL     1       7.895  24.593  54.928  1.00  0.00     0.091 A 
HETATM    9  C   UNL     1       8.186  23.425  55.655  1.00  0.00     0.069 A 
HETATM   10 CL   UNL     1       8.568  23.486  57.342  1.00  0.00    -0.081 Cl
HETATM   11  C   UNL     1       8.171  22.171  55.037  1.00  0.00     0.050 A 
HETATM   12  C   UNL     1       7.874  22.082  53.682  1.00  0.00     0.035 A 
HETATM   13 CL   UNL     1       7.858  20.545  52.910  1.00  0.00    -0.084 Cl
HETATM   14  C   UNL     1       7.597  23.231  52.944  1.00  0.00     0.026 A 
HETATM   15  C   UNL     1       7.608  24.485  53.564  1.00  0.00     0.040 A 
ENDBRANCH   7   8
ENDBRANCH   5   7
ENDBRANCH   2   5
BRANCH   1  16
HETATM   16  C   UNL     1       7.544  29.420  56.247  1.00  0.00     0.130 A 
HETATM   17  C   UNL     1       8.918  29.218  56.141  1.00  0.00     0.057 A 
HETATM   18  C   UNL     1       9.766  29.739  57.119  1.00  0.00    -0.057 A 
HETATM   19  C   UNL     1      11.253  29.571  57.031  1.00  0.00     0.048 C 
HETATM   20  C   UNL     1       9.199  30.441  58.182  1.00  0.00     0.033 A 
HETATM   21  C   UNL     1       7.819  30.591  58.228  1.00  0.00     0.033 A 
HETATM   22  N   UNL     1       6.996  30.089  57.275  1.00  0.00    -0.236 NA
HETATM   23  C   UNL     1       7.181  31.341  59.359  1.00  0.00     0.070 C 
ENDBRANCH   1  16
TORSDOF 4
ENDMDL
MODEL 2
REMARK VINA RESULT:      -8.4      9.221     11.671
REMARK  4 active torsions:
REMARK  status: ('A' for Active; 'I' for Inactive)
REMARK    1  A    between atoms: C_4  and  N_5 
REMARK       I    between atoms: N_5  and  C_6 
REMARK    2  A    between atoms: C_6  and  C_7 
REMARK    3  A    between atoms: C_7  and  O_8 
REMARK    4  A    between atoms: O_8  and  C_9 
ROOT
HETATM    1  N   UNL     1       4.725  31.909  61.325  1.00  0.00    -0.309 N 
HETATM    2  C   UNL     1       4.031  32.682  60.442  1.00  0.00     0.252 C 
HETATM    3  O   UNL     1       2.941  32.230  60.065  1.00  0.00    -0.270 OA
HETATM    4  H   UNL     1       4.258  31.031  61.505  1.00  0.00     0.170 HD
ENDROOT
BRANCH   2   5
HETATM    5  C   UNL     1       4.582  34.025  59.912  1.00  0.00     0.217 C 
HETATM    6  C   UNL     1       4.317  34.107  58.408  1.00  0.00     0.050 C 
BRANCH   5   7
HETATM    7  O   UNL     1       3.918  35.168  60.469  1.00  0.00    -0.335 OA
BRANCH   7   8
HETATM    8  C   UNL     1       4.208  35.552  61.751  1.00  0.00     0.091 A 
HETATM    9  C   UNL     1       3.208  35.333  62.716  1.00  0.00     0.069 A 
HETATM   10 CL   UNL     1       1.697  34.602  62.296  1.00  0.00    -0.081 Cl
HETATM   11  C   UNL     1       3.407  35.695  64.051  1.00  0.00     0.050 A 
HETATM   12  C   UNL     1       4.606  36.290  64.425  1.00  0.00     0.035 A 
HETATM   13 CL   UNL     1       4.860  36.745  66.065  1.00  0.00    -0.084 Cl
HETATM   14  C   UNL     1       5.602  36.527  63.479  1.00  0.00     0.026 A 
HETATM   15  C   UNL     1       5.404  36.160  62.144  1.00  0.00     0.040 A 
ENDBRANCH   7   8
ENDBRANCH   5   7
ENDBRANCH   2   5
BRANCH   1  16
HETATM   16  C   UNL     1       5.916  32.156  62.006  1.00  0.00     0.130 A 
HETATM   17  C   UNL     1       5.816  32.728  63.273  1.00  0.00     0.057 A 
HETATM   18  C   UNL     1       6.979  32.987  64.002  1.00  0.00    -0.057 A 
HETATM   19  C   UNL     1       6.919  33.574  65.380  1.00  0.00     0.048 C 
HETATM   20  C   UNL     1       8.207  32.670  63.425  1.00  0.00     0.033 A 
HETATM   21  C   UNL     1       8.227  32.114  62.152  1.00  0.00     0.033 A 
HETATM   22  N   UNL     1       7.099  31.858  61.447  1.00  0.00    -0.236 NA
HETATM   23  C   UNL     1       9.535  31.762  61.506  1.00  0.00     0.070 C 
ENDBRANCH   1  16
TORSDOF 4
ENDMDL
MODEL 3
REMARK VINA RESULT:      -8.3      1.548      2.671
REMARK  4 active torsions:
REMARK  status: ('A' for Active; 'I' for Inactive)
REMARK    1  A    between atoms: C_4  and  N_5 
REMARK       I    between atoms: N_5  and  C_6 
REMARK    2  A    between atoms: C_6  and  C_7 
REMARK    3  A    between atoms: C_7  and  O_8 
REMARK    4  A    between atoms: O_8  and  C_9 
ROOT
HETATM    1  N   UNL     1       6.360  29.376  55.216  1.00  0.00    -0.309 N 
HETATM    2  C   UNL     1       5.779  28.196  54.857  1.00  0.00     0.252 C 
HETATM    3  O   UNL     1       5.034  28.236  53.868  1.00  0.00    -0.270 OA
HETATM    4  H   UNL     1       6.046  30.143  54.637  1.00  0.00     0.170 HD
ENDROOT
BRANCH   2   5
HETATM    5  C   UNL     1       6.003  26.891  55.654  1.00  0.00     0.217 C 
HETATM    6  C   UNL     1       5.225  26.977  56.968  1.00  0.00     0.050 C 
BRANCH   5   7
HETATM    7  O   UNL     1       5.485  25.729  54.991  1.00  0.00    -0.335 OA
BRANCH   7   8
HETATM    8  C   UNL     1       6.328  24.686  54.713  1.00  0.00     0.091 A 
HETATM    9  C   UNL     1       6.453  24.322  53.360  1.00  0.00     0.069 A 
HETATM   10 CL   UNL     1       5.593  25.164  52.118  1.00  0.00    -0.081 Cl
HETATM   11  C   UNL     1       7.285  23.268  52.975  1.00  0.00     0.050 A 
HETATM   12  C   UNL     1       7.989  22.563  53.945  1.00  0.00     0.035 A 
HETATM   13 CL   UNL     1       9.012  21.260  53.483  1.00  0.00    -0.084 Cl
HETATM   14  C   UNL     1       7.865  22.902  55.291  1.00  0.00     0.026 A 
HETATM   15  C   UNL     1       7.036  23.961  55.675  1.00  0.00     0.040 A 
ENDBRANCH   7   8
ENDBRANCH   5   7
ENDBRANCH   2   5
BRANCH   1  16
HETATM   16  C   UNL     1       7.304  29.660  56.202  1.00  0.00     0.130 A 
HETATM   17  C   UNL     1       6.842  30.264  57.369  1.00  0.00     0.057 A 
HETATM   18  C   UNL     1       7.745  30.561  58.392  1.00  0.00    -0.057 A 
HETATM   19  C   UNL     1       7.289  31.185  59.677  1.00  0.00     0.048 C 
HETATM   20  C   UNL     1       9.089  30.246  58.201  1.00  0.00     0.033 A 
HETATM   21  C   UNL     1       9.477  29.656  57.004  1.00  0.00     0.033 A 
HETATM   22  N   UNL     1       8.600  29.364  56.014  1.00  0.00    -0.236 NA
HETATM   23  C   UNL     1      10.917  29.306  56.771  1.00  0.00     0.070 C 
ENDBRANCH   1  16
TORSDOF 4
ENDMDL
MODEL 4
REMARK VINA RESULT:      -8.3      9.171     11.536
REMARK  4 active torsions:
REMARK  status: ('A' for Active; 'I' for Inactive)
REMARK    1  A    between atoms: C_4  and  N_5 
REMARK       I    between atoms: N_5  and  C_6 
REMARK    2  A    between atoms: C_6  and  C_7 
REMARK    3  A    between atoms: C_7  and  O_8 
REMARK    4  A    between atoms: O_8  and  C_9 
ROOT
HETATM    1  N   UNL     1       4.695  31.916  61.315  1.00  0.00    -0.309 N 
HETATM    2  C   UNL     1       4.017  32.684  60.415  1.00  0.00     0.252 C 
HETATM    3  O   UNL     1       2.950  32.216  59.996  1.00  0.00    -0.270 OA
HETATM    4  H   UNL     1       4.238  31.028  61.471  1.00  0.00     0.170 HD
ENDROOT
BRANCH   2   5
HETATM    5  C   UNL     1       4.561  34.042  59.916  1.00  0.00     0.217 C 
HETATM    6  C   UNL     1       4.303  34.153  58.412  1.00  0.00     0.050 C 
BRANCH   5   7
HETATM    7  O   UNL     1       3.885  35.168  60.493  1.00  0.00    -0.335 OA
BRANCH   7   8
HETATM    8  C   UNL     1       4.181  35.539  61.777  1.00  0.00     0.091 A 
HETATM    9  C   UNL     1       3.184  35.313  62.744  1.00  0.00     0.069 A 
HETATM   10 CL   UNL     1       1.670  34.590  62.323  1.00  0.00    -0.081 Cl
HETATM   11  C   UNL     1       3.388  35.662  64.081  1.00  0.00     0.050 A 
HETATM   12  C   UNL     1       4.590  36.251  64.458  1.00  0.00     0.035 A 
HETATM   13 CL   UNL     1       4.851  36.689  66.100  1.00  0.00    -0.084 Cl
HETATM   14  C   UNL     1       5.583  36.495  63.511  1.00  0.00     0.026 A 
HETATM   15  C   UNL     1       5.379  36.141  62.172  1.00  0.00     0.040 A 
ENDBRANCH   7   8
ENDBRANCH   5   7
ENDBRANCH   2   5
BRANCH   1  16
HETATM   16  C   UNL     1       5.856  32.179  62.040  1.00  0.00     0.130 A 
HETATM   17  C   UNL     1       7.069  31.868  61.431  1.00  0.00     0.057 A 
HETATM   18  C   UNL     1       8.263  32.121  62.110  1.00  0.00    -0.057 A 
HETATM   19  C   UNL     1       9.593  31.830  61.483  1.00  0.00     0.048 C 
HETATM   20  C   UNL     1       8.194  32.671  63.389  1.00  0.00     0.033 A 
HETATM   21  C   UNL     1       6.946  32.942  63.936  1.00  0.00     0.033 A 
HETATM   22  N   UNL     1       5.788  32.702  63.275  1.00  0.00    -0.236 NA
HETATM   23  C   UNL     1       6.840  33.535  65.310  1.00  0.00     0.070 C 
ENDBRANCH   1  16
TORSDOF 4
ENDMDL
MODEL 5
REMARK VINA RESULT:      -8.3      4.273      6.867
REMARK  4 active torsions:
REMARK  status: ('A' for Active; 'I' for Inactive)
REMARK    1  A    between atoms: C_4  and  N_5 
REMARK       I    between atoms: N_5  and  C_6 
REMARK    2  A    between atoms: C_6  and  C_7 
REMARK    3  A    between atoms: C_7  and  O_8 
REMARK    4  A    between atoms: O_8  and  C_9 
ROOT
HETATM    1  N   UNL     1       8.182  24.480  56.648  1.00  0.00    -0.309 N 
HETATM    2  C   UNL     1       7.348  25.419  57.178  1.00  0.00     0.252 C 
HETATM    3  O   UNL     1       7.717  25.935  58.241  1.00  0.00    -0.270 OA
HETATM    4  H   UNL     1       8.976  24.301  57.247  1.00  0.00     0.170 HD
ENDROOT
BRANCH   2   5
HETATM    5  C   UNL     1       6.003  25.795  56.516  1.00  0.00     0.217 C 
HETATM    6  C   UNL     1       4.865  25.431  57.471  1.00  0.00     0.050 C 
BRANCH   5   7
HETATM    7  O   UNL     1       5.860  27.203  56.287  1.00  0.00    -0.335 OA
BRANCH   7   8
HETATM    8  C   UNL     1       5.191  27.636  55.173  1.00  0.00     0.091 A 
HETATM    9  C   UNL     1       4.490  28.850  55.291  1.00  0.00     0.069 A 
HETATM   10 CL   UNL     1       4.490  29.749  56.769  1.00  0.00    -0.081 Cl
HETATM   11  C   UNL     1       3.773  29.373  54.212  1.00  0.00     0.050 A 
HETATM   12  C   UNL     1       3.745  28.676  53.009  1.00  0.00     0.035 A 
HETATM   13 CL   UNL     1       2.861  29.308  51.675  1.00  0.00    -0.084 Cl
HETATM   14  C   UNL     1       4.422  27.466  52.879  1.00  0.00     0.026 A 
HETATM   15  C   UNL     1       5.144  26.945  53.959  1.00  0.00     0.040 A 
ENDBRANCH   7   8
ENDBRANCH   5   7
ENDBRANCH   2   5
BRANCH   1  16
HETATM   16  C   UNL     1       8.116  23.785  55.441  1.00  0.00     0.130 A 
HETATM   17  C   UNL     1       7.914  24.537  54.286  1.00  0.00     0.057 A 
HETATM   18  C   UNL     1       7.850  23.890  53.049  1.00  0.00    -0.057 A 
HETATM   19  C   UNL     1       7.663  24.660  51.777  1.00  0.00     0.048 C 
HETATM   20  C   UNL     1       7.982  22.503  53.019  1.00  0.00     0.033 A 
HETATM   21  C   UNL     1       8.168  21.820  54.215  1.00  0.00     0.033 A 
HETATM   22  N   UNL     1       8.235  22.448  55.414  1.00  0.00    -0.236 NA
HETATM   23  C   UNL     1       8.314  20.327  54.213  1.00  0.00     0.070 C 
ENDBRANCH   1  16
TORSDOF 4
ENDMDL
MODEL 6
REMARK VINA RESULT:      -8.2      3.376      5.415
REMARK  4 active torsions:
REMARK  status: ('A' for Active; 'I' for Inactive)
REMARK    1  A    between atoms: C_4  and  N_5 
REMARK       I    between atoms: N_5  and  C_6 
REMARK    2  A    between atoms: C_6  and  C_7 
REMARK    3  A    between atoms: C_7  and  O_8 
REMARK    4  A    between atoms: O_8  and  C_9 
ROOT
HETATM    1  N   UNL     1       4.666  27.712  53.166  1.00  0.00    -0.309 N 
HETATM    2  C   UNL     1       5.523  27.202  54.096  1.00  0.00     0.252 C 
HETATM    3  O   UNL     1       5.029  26.929  55.198  1.00  0.00    -0.270 OA
HETATM    4  H   UNL     1       3.738  27.845  53.542  1.00  0.00     0.170 HD
ENDROOT
BRANCH   2   5
HETATM    5  C   UNL     1       7.030  27.009  53.811  1.00  0.00     0.217 C 
HETATM    6  C   UNL     1       7.760  28.320  54.109  1.00  0.00     0.050 C 
BRANCH   5   7
HETATM    7  O   UNL     1       7.647  26.037  54.666  1.00  0.00    -0.335 OA
BRANCH   7   8
HETATM    8  C   UNL     1       7.716  24.733  54.256  1.00  0.00     0.091 A 
HETATM    9  C   UNL     1       7.756  23.756  55.267  1.00  0.00     0.069 A 
HETATM   10 CL   UNL     1       7.707  24.191  56.941  1.00  0.00    -0.081 Cl
HETATM   11  C   UNL     1       7.831  22.397  54.951  1.00  0.00     0.050 A 
HETATM   12  C   UNL     1       7.878  22.008  53.617  1.00  0.00     0.035 A 
HETATM   13 CL   UNL     1       7.975  20.338  53.215  1.00  0.00    -0.084 Cl
HETATM   14  C   UNL     1       7.853  22.963  52.603  1.00  0.00     0.026 A 
HETATM   15  C   UNL     1       7.773  24.323  52.920  1.00  0.00     0.040 A 
ENDBRANCH   7   8
ENDBRANCH   5   7
ENDBRANCH   2   5
BRANCH   1  16
HETATM   16  C   UNL     1       4.869  28.033  51.825  1.00  0.00     0.130 A 
HETATM   17  C   UNL     1       5.279  29.333  51.538  1.00  0.00     0.057 A 
HETATM   18  C   UNL     1       5.506  29.704  50.211  1.00  0.00    -0.057 A 
HETATM   19  C   UNL     1       5.976  31.083  49.857  1.00  0.00     0.048 C 
HETATM   20  C   UNL     1       5.302  28.753  49.213  1.00  0.00     0.033 A 
HETATM   21  C   UNL     1       4.879  27.480  49.576  1.00  0.00     0.033 A 
HETATM   22  N   UNL     1       4.665  27.119  50.864  1.00  0.00    -0.236 NA
HETATM   23  C   UNL     1       4.652  26.435  48.523  1.00  0.00     0.070 C 
ENDBRANCH   1  16
TORSDOF 4
ENDMDL
MODEL 7
REMARK VINA RESULT:      -8.1      5.622      9.044
REMARK  4 active torsions:
REMARK  status: ('A' for Active; 'I' for Inactive)
REMARK    1  A    between atoms: C_4  and  N_5 
REMARK       I    between atoms: N_5  and  C_6 
REMARK    2  A    between atoms: C_6  and  C_7 
REMARK    3  A    between atoms: C_7  and  O_8 
REMARK    4  A    between atoms: O_8  and  C_9 
ROOT
HETATM    1  N   UNL     1       9.164  30.429  57.971  1.00  0.00    -0.309 N 
HETATM    2  C   UNL     1       9.430  31.227  59.044  1.00  0.00     0.252 C 
HETATM    3  O   UNL     1      10.382  32.009  58.917  1.00  0.00    -0.270 OA
HETATM    4  H   UNL     1       9.837  30.561  57.228  1.00  0.00     0.170 HD
ENDROOT
BRANCH   2   5
HETATM    5  C   UNL     1       8.619  31.140  60.357  1.00  0.00     0.217 C 
HETATM    6  C   UNL     1       9.487  30.480  61.429  1.00  0.00     0.050 C 
BRANCH   5   7
HETATM    7  O   UNL     1       8.275  32.424  60.894  1.00  0.00    -0.335 OA
BRANCH   7   8
HETATM    8  C   UNL     1       6.974  32.680  61.237  1.00  0.00     0.091 A 
HETATM    9  C   UNL     1       6.715  32.910  62.600  1.00  0.00     0.069 A 
HETATM   10 CL   UNL     1       7.985  32.882  63.775  1.00  0.00    -0.081 Cl
HETATM   11  C   UNL     1       5.419  33.176  63.050  1.00  0.00     0.050 A 
HETATM   12  C   UNL     1       4.371  33.201  62.138  1.00  0.00     0.035 A 
HETATM   13 CL   UNL     1       2.771  33.522  62.681  1.00  0.00    -0.084 Cl
HETATM   14  C   UNL     1       4.608  32.961  60.785  1.00  0.00     0.026 A 
HETATM   15  C   UNL     1       5.906  32.700  60.335  1.00  0.00     0.040 A 
ENDBRANCH   7   8
ENDBRANCH   5   7
ENDBRANCH   2   5
BRANCH   1  16
HETATM   16  C   UNL     1       8.130  29.522  57.748  1.00  0.00     0.130 A 
HETATM   17  C   UNL     1       6.863  30.049  57.511  1.00  0.00     0.057 A 
HETATM   18  C   UNL     1       5.793  29.184  57.272  1.00  0.00    -0.057 A 
HETATM   19  C   UNL     1       4.418  29.707  56.984  1.00  0.00     0.048 C 
HETATM   20  C   UNL     1       6.034  27.811  57.291  1.00  0.00     0.033 A 
HETATM   21  C   UNL     1       7.323  27.360  57.548  1.00  0.00     0.033 A 
HETATM   22  N   UNL     1       8.361  28.200  57.774  1.00  0.00    -0.236 NA
HETATM   23  C   UNL     1       7.612  25.888  57.574  1.00  0.00     0.070 C 
ENDBRANCH   1  16
TORSDOF 4
ENDMDL
MODEL 8
REMARK VINA RESULT:      -7.9      1.841      2.874
REMARK  4 active torsions:
REMARK  status: ('A' for Active; 'I' for Inactive)
REMARK    1  A    between atoms: C_4  and  N_5 
REMARK       I    between atoms: N_5  and  C_6 
REMARK    2  A    between atoms: C_6  and  C_7 
REMARK    3  A    between atoms: C_7  and  O_8 
REMARK    4  A    between atoms: O_8  and  C_9 
ROOT
HETATM    1  N   UNL     1       6.048  28.525  53.378  1.00  0.00    -0.309 N 
HETATM    2  C   UNL     1       5.979  27.329  52.727  1.00  0.00     0.252 C 
HETATM    3  O   UNL     1       5.805  27.386  51.503  1.00  0.00    -0.270 OA
HETATM    4  H   UNL     1       5.889  29.303  52.753  1.00  0.00     0.170 HD
ENDROOT
BRANCH   2   5
HETATM    5  C   UNL     1       6.075  25.978  53.473  1.00  0.00     0.217 C 
HETATM    6  C   UNL     1       5.156  24.969  52.784  1.00  0.00     0.050 C 
BRANCH   5   7
HETATM    7  O   UNL     1       7.383  25.391  53.412  1.00  0.00    -0.335 OA
BRANCH   7   8
HETATM    8  C   UNL     1       7.566  24.117  53.877  1.00  0.00     0.091 A 
HETATM    9  C   UNL     1       7.647  23.960  55.272  1.00  0.00     0.069 A 
HETATM   10 CL   UNL     1       7.506  25.314  56.340  1.00  0.00    -0.081 Cl
HETATM   11  C   UNL     1       7.838  22.699  55.843  1.00  0.00     0.050 A 
HETATM   12  C   UNL     1       7.961  21.587  55.018  1.00  0.00     0.035 A 
HETATM   13 CL   UNL     1       8.202  20.030  55.709  1.00  0.00    -0.084 Cl
HETATM   14  C   UNL     1       7.898  21.726  53.633  1.00  0.00     0.026 A 
HETATM   15  C   UNL     1       7.702  22.989  53.062  1.00  0.00     0.040 A 
ENDBRANCH   7   8
ENDBRANCH   5   7
ENDBRANCH   2   5
BRANCH   1  16
HETATM   16  C   UNL     1       6.323  28.817  54.713  1.00  0.00     0.130 A 
HETATM   17  C   UNL     1       5.279  29.330  55.480  1.00  0.00     0.057 A 
HETATM   18  C   UNL     1       5.500  29.630  56.826  1.00  0.00    -0.057 A 
HETATM   19  C   UNL     1       4.399  30.157  57.696  1.00  0.00     0.048 C 
HETATM   20  C   UNL     1       6.771  29.413  57.353  1.00  0.00     0.033 A 
HETATM   21  C   UNL     1       7.766  28.911  56.523  1.00  0.00     0.033 A 
HETATM   22  N   UNL     1       7.550  28.615  55.219  1.00  0.00    -0.236 NA
HETATM   23  C   UNL     1       9.143  28.666  57.064  1.00  0.00     0.070 C 
ENDBRANCH   1  16
TORSDOF 4
ENDMDL
MODEL 9
REMARK VINA RESULT:      -7.8      3.439      6.426
REMARK  4 active torsions:
REMARK  status: ('A' for Active; 'I' for Inactive)
REMARK    1  A    between atoms: C_4  and  N_5 
REMARK       I    between atoms: N_5  and  C_6 
REMARK    2  A    between atoms: C_6  and  C_7 
REMARK    3  A    between atoms: C_7  and  O_8 
REMARK    4  A    between atoms: O_8  and  C_9 
ROOT
HETATM    1  N   UNL     1       5.017  25.286  54.025  1.00  0.00    -0.309 N 
HETATM    2  C   UNL     1       4.836  26.387  53.241  1.00  0.00     0.252 C 
HETATM    3  O   UNL     1       3.669  26.782  53.120  1.00  0.00    -0.270 OA
HETATM    4  H   UNL     1       4.138  24.913  54.358  1.00  0.00     0.170 HD
ENDROOT
BRANCH   2   5
HETATM    5  C   UNL     1       6.010  27.083  52.516  1.00  0.00     0.217 C 
HETATM    6  C   UNL     1       5.647  27.249  51.039  1.00  0.00     0.050 C 
BRANCH   5   7
HETATM    7  O   UNL     1       6.257  28.415  52.989  1.00  0.00    -0.335 OA
BRANCH   7   8
HETATM    8  C   UNL     1       6.725  28.596  54.262  1.00  0.00     0.091 A 
HETATM    9  C   UNL     1       5.842  29.192  55.180  1.00  0.00     0.069 A 
HETATM   10 CL   UNL     1       4.241  29.657  54.716  1.00  0.00    -0.081 Cl
HETATM   11  C   UNL     1       6.228  29.424  56.503  1.00  0.00     0.050 A 
HETATM   12  C   UNL     1       7.509  29.070  56.912  1.00  0.00     0.035 A 
HETATM   13 CL   UNL     1       7.997  29.355  58.536  1.00  0.00    -0.084 Cl
HETATM   14  C   UNL     1       8.402  28.492  56.012  1.00  0.00     0.026 A 
HETATM   15  C   UNL     1       8.012  28.256  54.689  1.00  0.00     0.040 A 
ENDBRANCH   7   8
ENDBRANCH   5   7
ENDBRANCH   2   5
BRANCH   1  16
HETATM   16  C   UNL     1       6.185  24.649  54.439  1.00  0.00     0.130 A 
HETATM   17  C   UNL     1       6.774  25.102  55.617  1.00  0.00     0.057 A 
HETATM   18  C   UNL     1       7.940  24.491  56.081  1.00  0.00    -0.057 A 
HETATM   19  C   UNL     1       8.593  24.927  57.358  1.00  0.00     0.048 C 
HETATM   20  C   UNL     1       8.483  23.446  55.335  1.00  0.00     0.033 A 
HETATM   21  C   UNL     1       7.846  23.057  54.162  1.00  0.00     0.033 A 
HETATM   22  N   UNL     1       6.712  23.647  53.715  1.00  0.00    -0.236 NA
HETATM   23  C   UNL     1       8.407  21.936  53.339  1.00  0.00     0.070 C 
ENDBRANCH   1  16
TORSDOF 4
ENDMDL
MODEL 10
REMARK VINA RESULT:      -7.8      3.487      4.504
REMARK  4 active torsions:
REMARK  status: ('A' for Active; 'I' for Inactive)
REMARK    1  A    between atoms: C_4  and  N_5 
REMARK       I    between atoms: N_5  and  C_6 
REMARK    2  A    between atoms: C_6  and  C_7 
REMARK    3  A    between atoms: C_7  and  O_8 
REMARK    4  A    between atoms: O_8  and  C_9 
ROOT
HETATM    1  N   UNL     1       4.291  27.157  56.642  1.00  0.00    -0.309 N 
HETATM    2  C   UNL     1       5.253  26.207  56.823  1.00  0.00     0.252 C 
HETATM    3  O   UNL     1       4.879  25.147  57.342  1.00  0.00    -0.270 OA
HETATM    4  H   UNL     1       3.400  26.866  57.019  1.00  0.00     0.170 HD
ENDROOT
BRANCH   2   5
HETATM    5  C   UNL     1       6.730  26.447  56.438  1.00  0.00     0.217 C 
HETATM    6  C   UNL     1       7.616  26.083  57.631  1.00  0.00     0.050 C 
BRANCH   5   7
HETATM    7  O   UNL     1       7.180  25.601  55.370  1.00  0.00    -0.335 OA
BRANCH   7   8
HETATM    8  C   UNL     1       6.563  25.678  54.150  1.00  0.00     0.091 A 
HETATM    9  C   UNL     1       6.858  26.806  53.364  1.00  0.00     0.069 A 
HETATM   10 CL   UNL     1       7.958  28.024  53.914  1.00  0.00    -0.081 Cl
HETATM   11  C   UNL     1       6.275  26.978  52.106  1.00  0.00     0.050 A 
HETATM   12  C   UNL     1       5.382  26.024  51.632  1.00  0.00     0.035 A 
HETATM   13 CL   UNL     1       4.653  26.227  50.086  1.00  0.00    -0.084 Cl
HETATM   14  C   UNL     1       5.067  24.907  52.403  1.00  0.00     0.026 A 
HETATM   15  C   UNL     1       5.655  24.734  53.661  1.00  0.00     0.040 A 
ENDBRANCH   7   8
ENDBRANCH   5   7
ENDBRANCH   2   5
BRANCH   1  16
HETATM   16  C   UNL     1       4.351  28.400  56.016  1.00  0.00     0.130 A 
HETATM   17  C   UNL     1       4.043  28.443  54.658  1.00  0.00     0.057 A 
HETATM   18  C   UNL     1       4.078  29.666  53.985  1.00  0.00    -0.057 A 
HETATM   19  C   UNL     1       3.727  29.765  52.531  1.00  0.00     0.048 C 
HETATM   20  C   UNL     1       4.432  30.807  54.702  1.00  0.00     0.033 A 
HETATM   21  C   UNL     1       4.739  30.684  56.051  1.00  0.00     0.033 A 
HETATM   22  N   UNL     1       4.700  29.498  56.706  1.00  0.00    -0.236 NA
HETATM   23  C   UNL     1       5.123  31.895  56.849  1.00  0.00     0.070 C 
ENDBRANCH   1  16
TORSDOF 4
ENDMDL
