MODEL 1
REMARK VINA RESULT:      -8.6      0.000      0.000
REMARK  6 active torsions:
REMARK  status: ('A' for Active; 'I' for Inactive)
REMARK    1  A    between atoms: C_2  and  C_3 
REMARK    2  A    between atoms: C_2  and  C_9 
REMARK    3  A    between atoms: C_9  and  N_10 
REMARK       I    between atoms: N_10  and  C_11 
REMARK    4  A    between atoms: C_11  and  C_12 
REMARK    5  A    between atoms: C_13  and  O_14 
REMARK    6  A    between atoms: O_14  and  C_15 
ROOT
HETATM    1  N   UNL     1       7.974  25.875  56.529  1.00  0.00    -0.356 N 
HETATM    2  C   UNL     1       7.038  24.894  56.291  1.00  0.00     0.254 C 
HETATM    3  O   UNL     1       5.998  24.802  56.936  1.00  0.00    -0.268 OA
HETATM    4  H   UNL     1       8.831  25.869  55.986  1.00  0.00     0.162 HD
ENDROOT
BRANCH   2   5
HETATM    5  C   UNL     1       7.337  23.895  55.212  1.00  0.00     0.067 A 
HETATM    6  C   UNL     1       7.285  24.162  53.829  1.00  0.00     0.090 A 
HETATM    7  C   UNL     1       7.636  23.155  52.916  1.00  0.00     0.040 A 
HETATM    8  C   UNL     1       7.980  21.878  53.364  1.00  0.00     0.026 A 
HETATM    9  C   UNL     1       7.991  21.604  54.727  1.00  0.00     0.035 A 
HETATM   10 CL   UNL     1       8.412  20.030  55.277  1.00  0.00    -0.084 Cl
HETATM   11  C   UNL     1       7.677  22.600  55.647  1.00  0.00     0.043 A 
BRANCH   6  12
HETATM   12  O   UNL     1       6.949  25.425  53.408  1.00  0.00    -0.289 OA
BRANCH  12  13
HETATM   13  C   UNL     1       5.603  25.572  52.970  1.00  0.00     0.505 C 
HETATM   14  F   UNL     1       5.562  25.157  51.679  1.00  0.00    -0.184 F 
HETATM   15  F   UNL     1       4.822  24.718  53.676  1.00  0.00    -0.184 F 
ENDBRANCH  12  13
ENDBRANCH   6  12
ENDBRANCH   2   5
BRANCH   1  16
HETATM   16  C   UNL     1       7.798  26.912  57.531  1.00  0.00     0.136 C 
BRANCH  16  17
HETATM   17  C   UNL     1       7.542  28.331  56.930  1.00  0.00    -0.004 C 
HETATM   18  C   UNL     1       6.112  28.765  57.334  1.00  0.00     0.021 C 
HETATM   19  C   UNL     1       7.557  28.203  55.389  1.00  0.00     0.021 C 
BRANCH  17  20
HETATM   20  C   UNL     1       8.622  29.351  57.330  1.00  0.00    -0.046 A 
HETATM   21  C   UNL     1       8.407  30.349  58.290  1.00  0.00     0.027 A 
HETATM   22  C   UNL     1       9.425  31.248  58.584  1.00  0.00     0.116 A 
HETATM   23  N   UNL     1      10.639  31.233  58.001  1.00  0.00    -0.273 NA
HETATM   24  C   UNL     1      10.839  30.277  57.072  1.00  0.00     0.116 A 
HETATM   25  C   UNL     1       9.880  29.342  56.706  1.00  0.00     0.027 A 
ENDBRANCH  17  20
ENDBRANCH  16  17
ENDBRANCH   1  16
TORSDOF 6
ENDMDL
MODEL 2
REMARK VINA RESULT:      -8.5      2.258      3.240
REMARK  6 active torsions:
REMARK  status: ('A' for Active; 'I' for Inactive)
REMARK    1  A    between atoms: C_2  and  C_3 
REMARK    2  A    between atoms: C_2  and  C_9 
REMARK    3  A    between atoms: C_9  and  N_10 
REMARK       I    between atoms: N_10  and  C_11 
REMARK    4  A    between atoms: C_11  and  C_12 
REMARK    5  A    between atoms: C_13  and  O_14 
REMARK    6  A    between atoms: O_14  and  C_15 
ROOT
HETATM    1  N   UNL     1       6.508  25.934  54.708  1.00  0.00    -0.356 N 
HETATM    2  C   UNL     1       7.417  25.165  54.017  1.00  0.00     0.254 C 
HETATM    3  O   UNL     1       8.032  25.585  53.042  1.00  0.00    -0.268 OA
HETATM    4  H   UNL     1       6.004  25.512  55.480  1.00  0.00     0.162 HD
ENDROOT
BRANCH   2   5
HETATM    5  C   UNL     1       7.626  23.753  54.478  1.00  0.00     0.067 A 
HETATM    6  C   UNL     1       7.621  23.336  55.825  1.00  0.00     0.090 A 
HETATM    7  C   UNL     1       7.780  21.974  56.128  1.00  0.00     0.040 A 
HETATM    8  C   UNL     1       7.998  21.041  55.112  1.00  0.00     0.026 A 
HETATM    9  C   UNL     1       8.043  21.460  53.787  1.00  0.00     0.035 A 
HETATM   10 CL   UNL     1       8.315  20.309  52.538  1.00  0.00    -0.084 Cl
HETATM   11  C   UNL     1       7.856  22.801  53.467  1.00  0.00     0.043 A 
BRANCH   6  12
HETATM   12  O   UNL     1       7.401  24.267  56.809  1.00  0.00    -0.289 OA
BRANCH  12  13
HETATM   13  C   UNL     1       8.572  24.717  57.481  1.00  0.00     0.505 C 
HETATM   14  F   UNL     1       9.632  24.304  56.743  1.00  0.00    -0.184 F 
HETATM   15  F   UNL     1       8.590  26.072  57.459  1.00  0.00    -0.184 F 
ENDBRANCH  12  13
ENDBRANCH   6  12
ENDBRANCH   2   5
BRANCH   1  16
HETATM   16  C   UNL     1       6.227  27.321  54.375  1.00  0.00     0.136 C 
BRANCH  16  17
HETATM   17  C   UNL     1       5.886  28.208  55.615  1.00  0.00    -0.004 C 
HETATM   18  C   UNL     1       4.973  27.381  56.552  1.00  0.00     0.021 C 
HETATM   19  C   UNL     1       5.053  29.414  55.120  1.00  0.00     0.021 C 
BRANCH  17  20
HETATM   20  C   UNL     1       7.140  28.757  56.317  1.00  0.00    -0.046 A 
HETATM   21  C   UNL     1       8.360  28.947  55.654  1.00  0.00     0.027 A 
HETATM   22  C   UNL     1       9.456  29.428  56.359  1.00  0.00     0.116 A 
HETATM   23  N   UNL     1       9.435  29.736  57.671  1.00  0.00    -0.273 NA
HETATM   24  C   UNL     1       8.262  29.545  58.306  1.00  0.00     0.116 A 
HETATM   25  C   UNL     1       7.117  29.060  57.688  1.00  0.00     0.027 A 
ENDBRANCH  17  20
ENDBRANCH  16  17
ENDBRANCH   1  16
TORSDOF 6
ENDMDL
MODEL 3
REMARK VINA RESULT:      -8.1      2.533      3.234
REMARK  6 active torsions:
REMARK  status: ('A' for Active; 'I' for Inactive)
REMARK    1  A    between atoms: C_2  and  C_3 
REMARK    2  A    between atoms: C_2  and  C_9 
REMARK    3  A    between atoms: C_9  and  N_10 
REMARK       I    between atoms: N_10  and  C_11 
REMARK    4  A    between atoms: C_11  and  C_12 
REMARK    5  A    between atoms: C_13  and  O_14 
REMARK    6  A    between atoms: O_14  and  C_15 
ROOT
HETATM    1  N   UNL     1       8.003  26.589  56.784  1.00  0.00    -0.356 N 
HETATM    2  C   UNL     1       7.268  25.439  56.609  1.00  0.00     0.254 C 
HETATM    3  O   UNL     1       6.351  25.119  57.360  1.00  0.00    -0.268 OA
HETATM    4  H   UNL     1       8.773  26.773  56.151  1.00  0.00     0.162 HD
ENDROOT
BRANCH   2   5
HETATM    5  C   UNL     1       7.638  24.545  55.463  1.00  0.00     0.067 A 
HETATM    6  C   UNL     1       8.193  23.255  55.594  1.00  0.00     0.090 A 
HETATM    7  C   UNL     1       8.452  22.494  54.443  1.00  0.00     0.040 A 
HETATM    8  C   UNL     1       8.217  23.024  53.173  1.00  0.00     0.026 A 
HETATM    9  C   UNL     1       7.708  24.312  53.045  1.00  0.00     0.035 A 
HETATM   10 CL   UNL     1       7.423  24.963  51.478  1.00  0.00    -0.084 Cl
HETATM   11  C   UNL     1       7.416  25.067  54.175  1.00  0.00     0.043 A 
BRANCH   6  12
HETATM   12  O   UNL     1       8.412  22.750  56.851  1.00  0.00    -0.289 OA
BRANCH  12  13
HETATM   13  C   UNL     1       8.399  21.330  56.938  1.00  0.00     0.505 C 
HETATM   14  F   UNL     1       8.339  21.017  58.256  1.00  0.00    -0.184 F 
HETATM   15  F   UNL     1       7.251  20.873  56.380  1.00  0.00    -0.184 F 
ENDBRANCH  12  13
ENDBRANCH   6  12
ENDBRANCH   2   5
BRANCH   1  16
HETATM   16  C   UNL     1       7.735  27.549  57.843  1.00  0.00     0.136 C 
BRANCH  16  17
HETATM   17  C   UNL     1       7.259  28.943  57.324  1.00  0.00    -0.004 C 
HETATM   18  C   UNL     1       5.713  28.975  57.400  1.00  0.00     0.021 C 
HETATM   19  C   UNL     1       7.640  29.047  55.828  1.00  0.00     0.021 C 
BRANCH  17  20
HETATM   20  C   UNL     1       7.929  30.114  58.064  1.00  0.00    -0.046 A 
HETATM   21  C   UNL     1       7.213  31.015  58.864  1.00  0.00     0.027 A 
HETATM   22  C   UNL     1       7.884  32.061  59.486  1.00  0.00     0.116 A 
HETATM   23  N   UNL     1       9.208  32.281  59.377  1.00  0.00    -0.273 NA
HETATM   24  C   UNL     1       9.891  31.417  58.601  1.00  0.00     0.116 A 
HETATM   25  C   UNL     1       9.307  30.349  57.933  1.00  0.00     0.027 A 
ENDBRANCH  17  20
ENDBRANCH  16  17
ENDBRANCH   1  16
TORSDOF 6
ENDMDL
MODEL 4
REMARK VINA RESULT:      -8.1      2.384      3.605
REMARK  6 active torsions:
REMARK  status: ('A' for Active; 'I' for Inactive)
REMARK    1  A    between atoms: C_2  and  C_3 
REMARK    2  A    between atoms: C_2  and  C_9 
REMARK    3  A    between atoms: C_9  and  N_10 
REMARK       I    between atoms: N_10  and  C_11 
REMARK    4  A    between atoms: C_11  and  C_12 
REMARK    5  A    between atoms: C_13  and  O_14 
REMARK    6  A    between atoms: O_14  and  C_15 
ROOT
HETATM    1  N   UNL     1       5.614  25.665  54.145  1.00  0.00    -0.356 N 
HETATM    2  C   UNL     1       6.331  24.883  53.268  1.00  0.00     0.254 C 
HETATM    3  O   UNL     1       6.189  24.953  52.051  1.00  0.00    -0.268 OA
HETATM    4  H   UNL     1       5.750  25.527  55.140  1.00  0.00     0.162 HD
ENDROOT
BRANCH   2   5
HETATM    5  C   UNL     1       7.297  23.894  53.849  1.00  0.00     0.067 A 
HETATM    6  C   UNL     1       7.997  24.067  55.061  1.00  0.00     0.090 A 
HETATM    7  C   UNL     1       8.839  23.044  55.526  1.00  0.00     0.040 A 
HETATM    8  C   UNL     1       9.033  21.886  54.771  1.00  0.00     0.026 A 
HETATM    9  C   UNL     1       8.374  21.734  53.556  1.00  0.00     0.035 A 
HETATM   10 CL   UNL     1       8.617  20.306  52.628  1.00  0.00    -0.084 Cl
HETATM   11  C   UNL     1       7.511  22.723  53.097  1.00  0.00     0.043 A 
BRANCH   6  12
HETATM   12  O   UNL     1       7.790  25.211  55.790  1.00  0.00    -0.289 OA
BRANCH  12  13
HETATM   13  C   UNL     1       7.474  25.000  57.162  1.00  0.00     0.505 C 
HETATM   14  F   UNL     1       8.268  25.832  57.881  1.00  0.00    -0.184 F 
HETATM   15  F   UNL     1       6.197  25.402  57.378  1.00  0.00    -0.184 F 
ENDBRANCH  12  13
ENDBRANCH   6  12
ENDBRANCH   2   5
BRANCH   1  16
HETATM   16  C   UNL     1       4.660  26.673  53.711  1.00  0.00     0.136 C 
BRANCH  16  17
HETATM   17  C   UNL     1       5.199  28.135  53.817  1.00  0.00    -0.004 C 
HETATM   18  C   UNL     1       3.984  29.092  53.771  1.00  0.00     0.021 C 
HETATM   19  C   UNL     1       6.047  28.420  52.555  1.00  0.00     0.021 C 
BRANCH  17  20
HETATM   20  C   UNL     1       6.097  28.351  55.047  1.00  0.00    -0.046 A 
HETATM   21  C   UNL     1       5.587  28.472  56.348  1.00  0.00     0.027 A 
HETATM   22  C   UNL     1       6.459  28.687  57.409  1.00  0.00     0.116 A 
HETATM   23  N   UNL     1       7.796  28.789  57.279  1.00  0.00    -0.273 NA
HETATM   24  C   UNL     1       8.281  28.679  56.027  1.00  0.00     0.116 A 
HETATM   25  C   UNL     1       7.488  28.473  54.906  1.00  0.00     0.027 A 
ENDBRANCH  17  20
ENDBRANCH  16  17
ENDBRANCH   1  16
TORSDOF 6
ENDMDL
MODEL 5
REMARK VINA RESULT:      -8.0      1.926      3.282
REMARK  6 active torsions:
REMARK  status: ('A' for Active; 'I' for Inactive)
REMARK    1  A    between atoms: C_2  and  C_3 
REMARK    2  A    between atoms: C_2  and  C_9 
REMARK    3  A    between atoms: C_9  and  N_10 
REMARK       I    between atoms: N_10  and  C_11 
REMARK    4  A    between atoms: C_11  and  C_12 
REMARK    5  A    between atoms: C_13  and  O_14 
REMARK    6  A    between atoms: O_14  and  C_15 
ROOT
HETATM    1  N   UNL     1       7.820  25.587  56.796  1.00  0.00    -0.356 N 
HETATM    2  C   UNL     1       6.925  24.714  56.221  1.00  0.00     0.254 C 
HETATM    3  O   UNL     1       5.712  24.807  56.384  1.00  0.00    -0.268 OA
HETATM    4  H   UNL     1       8.811  25.428  56.654  1.00  0.00     0.162 HD
ENDROOT
BRANCH   2   5
HETATM    5  C   UNL     1       7.481  23.597  55.389  1.00  0.00     0.067 A 
HETATM    6  C   UNL     1       7.418  23.532  53.981  1.00  0.00     0.090 A 
HETATM    7  C   UNL     1       8.020  22.455  53.311  1.00  0.00     0.040 A 
HETATM    8  C   UNL     1       8.629  21.424  54.027  1.00  0.00     0.026 A 
HETATM    9  C   UNL     1       8.654  21.468  55.417  1.00  0.00     0.035 A 
HETATM   10 CL   UNL     1       9.403  20.193  56.296  1.00  0.00    -0.084 Cl
HETATM   11  C   UNL     1       8.091  22.543  56.095  1.00  0.00     0.043 A 
BRANCH   6  12
HETATM   12  O   UNL     1       6.819  24.558  53.295  1.00  0.00    -0.289 OA
BRANCH  12  13
HETATM   13  C   UNL     1       7.355  24.808  52.000  1.00  0.00     0.505 C 
HETATM   14  F   UNL     1       6.444  25.563  51.337  1.00  0.00    -0.184 F 
HETATM   15  F   UNL     1       8.467  25.572  52.132  1.00  0.00    -0.184 F 
ENDBRANCH  12  13
ENDBRANCH   6  12
ENDBRANCH   2   5
BRANCH   1  16
HETATM   16  C   UNL     1       7.412  26.720  57.609  1.00  0.00     0.136 C 
BRANCH  16  17
HETATM   17  C   UNL     1       7.523  28.094  56.874  1.00  0.00    -0.004 C 
HETATM   18  C   UNL     1       9.026  28.405  56.674  1.00  0.00     0.021 C 
HETATM   19  C   UNL     1       6.958  29.183  57.816  1.00  0.00     0.021 C 
BRANCH  17  20
HETATM   20  C   UNL     1       6.714  28.136  55.566  1.00  0.00    -0.046 A 
HETATM   21  C   UNL     1       7.316  28.129  54.300  1.00  0.00     0.027 A 
HETATM   22  C   UNL     1       6.520  28.189  53.162  1.00  0.00     0.116 A 
HETATM   23  N   UNL     1       5.175  28.255  53.183  1.00  0.00    -0.273 NA
HETATM   24  C   UNL     1       4.601  28.268  54.402  1.00  0.00     0.116 A 
HETATM   25  C   UNL     1       5.313  28.221  55.593  1.00  0.00     0.027 A 
ENDBRANCH  17  20
ENDBRANCH  16  17
ENDBRANCH   1  16
TORSDOF 6
ENDMDL
MODEL 6
REMARK VINA RESULT:      -7.9      1.318      1.799
REMARK  6 active torsions:
REMARK  status: ('A' for Active; 'I' for Inactive)
REMARK    1  A    between atoms: C_2  and  C_3 
REMARK    2  A    between atoms: C_2  and  C_9 
REMARK    3  A    between atoms: C_9  and  N_10 
REMARK       I    between atoms: N_10  and  C_11 
REMARK    4  A    between atoms: C_11  and  C_12 
REMARK    5  A    between atoms: C_13  and  O_14 
REMARK    6  A    between atoms: O_14  and  C_15 
ROOT
HETATM    1  N   UNL     1       7.692  26.516  56.770  1.00  0.00    -0.356 N 
HETATM    2  C   UNL     1       8.134  25.257  57.107  1.00  0.00     0.254 C 
HETATM    3  O   UNL     1       8.654  25.006  58.190  1.00  0.00    -0.268 OA
HETATM    4  H   UNL     1       7.310  26.663  55.843  1.00  0.00     0.162 HD
ENDROOT
BRANCH   2   5
HETATM    5  C   UNL     1       7.988  24.171  56.082  1.00  0.00     0.067 A 
HETATM    6  C   UNL     1       7.525  24.364  54.764  1.00  0.00     0.090 A 
HETATM    7  C   UNL     1       7.479  23.273  53.881  1.00  0.00     0.040 A 
HETATM    8  C   UNL     1       7.834  21.994  54.313  1.00  0.00     0.026 A 
HETATM    9  C   UNL     1       8.251  21.798  55.625  1.00  0.00     0.035 A 
HETATM   10 CL   UNL     1       8.684  20.220  56.155  1.00  0.00    -0.084 Cl
HETATM   11  C   UNL     1       8.333  22.873  56.504  1.00  0.00     0.043 A 
BRANCH   6  12
HETATM   12  O   UNL     1       7.185  25.629  54.357  1.00  0.00    -0.289 OA
BRANCH  12  13
HETATM   13  C   UNL     1       5.863  25.761  53.848  1.00  0.00     0.505 C 
HETATM   14  F   UNL     1       5.201  26.598  54.685  1.00  0.00    -0.184 F 
HETATM   15  F   UNL     1       5.923  26.385  52.645  1.00  0.00    -0.184 F 
ENDBRANCH  12  13
ENDBRANCH   6  12
ENDBRANCH   2   5
BRANCH   1  16
HETATM   16  C   UNL     1       7.759  27.649  57.677  1.00  0.00     0.136 C 
BRANCH  16  17
HETATM   17  C   UNL     1       7.654  29.034  56.963  1.00  0.00    -0.004 C 
HETATM   18  C   UNL     1       6.175  29.248  56.559  1.00  0.00     0.021 C 
HETATM   19  C   UNL     1       8.474  28.956  55.654  1.00  0.00     0.021 C 
BRANCH  17  20
HETATM   20  C   UNL     1       8.225  30.185  57.809  1.00  0.00    -0.046 A 
HETATM   21  C   UNL     1       9.583  30.531  57.804  1.00  0.00     0.027 A 
HETATM   22  C   UNL     1      10.029  31.571  58.611  1.00  0.00     0.116 A 
HETATM   23  N   UNL     1       9.232  32.294  59.421  1.00  0.00    -0.273 NA
HETATM   24  C   UNL     1       7.928  31.954  59.429  1.00  0.00     0.116 A 
HETATM   25  C   UNL     1       7.393  30.925  58.665  1.00  0.00     0.027 A 
ENDBRANCH  17  20
ENDBRANCH  16  17
ENDBRANCH   1  16
TORSDOF 6
ENDMDL
MODEL 7
REMARK VINA RESULT:      -7.9      5.138      7.758
REMARK  6 active torsions:
REMARK  status: ('A' for Active; 'I' for Inactive)
REMARK    1  A    between atoms: C_2  and  C_3 
REMARK    2  A    between atoms: C_2  and  C_9 
REMARK    3  A    between atoms: C_9  and  N_10 
REMARK       I    between atoms: N_10  and  C_11 
REMARK    4  A    between atoms: C_11  and  C_12 
REMARK    5  A    between atoms: C_13  and  O_14 
REMARK    6  A    between atoms: O_14  and  C_15 
ROOT
HETATM    1  N   UNL     1       5.669  25.628  51.601  1.00  0.00    -0.356 N 
HETATM    2  C   UNL     1       5.040  26.847  51.712  1.00  0.00     0.254 C 
HETATM    3  O   UNL     1       4.444  27.194  52.728  1.00  0.00    -0.268 OA
HETATM    4  H   UNL     1       6.108  25.387  50.720  1.00  0.00     0.162 HD
ENDROOT
BRANCH   2   5
HETATM    5  C   UNL     1       5.078  27.759  50.523  1.00  0.00     0.067 A 
HETATM    6  C   UNL     1       4.815  27.364  49.194  1.00  0.00     0.090 A 
HETATM    7  C   UNL     1       4.833  28.325  48.171  1.00  0.00     0.040 A 
HETATM    8  C   UNL     1       5.163  29.652  48.448  1.00  0.00     0.026 A 
HETATM    9  C   UNL     1       5.462  30.032  49.751  1.00  0.00     0.035 A 
HETATM   10 CL   UNL     1       5.872  31.669  50.089  1.00  0.00    -0.084 Cl
HETATM   11  C   UNL     1       5.418  29.100  50.783  1.00  0.00     0.043 A 
BRANCH   6  12
HETATM   12  O   UNL     1       4.488  26.055  48.943  1.00  0.00    -0.289 OA
BRANCH  12  13
HETATM   13  C   UNL     1       3.199  25.857  48.375  1.00  0.00     0.505 C 
HETATM   14  F   UNL     1       2.443  26.924  48.735  1.00  0.00    -0.184 F 
HETATM   15  F   UNL     1       3.309  25.900  47.024  1.00  0.00    -0.184 F 
ENDBRANCH  12  13
ENDBRANCH   6  12
ENDBRANCH   2   5
BRANCH   1  16
HETATM   16  C   UNL     1       5.721  24.661  52.685  1.00  0.00     0.136 C 
BRANCH  16  17
HETATM   17  C   UNL     1       7.129  24.539  53.351  1.00  0.00    -0.004 C 
HETATM   18  C   UNL     1       7.197  25.566  54.507  1.00  0.00     0.021 C 
HETATM   19  C   UNL     1       8.187  24.963  52.306  1.00  0.00     0.021 C 
BRANCH  17  20
HETATM   20  C   UNL     1       7.454  23.102  53.795  1.00  0.00    -0.046 A 
HETATM   21  C   UNL     1       7.768  22.079  52.889  1.00  0.00     0.027 A 
HETATM   22  C   UNL     1       8.031  20.800  53.364  1.00  0.00     0.116 A 
HETATM   23  N   UNL     1       8.008  20.457  54.666  1.00  0.00    -0.273 NA
HETATM   24  C   UNL     1       7.698  21.441  55.534  1.00  0.00     0.116 A 
HETATM   25  C   UNL     1       7.412  22.745  55.153  1.00  0.00     0.027 A 
ENDBRANCH  17  20
ENDBRANCH  16  17
ENDBRANCH   1  16
TORSDOF 6
ENDMDL
MODEL 8
REMARK VINA RESULT:      -7.9      4.082      7.767
REMARK  6 active torsions:
REMARK  status: ('A' for Active; 'I' for Inactive)
REMARK    1  A    between atoms: C_2  and  C_3 
REMARK    2  A    between atoms: C_2  and  C_9 
REMARK    3  A    between atoms: C_9  and  N_10 
REMARK       I    between atoms: N_10  and  C_11 
REMARK    4  A    between atoms: C_11  and  C_12 
REMARK    5  A    between atoms: C_13  and  O_14 
REMARK    6  A    between atoms: O_14  and  C_15 
ROOT
HETATM    1  N   UNL     1       7.329  26.902  55.192  1.00  0.00    -0.356 N 
HETATM    2  C   UNL     1       7.790  28.192  55.055  1.00  0.00     0.254 C 
HETATM    3  O   UNL     1       8.341  28.592  54.034  1.00  0.00    -0.268 OA
HETATM    4  H   UNL     1       6.920  26.625  56.077  1.00  0.00     0.162 HD
ENDROOT
BRANCH   2   5
HETATM    5  C   UNL     1       7.622  29.118  56.223  1.00  0.00     0.067 A 
HETATM    6  C   UNL     1       8.588  29.332  57.228  1.00  0.00     0.090 A 
HETATM    7  C   UNL     1       8.332  30.264  58.246  1.00  0.00     0.040 A 
HETATM    8  C   UNL     1       7.110  30.937  58.303  1.00  0.00     0.026 A 
HETATM    9  C   UNL     1       6.142  30.694  57.334  1.00  0.00     0.035 A 
HETATM   10 CL   UNL     1       4.637  31.523  57.409  1.00  0.00    -0.084 Cl
HETATM   11  C   UNL     1       6.392  29.798  56.300  1.00  0.00     0.043 A 
BRANCH   6  12
HETATM   12  O   UNL     1       9.784  28.664  57.152  1.00  0.00    -0.289 OA
BRANCH  12  13
HETATM   13  C   UNL     1      10.886  29.453  56.717  1.00  0.00     0.505 C 
HETATM   14  F   UNL     1      10.437  30.224  55.696  1.00  0.00    -0.184 F 
HETATM   15  F   UNL     1      11.233  30.300  57.717  1.00  0.00    -0.184 F 
ENDBRANCH  12  13
ENDBRANCH   6  12
ENDBRANCH   2   5
BRANCH   1  16
HETATM   16  C   UNL     1       7.414  25.913  54.131  1.00  0.00     0.136 C 
BRANCH  16  17
HETATM   17  C   UNL     1       6.445  24.703  54.320  1.00  0.00    -0.004 C 
HETATM   18  C   UNL     1       5.335  24.812  53.246  1.00  0.00     0.021 C 
HETATM   19  C   UNL     1       5.758  24.856  55.697  1.00  0.00     0.021 C 
BRANCH  17  20
HETATM   20  C   UNL     1       7.174  23.348  54.304  1.00  0.00    -0.046 A 
HETATM   21  C   UNL     1       7.561  22.707  53.118  1.00  0.00     0.027 A 
HETATM   22  C   UNL     1       8.198  21.474  53.182  1.00  0.00     0.116 A 
HETATM   23  N   UNL     1       8.482  20.828  54.330  1.00  0.00    -0.273 NA
HETATM   24  C   UNL     1       8.102  21.445  55.467  1.00  0.00     0.116 A 
HETATM   25  C   UNL     1       7.453  22.671  55.502  1.00  0.00     0.027 A 
ENDBRANCH  17  20
ENDBRANCH  16  17
ENDBRANCH   1  16
TORSDOF 6
ENDMDL
MODEL 9
REMARK VINA RESULT:      -7.8      3.773      7.374
REMARK  6 active torsions:
REMARK  status: ('A' for Active; 'I' for Inactive)
REMARK    1  A    between atoms: C_2  and  C_3 
REMARK    2  A    between atoms: C_2  and  C_9 
REMARK    3  A    between atoms: C_9  and  N_10 
REMARK       I    between atoms: N_10  and  C_11 
REMARK    4  A    between atoms: C_11  and  C_12 
REMARK    5  A    between atoms: C_13  and  O_14 
REMARK    6  A    between atoms: O_14  and  C_15 
ROOT
HETATM    1  N   UNL     1       7.641  27.279  57.382  1.00  0.00    -0.356 N 
HETATM    2  C   UNL     1       8.429  28.404  57.457  1.00  0.00     0.254 C 
HETATM    3  O   UNL     1       9.598  28.419  57.083  1.00  0.00    -0.268 OA
HETATM    4  H   UNL     1       6.696  27.324  57.746  1.00  0.00     0.162 HD
ENDROOT
BRANCH   2   5
HETATM    5  C   UNL     1       7.820  29.641  58.046  1.00  0.00     0.067 A 
HETATM    6  C   UNL     1       6.725  30.341  57.498  1.00  0.00     0.090 A 
HETATM    7  C   UNL     1       6.213  31.461  58.172  1.00  0.00     0.040 A 
HETATM    8  C   UNL     1       6.813  31.920  59.346  1.00  0.00     0.026 A 
HETATM    9  C   UNL     1       7.918  31.254  59.863  1.00  0.00     0.035 A 
HETATM   10 CL   UNL     1       8.657  31.823  61.308  1.00  0.00    -0.084 Cl
HETATM   11  C   UNL     1       8.419  30.123  59.226  1.00  0.00     0.043 A 
BRANCH   6  12
HETATM   12  O   UNL     1       6.146  29.872  56.346  1.00  0.00    -0.289 OA
BRANCH  12  13
HETATM   13  C   UNL     1       4.834  29.344  56.505  1.00  0.00     0.505 C 
HETATM   14  F   UNL     1       4.592  28.561  55.424  1.00  0.00    -0.184 F 
HETATM   15  F   UNL     1       4.826  28.524  57.585  1.00  0.00    -0.184 F 
ENDBRANCH  12  13
ENDBRANCH   6  12
ENDBRANCH   2   5
BRANCH   1  16
HETATM   16  C   UNL     1       8.103  26.022  56.816  1.00  0.00     0.136 C 
BRANCH  16  17
HETATM   17  C   UNL     1       7.287  25.555  55.569  1.00  0.00    -0.004 C 
HETATM   18  C   UNL     1       7.248  26.730  54.561  1.00  0.00     0.021 C 
HETATM   19  C   UNL     1       5.831  25.300  56.023  1.00  0.00     0.021 C 
BRANCH  17  20
HETATM   20  C   UNL     1       7.827  24.250  54.959  1.00  0.00    -0.046 A 
HETATM   21  C   UNL     1       8.764  23.437  55.612  1.00  0.00     0.027 A 
HETATM   22  C   UNL     1       9.221  22.282  54.989  1.00  0.00     0.116 A 
HETATM   23  N   UNL     1       8.820  21.870  53.771  1.00  0.00    -0.273 NA
HETATM   24  C   UNL     1       7.924  22.658  53.144  1.00  0.00     0.116 A 
HETATM   25  C   UNL     1       7.418  23.834  53.682  1.00  0.00     0.027 A 
ENDBRANCH  17  20
ENDBRANCH  16  17
ENDBRANCH   1  16
TORSDOF 6
ENDMDL
MODEL 10
REMARK VINA RESULT:      -7.8      4.326      7.611
REMARK  6 active torsions:
REMARK  status: ('A' for Active; 'I' for Inactive)
REMARK    1  A    between atoms: C_2  and  C_3 
REMARK    2  A    between atoms: C_2  and  C_9 
REMARK    3  A    between atoms: C_9  and  N_10 
REMARK       I    between atoms: N_10  and  C_11 
REMARK    4  A    between atoms: C_11  and  C_12 
REMARK    5  A    between atoms: C_13  and  O_14 
REMARK    6  A    between atoms: O_14  and  C_15 
ROOT
HETATM    1  N   UNL     1       5.218  25.830  54.050  1.00  0.00    -0.356 N 
HETATM    2  C   UNL     1       4.871  26.876  53.226  1.00  0.00     0.254 C 
HETATM    3  O   UNL     1       4.959  26.812  52.003  1.00  0.00    -0.268 OA
HETATM    4  H   UNL     1       5.160  25.965  55.054  1.00  0.00     0.162 HD
ENDROOT
BRANCH   2   5
HETATM    5  C   UNL     1       4.396  28.143  53.872  1.00  0.00     0.067 A 
HETATM    6  C   UNL     1       4.412  28.396  55.260  1.00  0.00     0.090 A 
HETATM    7  C   UNL     1       3.985  29.644  55.740  1.00  0.00     0.040 A 
HETATM    8  C   UNL     1       3.494  30.613  54.864  1.00  0.00     0.026 A 
HETATM    9  C   UNL     1       3.440  30.347  53.500  1.00  0.00     0.035 A 
HETATM   10 CL   UNL     1       2.832  31.542  52.422  1.00  0.00    -0.084 Cl
HETATM   11  C   UNL     1       3.890  29.128  53.003  1.00  0.00     0.043 A 
BRANCH   6  12
HETATM   12  O   UNL     1       4.903  27.433  56.105  1.00  0.00    -0.289 OA
BRANCH  12  13
HETATM   13  C   UNL     1       5.966  27.860  56.949  1.00  0.00     0.505 C 
HETATM   14  F   UNL     1       6.414  26.759  57.603  1.00  0.00    -0.184 F 
HETATM   15  F   UNL     1       6.990  28.290  56.171  1.00  0.00    -0.184 F 
ENDBRANCH  12  13
ENDBRANCH   6  12
ENDBRANCH   2   5
BRANCH   1  16
HETATM   16  C   UNL     1       5.675  24.544  53.551  1.00  0.00     0.136 C 
BRANCH  16  17
HETATM   17  C   UNL     1       7.207  24.307  53.735  1.00  0.00    -0.004 C 
HETATM   18  C   UNL     1       7.695  25.221  54.885  1.00  0.00     0.021 C 
HETATM   19  C   UNL     1       7.919  24.782  52.447  1.00  0.00     0.021 C 
BRANCH  17  20
HETATM   20  C   UNL     1       7.559  22.824  53.947  1.00  0.00    -0.046 A 
HETATM   21  C   UNL     1       7.648  22.239  55.218  1.00  0.00     0.027 A 
HETATM   22  C   UNL     1       7.990  20.897  55.333  1.00  0.00     0.116 A 
HETATM   23  N   UNL     1       8.249  20.091  54.285  1.00  0.00    -0.273 NA
HETATM   24  C   UNL     1       8.169  20.659  53.065  1.00  0.00     0.116 A 
HETATM   25  C   UNL     1       7.844  21.992  52.853  1.00  0.00     0.027 A 
ENDBRANCH  17  20
ENDBRANCH  16  17
ENDBRANCH   1  16
TORSDOF 6
ENDMDL
