MODEL 1
REMARK VINA RESULT:     -10.0      0.000      0.000
REMARK  12 active torsions:
REMARK  status: ('A' for Active; 'I' for Inactive)
REMARK    1  A    between atoms: C_3  and  O_4 
REMARK    2  A    between atoms: C_8  and  C_9 
REMARK       I    between atoms: C_9  and  N_10 
REMARK    3  A    between atoms: N_10  and  C_11 
REMARK    4  A    between atoms: C_11  and  C_33 
REMARK    5  A    between atoms: C_11  and  C_12 
REMARK    6  A    between atoms: C_12  and  O_13 
REMARK    7  A    between atoms: C_12  and  C_14 
REMARK    8  A    between atoms: C_14  and  N_15 
REMARK    9  A    between atoms: C_17  and  C_18 
REMARK       I    between atoms: C_18  and  N_19 
REMARK   10  A    between atoms: N_19  and  C_20 
REMARK   11  A    between atoms: C_33  and  S_34 
REMARK   12  A    between atoms: S_34  and  C_35 
ROOT
HETATM    1  C   UNL     1       4.761  26.720  53.482  1.00  0.00     0.167 C 
ENDROOT
BRANCH   1   2
HETATM    2  C   UNL     1       5.643  25.985  52.420  1.00  0.00     0.124 C 
BRANCH   2   3
HETATM    3  N   UNL     1       6.051  24.658  52.917  1.00  0.00    -0.349 N 
HETATM    4  C   UNL     1       7.267  24.467  53.539  1.00  0.00     0.252 C 
HETATM    5  O   UNL     1       8.020  25.396  53.806  1.00  0.00    -0.268 OA
HETATM    6  H   UNL     1       5.540  23.835  52.610  1.00  0.00     0.163 HD
BRANCH   4   7
HETATM    7  C   UNL     1       7.612  23.058  53.865  1.00  0.00     0.040 A 
HETATM    8  C   UNL     1       7.674  22.609  55.203  1.00  0.00    -0.013 A 
HETATM    9  C   UNL     1       7.443  23.550  56.354  1.00  0.00     0.052 C 
HETATM   10  C   UNL     1       7.945  21.249  55.415  1.00  0.00     0.072 A 
HETATM   11  C   UNL     1       8.201  20.380  54.353  1.00  0.00     0.037 A 
HETATM   12  C   UNL     1       8.156  20.842  53.042  1.00  0.00     0.004 A 
HETATM   13  C   UNL     1       7.851  22.177  52.795  1.00  0.00     0.018 A 
BRANCH  10  14
HETATM   14  O   UNL     1       7.980  20.679  56.655  1.00  0.00    -0.360 OA
HETATM   15  H   UNL     1       7.958  21.366  57.340  1.00  0.00     0.217 HD
ENDBRANCH  10  14
ENDBRANCH   4   7
ENDBRANCH   2   3
BRANCH   2  16
HETATM   16  C   UNL     1       4.994  25.822  51.035  1.00  0.00     0.107 C 
BRANCH  16  17
HETATM   17  S   UNL     1       5.204  27.311  50.000  1.00  0.00    -0.128 SA
BRANCH  17  18
HETATM   18  C   UNL     1       3.798  27.080  48.925  1.00  0.00     0.000 A 
HETATM   19  C   UNL     1       3.820  26.072  47.959  1.00  0.00     0.018 A 
HETATM   20  C   UNL     1       2.733  25.901  47.099  1.00  0.00     0.001 A 
HETATM   21  C   UNL     1       1.619  26.733  47.207  1.00  0.00     0.000 A 
HETATM   22  C   UNL     1       1.587  27.732  48.178  1.00  0.00     0.001 A 
HETATM   23  C   UNL     1       2.673  27.903  49.039  1.00  0.00     0.018 A 
ENDBRANCH  17  18
ENDBRANCH  16  17
ENDBRANCH   2  16
ENDBRANCH   1   2
BRANCH   1  24
HETATM   24  O   UNL     1       3.512  27.245  52.995  1.00  0.00    -0.392 OA
HETATM   25  H   UNL     1       2.969  27.525  53.765  1.00  0.00     0.210 HD
ENDBRANCH   1  24
BRANCH   1  26
HETATM   26  C   UNL     1       5.511  27.880  54.173  1.00  0.00     0.269 C 
BRANCH  26  27
HETATM   27  N   UNL     1       4.693  28.326  55.393  1.00  0.00    -0.055 N 
HETATM   28  H   UNL     1       3.729  28.120  55.060  1.00  0.00     0.281 HD
HETATM   29  C   UNL     1       4.672  29.832  55.685  1.00  0.00     0.279 C 
HETATM   30  C   UNL     1       6.038  30.221  56.243  1.00  0.00     0.048 C 
HETATM   31  C   UNL     1       6.321  29.459  57.550  1.00  0.00    -0.006 C 
HETATM   32  C   UNL     1       6.151  27.932  57.431  1.00  0.00     0.016 C 
HETATM   33  C   UNL     1       7.691  29.801  58.142  1.00  0.00     0.005 C 
HETATM   34  C   UNL     1       4.901  27.515  56.636  1.00  0.00     0.241 C 
HETATM   35  C   UNL     1       7.440  27.185  57.029  1.00  0.00     0.007 C 
HETATM   36  C   UNL     1       8.554  28.061  56.466  1.00  0.00     0.000 C 
HETATM   37  C   UNL     1       8.869  29.282  57.323  1.00  0.00     0.000 C 
BRANCH  29  38
HETATM   38  C   UNL     1       4.149  30.652  54.478  1.00  0.00     0.249 C 
HETATM   39  N   UNL     1       4.744  31.874  54.258  1.00  0.00    -0.351 N 
HETATM   40  H   UNL     1       5.322  32.264  54.992  1.00  0.00     0.163 HD
HETATM   41  O   UNL     1       3.213  30.206  53.815  1.00  0.00    -0.271 OA
BRANCH  39  42
HETATM   42  C   UNL     1       4.312  32.863  53.247  1.00  0.00     0.022 C 
HETATM   43  C   UNL     1       2.869  33.303  53.529  1.00  0.00     0.037 C 
HETATM   44  C   UNL     1       5.238  34.088  53.368  1.00  0.00     0.037 C 
HETATM   45  C   UNL     1       4.432  32.315  51.817  1.00  0.00     0.037 C 
ENDBRANCH  39  42
ENDBRANCH  29  38
ENDBRANCH  26  27
ENDBRANCH   1  26
TORSDOF 12
ENDMDL
MODEL 2
REMARK VINA RESULT:      -9.3      1.494      2.059
REMARK  12 active torsions:
REMARK  status: ('A' for Active; 'I' for Inactive)
REMARK    1  A    between atoms: C_3  and  O_4 
REMARK    2  A    between atoms: C_8  and  C_9 
REMARK       I    between atoms: C_9  and  N_10 
REMARK    3  A    between atoms: N_10  and  C_11 
REMARK    4  A    between atoms: C_11  and  C_33 
REMARK    5  A    between atoms: C_11  and  C_12 
REMARK    6  A    between atoms: C_12  and  O_13 
REMARK    7  A    between atoms: C_12  and  C_14 
REMARK    8  A    between atoms: C_14  and  N_15 
REMARK    9  A    between atoms: C_17  and  C_18 
REMARK       I    between atoms: C_18  and  N_19 
REMARK   10  A    between atoms: N_19  and  C_20 
REMARK   11  A    between atoms: C_33  and  S_34 
REMARK   12  A    between atoms: S_34  and  C_35 
ROOT
HETATM    1  C   UNL     1       4.780  28.362  54.413  1.00  0.00     0.167 C 
ENDROOT
BRANCH   1   2
HETATM    2  C   UNL     1       5.358  27.660  53.141  1.00  0.00     0.124 C 
BRANCH   2   3
HETATM    3  N   UNL     1       5.793  26.288  53.461  1.00  0.00    -0.349 N 
HETATM    4  C   UNL     1       7.127  25.978  53.625  1.00  0.00     0.252 C 
HETATM    5  O   UNL     1       8.004  26.833  53.622  1.00  0.00    -0.268 OA
HETATM    6  H   UNL     1       5.138  25.520  53.345  1.00  0.00     0.163 HD
BRANCH   4   7
HETATM    7  C   UNL     1       7.437  24.535  53.806  1.00  0.00     0.040 A 
HETATM    8  C   UNL     1       7.470  23.948  55.091  1.00  0.00    -0.013 A 
HETATM    9  C   UNL     1       7.242  24.768  56.331  1.00  0.00     0.052 C 
HETATM   10  C   UNL     1       7.709  22.568  55.162  1.00  0.00     0.072 A 
HETATM   11  C   UNL     1       7.963  21.809  54.019  1.00  0.00     0.037 A 
HETATM   12  C   UNL     1       7.947  22.406  52.763  1.00  0.00     0.004 A 
HETATM   13  C   UNL     1       7.674  23.765  52.653  1.00  0.00     0.018 A 
BRANCH  10  14
HETATM   14  O   UNL     1       7.714  21.870  56.336  1.00  0.00    -0.360 OA
HETATM   15  H   UNL     1       8.077  20.981  56.196  1.00  0.00     0.217 HD
ENDBRANCH  10  14
ENDBRANCH   4   7
ENDBRANCH   2   3
BRANCH   2  16
HETATM   16  C   UNL     1       4.406  27.614  51.934  1.00  0.00     0.107 C 
BRANCH  16  17
HETATM   17  S   UNL     1       5.286  27.873  50.355  1.00  0.00    -0.128 SA
BRANCH  17  18
HETATM   18  C   UNL     1       3.978  27.380  49.246  1.00  0.00     0.000 A 
HETATM   19  C   UNL     1       2.759  28.061  49.261  1.00  0.00     0.018 A 
HETATM   20  C   UNL     1       1.723  27.664  48.412  1.00  0.00     0.001 A 
HETATM   21  C   UNL     1       1.906  26.591  47.541  1.00  0.00     0.000 A 
HETATM   22  C   UNL     1       3.125  25.917  47.512  1.00  0.00     0.001 A 
HETATM   23  C   UNL     1       4.161  26.313  48.361  1.00  0.00     0.018 A 
ENDBRANCH  17  18
ENDBRANCH  16  17
ENDBRANCH   2  16
ENDBRANCH   1   2
BRANCH   1  24
HETATM   24  O   UNL     1       3.706  29.291  54.176  1.00  0.00    -0.392 OA
HETATM   25  H   UNL     1       3.710  29.539  53.225  1.00  0.00     0.210 HD
ENDBRANCH   1  24
BRANCH   1  26
HETATM   26  C   UNL     1       5.865  29.109  55.221  1.00  0.00     0.269 C 
BRANCH  26  27
HETATM   27  N   UNL     1       5.516  29.004  56.711  1.00  0.00    -0.055 N 
HETATM   28  H   UNL     1       4.526  28.690  56.653  1.00  0.00     0.281 HD
HETATM   29  C   UNL     1       5.443  30.325  57.488  1.00  0.00     0.279 C 
HETATM   30  C   UNL     1       6.868  30.835  57.681  1.00  0.00     0.048 C 
HETATM   31  C   UNL     1       7.697  29.822  58.489  1.00  0.00    -0.006 C 
HETATM   32  C   UNL     1       7.661  28.391  57.919  1.00  0.00     0.016 C 
HETATM   33  C   UNL     1       9.144  30.280  58.695  1.00  0.00     0.005 C 
HETATM   34  C   UNL     1       6.258  27.945  57.470  1.00  0.00     0.241 C 
HETATM   35  C   UNL     1       8.782  28.091  56.900  1.00  0.00     0.007 C 
HETATM   36  C   UNL     1       9.504  29.315  56.346  1.00  0.00     0.000 C 
HETATM   37  C   UNL     1       9.981  30.286  57.420  1.00  0.00     0.000 C 
BRANCH  29  38
HETATM   38  C   UNL     1       4.423  31.311  56.865  1.00  0.00     0.249 C 
HETATM   39  N   UNL     1       4.899  32.557  56.525  1.00  0.00    -0.351 N 
HETATM   40  H   UNL     1       5.804  32.838  56.882  1.00  0.00     0.163 HD
HETATM   41  O   UNL     1       3.248  30.961  56.750  1.00  0.00    -0.271 OA
BRANCH  39  42
HETATM   42  C   UNL     1       4.072  33.682  56.039  1.00  0.00     0.022 C 
HETATM   43  C   UNL     1       3.287  33.254  54.791  1.00  0.00     0.037 C 
HETATM   44  C   UNL     1       3.073  34.043  57.155  1.00  0.00     0.037 C 
HETATM   45  C   UNL     1       4.916  34.930  55.735  1.00  0.00     0.037 C 
ENDBRANCH  39  42
ENDBRANCH  29  38
ENDBRANCH  26  27
ENDBRANCH   1  26
TORSDOF 12
ENDMDL
MODEL 3
REMARK VINA RESULT:      -9.2      1.681      2.284
REMARK  12 active torsions:
REMARK  status: ('A' for Active; 'I' for Inactive)
REMARK    1  A    between atoms: C_3  and  O_4 
REMARK    2  A    between atoms: C_8  and  C_9 
REMARK       I    between atoms: C_9  and  N_10 
REMARK    3  A    between atoms: N_10  and  C_11 
REMARK    4  A    between atoms: C_11  and  C_33 
REMARK    5  A    between atoms: C_11  and  C_12 
REMARK    6  A    between atoms: C_12  and  O_13 
REMARK    7  A    between atoms: C_12  and  C_14 
REMARK    8  A    between atoms: C_14  and  N_15 
REMARK    9  A    between atoms: C_17  and  C_18 
REMARK       I    between atoms: C_18  and  N_19 
REMARK   10  A    between atoms: N_19  and  C_20 
REMARK   11  A    between atoms: C_33  and  S_34 
REMARK   12  A    between atoms: S_34  and  C_35 
ROOT
HETATM    1  C   UNL     1       4.981  27.499  54.414  1.00  0.00     0.167 C 
ENDROOT
BRANCH   1   2
HETATM    2  C   UNL     1       5.621  26.671  53.252  1.00  0.00     0.124 C 
BRANCH   2   3
HETATM    3  N   UNL     1       6.120  25.378  53.755  1.00  0.00    -0.349 N 
HETATM    4  C   UNL     1       7.376  24.915  53.425  1.00  0.00     0.252 C 
HETATM    5  O   UNL     1       8.180  25.592  52.794  1.00  0.00    -0.268 OA
HETATM    6  H   UNL     1       5.463  24.718  54.163  1.00  0.00     0.163 HD
BRANCH   4   7
HETATM    7  C   UNL     1       7.699  23.537  53.882  1.00  0.00     0.040 A 
HETATM    8  C   UNL     1       8.013  23.268  55.232  1.00  0.00    -0.013 A 
HETATM    9  C   UNL     1       8.084  24.371  56.253  1.00  0.00     0.052 C 
HETATM   10  C   UNL     1       8.242  21.930  55.586  1.00  0.00     0.072 A 
HETATM   11  C   UNL     1       8.219  20.908  54.637  1.00  0.00     0.037 A 
HETATM   12  C   UNL     1       7.928  21.192  53.307  1.00  0.00     0.004 A 
HETATM   13  C   UNL     1       7.656  22.503  52.930  1.00  0.00     0.018 A 
BRANCH  10  14
HETATM   14  O   UNL     1       8.503  21.530  56.866  1.00  0.00    -0.360 OA
HETATM   15  H   UNL     1       7.892  21.962  57.483  1.00  0.00     0.217 HD
ENDBRANCH  10  14
ENDBRANCH   4   7
ENDBRANCH   2   3
BRANCH   2  16
HETATM   16  C   UNL     1       4.699  26.418  52.048  1.00  0.00     0.107 C 
BRANCH  16  17
HETATM   17  S   UNL     1       5.384  27.107  50.502  1.00  0.00    -0.128 SA
BRANCH  17  18
HETATM   18  C   UNL     1       4.627  28.721  50.580  1.00  0.00     0.000 A 
HETATM   19  C   UNL     1       5.400  29.835  50.916  1.00  0.00     0.018 A 
HETATM   20  C   UNL     1       4.810  31.098  51.002  1.00  0.00     0.001 A 
HETATM   21  C   UNL     1       3.448  31.252  50.746  1.00  0.00     0.000 A 
HETATM   22  C   UNL     1       2.676  30.146  50.397  1.00  0.00     0.001 A 
HETATM   23  C   UNL     1       3.265  28.883  50.310  1.00  0.00     0.018 A 
ENDBRANCH  17  18
ENDBRANCH  16  17
ENDBRANCH   2  16
ENDBRANCH   1   2
BRANCH   1  24
HETATM   24  O   UNL     1       3.891  28.360  54.035  1.00  0.00    -0.392 OA
HETATM   25  H   UNL     1       3.123  27.801  53.784  1.00  0.00     0.210 HD
ENDBRANCH   1  24
BRANCH   1  26
HETATM   26  C   UNL     1       6.017  28.369  55.161  1.00  0.00     0.269 C 
BRANCH  26  27
HETATM   27  N   UNL     1       5.657  28.374  56.653  1.00  0.00    -0.055 N 
HETATM   28  H   UNL     1       4.714  27.936  56.623  1.00  0.00     0.281 HD
HETATM   29  C   UNL     1       5.409  29.748  57.288  1.00  0.00     0.279 C 
HETATM   30  C   UNL     1       6.756  30.449  57.434  1.00  0.00     0.048 C 
HETATM   31  C   UNL     1       7.689  29.635  58.347  1.00  0.00    -0.006 C 
HETATM   32  C   UNL     1       7.840  28.159  57.928  1.00  0.00     0.016 C 
HETATM   33  C   UNL     1       9.065  30.288  58.511  1.00  0.00     0.005 C 
HETATM   34  C   UNL     1       6.511  27.499  57.521  1.00  0.00     0.241 C 
HETATM   35  C   UNL     1       9.006  27.898  56.951  1.00  0.00     0.007 C 
HETATM   36  C   UNL     1       9.583  29.139  56.277  1.00  0.00     0.000 C 
HETATM   37  C   UNL     1       9.918  30.267  57.246  1.00  0.00     0.000 C 
BRANCH  29  38
HETATM   38  C   UNL     1       4.287  30.531  56.561  1.00  0.00     0.249 C 
HETATM   39  N   UNL     1       4.668  31.662  55.875  1.00  0.00    -0.351 N 
HETATM   40  H   UNL     1       5.592  32.039  56.049  1.00  0.00     0.163 HD
HETATM   41  O   UNL     1       3.123  30.144  56.667  1.00  0.00    -0.271 OA
BRANCH  39  42
HETATM   42  C   UNL     1       3.746  32.617  55.224  1.00  0.00     0.022 C 
HETATM   43  C   UNL     1       2.991  33.424  56.289  1.00  0.00     0.037 C 
HETATM   44  C   UNL     1       4.595  33.584  54.378  1.00  0.00     0.037 C 
HETATM   45  C   UNL     1       2.752  31.912  54.287  1.00  0.00     0.037 C 
ENDBRANCH  39  42
ENDBRANCH  29  38
ENDBRANCH  26  27
ENDBRANCH   1  26
TORSDOF 12
ENDMDL
MODEL 4
REMARK VINA RESULT:      -9.1      2.067      6.847
REMARK  12 active torsions:
REMARK  status: ('A' for Active; 'I' for Inactive)
REMARK    1  A    between atoms: C_3  and  O_4 
REMARK    2  A    between atoms: C_8  and  C_9 
REMARK       I    between atoms: C_9  and  N_10 
REMARK    3  A    between atoms: N_10  and  C_11 
REMARK    4  A    between atoms: C_11  and  C_33 
REMARK    5  A    between atoms: C_11  and  C_12 
REMARK    6  A    between atoms: C_12  and  O_13 
REMARK    7  A    between atoms: C_12  and  C_14 
REMARK    8  A    between atoms: C_14  and  N_15 
REMARK    9  A    between atoms: C_17  and  C_18 
REMARK       I    between atoms: C_18  and  N_19 
REMARK   10  A    between atoms: N_19  and  C_20 
REMARK   11  A    between atoms: C_33  and  S_34 
REMARK   12  A    between atoms: S_34  and  C_35 
ROOT
HETATM    1  C   UNL     1       5.914  28.264  51.929  1.00  0.00     0.167 C 
ENDROOT
BRANCH   1   2
HETATM    2  C   UNL     1       5.674  27.688  53.364  1.00  0.00     0.124 C 
BRANCH   2   3
HETATM    3  N   UNL     1       6.512  26.495  53.588  1.00  0.00    -0.349 N 
HETATM    4  C   UNL     1       5.968  25.228  53.596  1.00  0.00     0.252 C 
HETATM    5  O   UNL     1       4.795  25.016  53.313  1.00  0.00    -0.268 OA
HETATM    6  H   UNL     1       7.451  26.611  53.957  1.00  0.00     0.163 HD
BRANCH   4   7
HETATM    7  C   UNL     1       6.896  24.129  53.971  1.00  0.00     0.040 A 
HETATM    8  C   UNL     1       7.126  23.794  55.324  1.00  0.00    -0.013 A 
HETATM    9  C   UNL     1       6.481  24.567  56.442  1.00  0.00     0.052 C 
HETATM   10  C   UNL     1       7.968  22.702  55.584  1.00  0.00     0.072 A 
HETATM   11  C   UNL     1       8.603  22.006  54.554  1.00  0.00     0.037 A 
HETATM   12  C   UNL     1       8.382  22.362  53.227  1.00  0.00     0.004 A 
HETATM   13  C   UNL     1       7.521  23.414  52.933  1.00  0.00     0.018 A 
BRANCH  10  14
HETATM   14  O   UNL     1       8.230  22.243  56.843  1.00  0.00    -0.360 OA
HETATM   15  H   UNL     1       8.236  21.273  56.850  1.00  0.00     0.217 HD
ENDBRANCH  10  14
ENDBRANCH   4   7
ENDBRANCH   2   3
BRANCH   2  16
HETATM   16  C   UNL     1       5.906  28.685  54.512  1.00  0.00     0.107 C 
BRANCH  16  17
HETATM   17  S   UNL     1       6.269  27.840  56.090  1.00  0.00    -0.128 SA
BRANCH  17  18
HETATM   18  C   UNL     1       7.791  28.681  56.491  1.00  0.00     0.000 A 
HETATM   19  C   UNL     1       8.025  29.109  57.800  1.00  0.00     0.018 A 
HETATM   20  C   UNL     1       9.204  29.789  58.115  1.00  0.00     0.001 A 
HETATM   21  C   UNL     1      10.154  30.037  57.125  1.00  0.00     0.000 A 
HETATM   22  C   UNL     1       9.931  29.600  55.820  1.00  0.00     0.001 A 
HETATM   23  C   UNL     1       8.753  28.920  55.504  1.00  0.00     0.018 A 
ENDBRANCH  17  18
ENDBRANCH  16  17
ENDBRANCH   2  16
ENDBRANCH   1   2
BRANCH   1  24
HETATM   24  O   UNL     1       6.121  29.686  51.858  1.00  0.00    -0.392 OA
HETATM   25  H   UNL     1       6.042  30.060  52.764  1.00  0.00     0.210 HD
ENDBRANCH   1  24
BRANCH   1  26
HETATM   26  C   UNL     1       4.769  27.914  50.953  1.00  0.00     0.269 C 
BRANCH  26  27
HETATM   27  N   UNL     1       4.750  28.966  49.835  1.00  0.00    -0.055 N 
HETATM   28  H   UNL     1       5.340  29.709  50.263  1.00  0.00     0.281 HD
HETATM   29  C   UNL     1       3.407  29.660  49.576  1.00  0.00     0.279 C 
HETATM   30  C   UNL     1       2.487  28.658  48.885  1.00  0.00     0.048 C 
HETATM   31  C   UNL     1       3.090  28.212  47.542  1.00  0.00    -0.006 C 
HETATM   32  C   UNL     1       4.539  27.699  47.648  1.00  0.00     0.016 C 
HETATM   33  C   UNL     1       2.211  27.190  46.815  1.00  0.00     0.005 C 
HETATM   34  C   UNL     1       5.428  28.560  48.561  1.00  0.00     0.241 C 
HETATM   35  C   UNL     1       4.650  26.179  47.898  1.00  0.00     0.007 C 
HETATM   36  C   UNL     1       3.366  25.497  48.358  1.00  0.00     0.000 C 
HETATM   37  C   UNL     1       2.152  25.826  47.495  1.00  0.00     0.000 C 
BRANCH  29  38
HETATM   38  C   UNL     1       2.857  30.357  50.846  1.00  0.00     0.249 C 
HETATM   39  N   UNL     1       3.593  31.411  51.339  1.00  0.00    -0.351 N 
HETATM   40  H   UNL     1       4.536  31.540  50.992  1.00  0.00     0.163 HD
HETATM   41  O   UNL     1       1.836  29.916  51.375  1.00  0.00    -0.271 OA
BRANCH  39  42
HETATM   42  C   UNL     1       3.317  32.126  52.603  1.00  0.00     0.022 C 
HETATM   43  C   UNL     1       3.311  31.135  53.775  1.00  0.00     0.037 C 
HETATM   44  C   UNL     1       4.451  33.145  52.820  1.00  0.00     0.037 C 
HETATM   45  C   UNL     1       1.989  32.897  52.552  1.00  0.00     0.037 C 
ENDBRANCH  39  42
ENDBRANCH  29  38
ENDBRANCH  26  27
ENDBRANCH   1  26
TORSDOF 12
ENDMDL
MODEL 5
REMARK VINA RESULT:      -8.6      2.356      7.159
REMARK  12 active torsions:
REMARK  status: ('A' for Active; 'I' for Inactive)
REMARK    1  A    between atoms: C_3  and  O_4 
REMARK    2  A    between atoms: C_8  and  C_9 
REMARK       I    between atoms: C_9  and  N_10 
REMARK    3  A    between atoms: N_10  and  C_11 
REMARK    4  A    between atoms: C_11  and  C_33 
REMARK    5  A    between atoms: C_11  and  C_12 
REMARK    6  A    between atoms: C_12  and  O_13 
REMARK    7  A    between atoms: C_12  and  C_14 
REMARK    8  A    between atoms: C_14  and  N_15 
REMARK    9  A    between atoms: C_17  and  C_18 
REMARK       I    between atoms: C_18  and  N_19 
REMARK   10  A    between atoms: N_19  and  C_20 
REMARK   11  A    between atoms: C_33  and  S_34 
REMARK   12  A    between atoms: S_34  and  C_35 
ROOT
HETATM    1  C   UNL     1       4.020  28.911  53.126  1.00  0.00     0.167 C 
ENDROOT
BRANCH   1   2
HETATM    2  C   UNL     1       5.279  28.012  53.357  1.00  0.00     0.124 C 
BRANCH   2   3
HETATM    3  N   UNL     1       6.163  28.614  54.372  1.00  0.00    -0.349 N 
HETATM    4  C   UNL     1       7.484  28.237  54.487  1.00  0.00     0.252 C 
HETATM    5  O   UNL     1       8.020  27.472  53.694  1.00  0.00    -0.268 OA
HETATM    6  H   UNL     1       5.752  29.145  55.135  1.00  0.00     0.163 HD
BRANCH   4   7
HETATM    7  C   UNL     1       8.224  28.818  55.639  1.00  0.00     0.040 A 
HETATM    8  C   UNL     1       7.677  28.808  56.942  1.00  0.00    -0.013 A 
HETATM    9  C   UNL     1       6.304  28.255  57.209  1.00  0.00     0.052 C 
HETATM   10  C   UNL     1       8.472  29.320  57.978  1.00  0.00     0.072 A 
HETATM   11  C   UNL     1       9.729  29.872  57.732  1.00  0.00     0.037 A 
HETATM   12  C   UNL     1      10.245  29.893  56.440  1.00  0.00     0.004 A 
HETATM   13  C   UNL     1       9.500  29.357  55.395  1.00  0.00     0.018 A 
BRANCH  10  14
HETATM   14  O   UNL     1       8.083  29.320  59.288  1.00  0.00    -0.360 OA
HETATM   15  H   UNL     1       8.528  30.036  59.768  1.00  0.00     0.217 HD
ENDBRANCH  10  14
ENDBRANCH   4   7
ENDBRANCH   2   3
BRANCH   2  16
HETATM   16  C   UNL     1       4.976  26.558  53.757  1.00  0.00     0.107 C 
BRANCH  16  17
HETATM   17  S   UNL     1       5.466  25.373  52.457  1.00  0.00    -0.128 SA
BRANCH  17  18
HETATM   18  C   UNL     1       6.562  24.357  53.433  1.00  0.00     0.000 A 
HETATM   19  C   UNL     1       6.572  24.484  54.825  1.00  0.00     0.018 A 
HETATM   20  C   UNL     1       7.444  23.709  55.592  1.00  0.00     0.001 A 
HETATM   21  C   UNL     1       8.303  22.801  54.974  1.00  0.00     0.000 A 
HETATM   22  C   UNL     1       8.287  22.662  53.587  1.00  0.00     0.001 A 
HETATM   23  C   UNL     1       7.415  23.436  52.818  1.00  0.00     0.018 A 
ENDBRANCH  17  18
ENDBRANCH  16  17
ENDBRANCH   2  16
ENDBRANCH   1   2
BRANCH   1  24
HETATM   24  O   UNL     1       2.828  28.216  52.717  1.00  0.00    -0.392 OA
HETATM   25  H   UNL     1       3.076  27.525  52.063  1.00  0.00     0.210 HD
ENDBRANCH   1  24
BRANCH   1  26
HETATM   26  C   UNL     1       4.276  30.033  52.095  1.00  0.00     0.269 C 
BRANCH  26  27
HETATM   27  N   UNL     1       2.921  30.612  51.665  1.00  0.00    -0.055 N 
HETATM   28  H   UNL     1       2.275  29.904  52.069  1.00  0.00     0.281 HD
HETATM   29  C   UNL     1       2.614  30.583  50.162  1.00  0.00     0.279 C 
HETATM   30  C   UNL     1       3.477  31.643  49.486  1.00  0.00     0.048 C 
HETATM   31  C   UNL     1       3.145  33.040  50.039  1.00  0.00    -0.006 C 
HETATM   32  C   UNL     1       3.203  33.132  51.576  1.00  0.00     0.016 C 
HETATM   33  C   UNL     1       3.999  34.141  49.404  1.00  0.00     0.005 C 
HETATM   34  C   UNL     1       2.560  31.928  52.287  1.00  0.00     0.241 C 
HETATM   35  C   UNL     1       4.586  33.535  52.130  1.00  0.00     0.007 C 
HETATM   36  C   UNL     1       5.743  33.423  51.142  1.00  0.00     0.000 C 
HETATM   37  C   UNL     1       5.471  34.091  49.799  1.00  0.00     0.000 C 
BRANCH  29  38
HETATM   38  C   UNL     1       2.684  29.148  49.582  1.00  0.00     0.249 C 
HETATM   39  N   UNL     1       3.792  28.842  48.823  1.00  0.00    -0.351 N 
HETATM   40  H   UNL     1       4.381  29.603  48.508  1.00  0.00     0.163 HD
HETATM   41  O   UNL     1       1.745  28.376  49.780  1.00  0.00    -0.271 OA
BRANCH  39  42
HETATM   42  C   UNL     1       3.993  27.582  48.077  1.00  0.00     0.022 C 
HETATM   43  C   UNL     1       2.835  27.365  47.094  1.00  0.00     0.037 C 
HETATM   44  C   UNL     1       5.304  27.716  47.279  1.00  0.00     0.037 C 
HETATM   45  C   UNL     1       4.129  26.372  49.015  1.00  0.00     0.037 C 
ENDBRANCH  39  42
ENDBRANCH  29  38
ENDBRANCH  26  27
ENDBRANCH   1  26
TORSDOF 12
ENDMDL
MODEL 6
REMARK VINA RESULT:      -8.5      2.088      6.886
REMARK  12 active torsions:
REMARK  status: ('A' for Active; 'I' for Inactive)
REMARK    1  A    between atoms: C_3  and  O_4 
REMARK    2  A    between atoms: C_8  and  C_9 
REMARK       I    between atoms: C_9  and  N_10 
REMARK    3  A    between atoms: N_10  and  C_11 
REMARK    4  A    between atoms: C_11  and  C_33 
REMARK    5  A    between atoms: C_11  and  C_12 
REMARK    6  A    between atoms: C_12  and  O_13 
REMARK    7  A    between atoms: C_12  and  C_14 
REMARK    8  A    between atoms: C_14  and  N_15 
REMARK    9  A    between atoms: C_17  and  C_18 
REMARK       I    between atoms: C_18  and  N_19 
REMARK   10  A    between atoms: N_19  and  C_20 
REMARK   11  A    between atoms: C_33  and  S_34 
REMARK   12  A    between atoms: S_34  and  C_35 
ROOT
HETATM    1  C   UNL     1       5.812  28.016  52.268  1.00  0.00     0.167 C 
ENDROOT
BRANCH   1   2
HETATM    2  C   UNL     1       5.306  27.467  53.643  1.00  0.00     0.124 C 
BRANCH   2   3
HETATM    3  N   UNL     1       6.252  26.471  54.179  1.00  0.00    -0.349 N 
HETATM    4  C   UNL     1       5.996  25.118  54.094  1.00  0.00     0.252 C 
HETATM    5  O   UNL     1       5.035  24.670  53.480  1.00  0.00    -0.268 OA
HETATM    6  H   UNL     1       6.988  26.776  54.810  1.00  0.00     0.163 HD
BRANCH   4   7
HETATM    7  C   UNL     1       6.961  24.232  54.797  1.00  0.00     0.040 A 
HETATM    8  C   UNL     1       7.810  23.358  54.081  1.00  0.00    -0.013 A 
HETATM    9  C   UNL     1       7.738  23.252  52.583  1.00  0.00     0.052 C 
HETATM   10  C   UNL     1       8.732  22.605  54.823  1.00  0.00     0.072 A 
HETATM   11  C   UNL     1       8.777  22.668  56.216  1.00  0.00     0.037 A 
HETATM   12  C   UNL     1       7.920  23.518  56.907  1.00  0.00     0.004 A 
HETATM   13  C   UNL     1       7.020  24.309  56.200  1.00  0.00     0.018 A 
BRANCH  10  14
HETATM   14  O   UNL     1       9.643  21.765  54.249  1.00  0.00    -0.360 OA
HETATM   15  H   UNL     1      10.530  22.156  54.289  1.00  0.00     0.217 HD
ENDBRANCH  10  14
ENDBRANCH   4   7
ENDBRANCH   2   3
BRANCH   2  16
HETATM   16  C   UNL     1       5.045  28.537  54.715  1.00  0.00     0.107 C 
BRANCH  16  17
HETATM   17  S   UNL     1       4.921  27.816  56.388  1.00  0.00    -0.128 SA
BRANCH  17  18
HETATM   18  C   UNL     1       6.012  28.944  57.238  1.00  0.00     0.000 A 
HETATM   19  C   UNL     1       5.659  30.290  57.365  1.00  0.00     0.018 A 
HETATM   20  C   UNL     1       6.519  31.183  58.008  1.00  0.00     0.001 A 
HETATM   21  C   UNL     1       7.731  30.733  58.531  1.00  0.00     0.000 A 
HETATM   22  C   UNL     1       8.081  29.388  58.419  1.00  0.00     0.001 A 
HETATM   23  C   UNL     1       7.222  28.495  57.777  1.00  0.00     0.018 A 
ENDBRANCH  17  18
ENDBRANCH  16  17
ENDBRANCH   2  16
ENDBRANCH   1   2
BRANCH   1  24
HETATM   24  O   UNL     1       6.220  29.396  52.264  1.00  0.00    -0.392 OA
HETATM   25  H   UNL     1       7.152  29.447  51.956  1.00  0.00     0.210 HD
ENDBRANCH   1  24
BRANCH   1  26
HETATM   26  C   UNL     1       4.769  27.839  51.141  1.00  0.00     0.269 C 
BRANCH  26  27
HETATM   27  N   UNL     1       4.948  28.985  50.135  1.00  0.00    -0.055 N 
HETATM   28  H   UNL     1       5.644  29.572  50.638  1.00  0.00     0.281 HD
HETATM   29  C   UNL     1       3.744  29.916  49.943  1.00  0.00     0.279 C 
HETATM   30  C   UNL     1       2.684  29.156  49.152  1.00  0.00     0.048 C 
HETATM   31  C   UNL     1       3.230  28.750  47.772  1.00  0.00    -0.006 C 
HETATM   32  C   UNL     1       4.572  27.993  47.831  1.00  0.00     0.016 C 
HETATM   33  C   UNL     1       2.208  27.966  46.944  1.00  0.00     0.005 C 
HETATM   34  C   UNL     1       5.574  28.599  48.829  1.00  0.00     0.241 C 
HETATM   35  C   UNL     1       4.424  26.459  47.926  1.00  0.00     0.007 C 
HETATM   36  C   UNL     1       3.035  25.960  48.311  1.00  0.00     0.000 C 
HETATM   37  C   UNL     1       1.910  26.571  47.483  1.00  0.00     0.000 C 
BRANCH  29  38
HETATM   38  C   UNL     1       3.293  30.566  51.276  1.00  0.00     0.249 C 
HETATM   39  N   UNL     1       3.624  31.889  51.459  1.00  0.00    -0.351 N 
HETATM   40  H   UNL     1       4.308  32.303  50.838  1.00  0.00     0.163 HD
HETATM   41  O   UNL     1       2.714  29.873  52.113  1.00  0.00    -0.271 OA
BRANCH  39  42
HETATM   42  C   UNL     1       3.403  32.659  52.703  1.00  0.00     0.022 C 
HETATM   43  C   UNL     1       4.006  31.908  53.897  1.00  0.00     0.037 C 
HETATM   44  C   UNL     1       4.125  34.011  52.549  1.00  0.00     0.037 C 
HETATM   45  C   UNL     1       1.913  32.941  52.949  1.00  0.00     0.037 C 
ENDBRANCH  39  42
ENDBRANCH  29  38
ENDBRANCH  26  27
ENDBRANCH   1  26
TORSDOF 12
ENDMDL
MODEL 7
REMARK VINA RESULT:      -8.4      2.676      6.481
REMARK  12 active torsions:
REMARK  status: ('A' for Active; 'I' for Inactive)
REMARK    1  A    between atoms: C_3  and  O_4 
REMARK    2  A    between atoms: C_8  and  C_9 
REMARK       I    between atoms: C_9  and  N_10 
REMARK    3  A    between atoms: N_10  and  C_11 
REMARK    4  A    between atoms: C_11  and  C_33 
REMARK    5  A    between atoms: C_11  and  C_12 
REMARK    6  A    between atoms: C_12  and  O_13 
REMARK    7  A    between atoms: C_12  and  C_14 
REMARK    8  A    between atoms: C_14  and  N_15 
REMARK    9  A    between atoms: C_17  and  C_18 
REMARK       I    between atoms: C_18  and  N_19 
REMARK   10  A    between atoms: N_19  and  C_20 
REMARK   11  A    between atoms: C_33  and  S_34 
REMARK   12  A    between atoms: S_34  and  C_35 
ROOT
HETATM    1  C   UNL     1       4.207  28.571  55.237  1.00  0.00     0.167 C 
ENDROOT
BRANCH   1   2
HETATM    2  C   UNL     1       5.420  27.983  56.031  1.00  0.00     0.124 C 
BRANCH   2   3
HETATM    3  N   UNL     1       6.071  26.910  55.257  1.00  0.00    -0.349 N 
HETATM    4  C   UNL     1       5.933  25.584  55.610  1.00  0.00     0.252 C 
HETATM    5  O   UNL     1       5.184  25.220  56.509  1.00  0.00    -0.268 OA
HETATM    6  H   UNL     1       6.804  27.151  54.595  1.00  0.00     0.163 HD
BRANCH   4   7
HETATM    7  C   UNL     1       6.754  24.619  54.832  1.00  0.00     0.040 A 
HETATM    8  C   UNL     1       7.837  23.933  55.425  1.00  0.00    -0.013 A 
HETATM    9  C   UNL     1       8.237  24.188  56.853  1.00  0.00     0.052 C 
HETATM   10  C   UNL     1       8.516  22.994  54.634  1.00  0.00     0.072 A 
HETATM   11  C   UNL     1       8.178  22.783  53.297  1.00  0.00     0.037 A 
HETATM   12  C   UNL     1       7.121  23.482  52.722  1.00  0.00     0.004 A 
HETATM   13  C   UNL     1       6.401  24.391  53.490  1.00  0.00     0.018 A 
BRANCH  10  14
HETATM   14  O   UNL     1       9.545  22.228  55.101  1.00  0.00    -0.360 OA
HETATM   15  H   UNL     1       9.901  21.675  54.388  1.00  0.00     0.217 HD
ENDBRANCH  10  14
ENDBRANCH   4   7
ENDBRANCH   2   3
BRANCH   2  16
HETATM   16  C   UNL     1       6.482  29.011  56.453  1.00  0.00     0.107 C 
BRANCH  16  17
HETATM   17  S   UNL     1       7.964  28.215  57.163  1.00  0.00    -0.128 SA
BRANCH  17  18
HETATM   18  C   UNL     1       8.656  29.640  57.985  1.00  0.00     0.000 A 
HETATM   19  C   UNL     1       7.964  30.236  59.043  1.00  0.00     0.018 A 
HETATM   20  C   UNL     1       8.489  31.366  59.674  1.00  0.00     0.001 A 
HETATM   21  C   UNL     1       9.708  31.899  59.255  1.00  0.00     0.000 A 
HETATM   22  C   UNL     1      10.407  31.299  58.210  1.00  0.00     0.001 A 
HETATM   23  C   UNL     1       9.884  30.169  57.578  1.00  0.00     0.018 A 
ENDBRANCH  17  18
ENDBRANCH  16  17
ENDBRANCH   2  16
ENDBRANCH   1   2
BRANCH   1  24
HETATM   24  O   UNL     1       3.854  27.866  54.032  1.00  0.00    -0.392 OA
HETATM   25  H   UNL     1       3.526  26.973  54.277  1.00  0.00     0.210 HD
ENDBRANCH   1  24
BRANCH   1  26
HETATM   26  C   UNL     1       4.413  30.055  54.859  1.00  0.00     0.269 C 
BRANCH  26  27
HETATM   27  N   UNL     1       3.052  30.646  54.465  1.00  0.00    -0.055 N 
HETATM   28  H   UNL     1       2.539  29.781  54.198  1.00  0.00     0.281 HD
HETATM   29  C   UNL     1       3.024  31.502  53.192  1.00  0.00     0.279 C 
HETATM   30  C   UNL     1       3.704  32.831  53.505  1.00  0.00     0.048 C 
HETATM   31  C   UNL     1       2.950  33.570  54.624  1.00  0.00    -0.006 C 
HETATM   32  C   UNL     1       2.719  32.719  55.888  1.00  0.00     0.016 C 
HETATM   33  C   UNL     1       3.605  34.905  54.990  1.00  0.00     0.005 C 
HETATM   34  C   UNL     1       2.279  31.277  55.584  1.00  0.00     0.241 C 
HETATM   35  C   UNL     1       3.846  32.834  56.938  1.00  0.00     0.007 C 
HETATM   36  C   UNL     1       5.147  33.451  56.434  1.00  0.00     0.000 C 
HETATM   37  C   UNL     1       4.955  34.766  55.687  1.00  0.00     0.000 C 
BRANCH  29  38
HETATM   38  C   UNL     1       3.541  30.724  51.956  1.00  0.00     0.249 C 
HETATM   39  N   UNL     1       4.496  31.351  51.187  1.00  0.00    -0.351 N 
HETATM   40  H   UNL     1       4.653  32.341  51.332  1.00  0.00     0.163 HD
HETATM   41  O   UNL     1       3.052  29.625  51.694  1.00  0.00    -0.271 OA
BRANCH  39  42
HETATM   42  C   UNL     1       5.027  30.843  49.904  1.00  0.00     0.022 C 
HETATM   43  C   UNL     1       3.927  30.875  48.834  1.00  0.00     0.037 C 
HETATM   44  C   UNL     1       6.171  31.778  49.469  1.00  0.00     0.037 C 
HETATM   45  C   UNL     1       5.598  29.423  50.038  1.00  0.00     0.037 C 
ENDBRANCH  39  42
ENDBRANCH  29  38
ENDBRANCH  26  27
ENDBRANCH   1  26
TORSDOF 12
ENDMDL
MODEL 8
REMARK VINA RESULT:      -8.2      2.260      7.334
REMARK  12 active torsions:
REMARK  status: ('A' for Active; 'I' for Inactive)
REMARK    1  A    between atoms: C_3  and  O_4 
REMARK    2  A    between atoms: C_8  and  C_9 
REMARK       I    between atoms: C_9  and  N_10 
REMARK    3  A    between atoms: N_10  and  C_11 
REMARK    4  A    between atoms: C_11  and  C_33 
REMARK    5  A    between atoms: C_11  and  C_12 
REMARK    6  A    between atoms: C_12  and  O_13 
REMARK    7  A    between atoms: C_12  and  C_14 
REMARK    8  A    between atoms: C_14  and  N_15 
REMARK    9  A    between atoms: C_17  and  C_18 
REMARK       I    between atoms: C_18  and  N_19 
REMARK   10  A    between atoms: N_19  and  C_20 
REMARK   11  A    between atoms: C_33  and  S_34 
REMARK   12  A    between atoms: S_34  and  C_35 
ROOT
HETATM    1  C   UNL     1       5.061  26.644  52.943  1.00  0.00     0.167 C 
ENDROOT
BRANCH   1   2
HETATM    2  C   UNL     1       4.439  27.910  52.267  1.00  0.00     0.124 C 
BRANCH   2   3
HETATM    3  N   UNL     1       3.684  27.531  51.058  1.00  0.00    -0.349 N 
HETATM    4  C   UNL     1       3.935  28.125  49.839  1.00  0.00     0.252 C 
HETATM    5  O   UNL     1       4.859  28.912  49.671  1.00  0.00    -0.268 OA
HETATM    6  H   UNL     1       2.827  26.993  51.157  1.00  0.00     0.163 HD
BRANCH   4   7
HETATM    7  C   UNL     1       3.010  27.753  48.736  1.00  0.00     0.040 A 
HETATM    8  C   UNL     1       3.325  26.712  47.835  1.00  0.00    -0.013 A 
HETATM    9  C   UNL     1       4.631  25.970  47.924  1.00  0.00     0.052 C 
HETATM   10  C   UNL     1       2.366  26.387  46.865  1.00  0.00     0.072 A 
HETATM   11  C   UNL     1       1.171  27.098  46.750  1.00  0.00     0.037 A 
HETATM   12  C   UNL     1       0.884  28.134  47.632  1.00  0.00     0.004 A 
HETATM   13  C   UNL     1       1.796  28.456  48.632  1.00  0.00     0.018 A 
BRANCH  10  14
HETATM   14  O   UNL     1       2.524  25.368  45.969  1.00  0.00    -0.360 OA
HETATM   15  H   UNL     1       1.901  25.470  45.233  1.00  0.00     0.217 HD
ENDBRANCH  10  14
ENDBRANCH   4   7
ENDBRANCH   2   3
BRANCH   2  16
HETATM   16  C   UNL     1       3.532  28.755  53.178  1.00  0.00     0.107 C 
BRANCH  16  17
HETATM   17  S   UNL     1       4.230  30.413  53.493  1.00  0.00    -0.128 SA
BRANCH  17  18
HETATM   18  C   UNL     1       3.788  31.179  51.943  1.00  0.00     0.000 A 
HETATM   19  C   UNL     1       2.486  31.051  51.451  1.00  0.00     0.018 A 
HETATM   20  C   UNL     1       2.139  31.628  50.228  1.00  0.00     0.001 A 
HETATM   21  C   UNL     1       3.090  32.339  49.496  1.00  0.00     0.000 A 
HETATM   22  C   UNL     1       4.385  32.481  49.989  1.00  0.00     0.001 A 
HETATM   23  C   UNL     1       4.733  31.904  51.212  1.00  0.00     0.018 A 
ENDBRANCH  17  18
ENDBRANCH  16  17
ENDBRANCH   2  16
ENDBRANCH   1   2
BRANCH   1  24
HETATM   24  O   UNL     1       4.174  25.519  53.088  1.00  0.00    -0.392 OA
HETATM   25  H   UNL     1       4.372  24.870  52.377  1.00  0.00     0.210 HD
ENDBRANCH   1  24
BRANCH   1  26
HETATM   26  C   UNL     1       5.652  26.948  54.338  1.00  0.00     0.269 C 
BRANCH  26  27
HETATM   27  N   UNL     1       7.182  26.968  54.219  1.00  0.00    -0.055 N 
HETATM   28  H   UNL     1       7.308  26.504  53.297  1.00  0.00     0.281 HD
HETATM   29  C   UNL     1       7.952  26.070  55.196  1.00  0.00     0.279 C 
HETATM   30  C   UNL     1       7.878  26.709  56.579  1.00  0.00     0.048 C 
HETATM   31  C   UNL     1       8.526  28.105  56.562  1.00  0.00    -0.006 C 
HETATM   32  C   UNL     1       7.980  29.033  55.460  1.00  0.00     0.016 C 
HETATM   33  C   UNL     1       8.461  28.798  57.926  1.00  0.00     0.005 C 
HETATM   34  C   UNL     1       7.798  28.330  54.103  1.00  0.00     0.241 C 
HETATM   35  C   UNL     1       6.774  29.891  55.900  1.00  0.00     0.007 C 
HETATM   36  C   UNL     1       6.091  29.444  57.188  1.00  0.00     0.000 C 
HETATM   37  C   UNL     1       7.054  29.211  58.347  1.00  0.00     0.000 C 
BRANCH  29  38
HETATM   38  C   UNL     1       7.521  24.586  55.085  1.00  0.00     0.249 C 
HETATM   39  N   UNL     1       8.522  23.669  54.858  1.00  0.00    -0.351 N 
HETATM   40  H   UNL     1       9.430  24.012  54.567  1.00  0.00     0.163 HD
HETATM   41  O   UNL     1       6.325  24.305  55.155  1.00  0.00    -0.271 OA
BRANCH  39  42
HETATM   42  C   UNL     1       8.315  22.228  54.594  1.00  0.00     0.022 C 
HETATM   43  C   UNL     1       7.591  22.040  53.254  1.00  0.00     0.037 C 
HETATM   44  C   UNL     1       9.702  21.565  54.507  1.00  0.00     0.037 C 
HETATM   45  C   UNL     1       7.530  21.542  55.723  1.00  0.00     0.037 C 
ENDBRANCH  39  42
ENDBRANCH  29  38
ENDBRANCH  26  27
ENDBRANCH   1  26
TORSDOF 12
ENDMDL
MODEL 9
REMARK VINA RESULT:      -8.1      2.410      6.664
REMARK  12 active torsions:
REMARK  status: ('A' for Active; 'I' for Inactive)
REMARK    1  A    between atoms: C_3  and  O_4 
REMARK    2  A    between atoms: C_8  and  C_9 
REMARK       I    between atoms: C_9  and  N_10 
REMARK    3  A    between atoms: N_10  and  C_11 
REMARK    4  A    between atoms: C_11  and  C_33 
REMARK    5  A    between atoms: C_11  and  C_12 
REMARK    6  A    between atoms: C_12  and  O_13 
REMARK    7  A    between atoms: C_12  and  C_14 
REMARK    8  A    between atoms: C_14  and  N_15 
REMARK    9  A    between atoms: C_17  and  C_18 
REMARK       I    between atoms: C_18  and  N_19 
REMARK   10  A    between atoms: N_19  and  C_20 
REMARK   11  A    between atoms: C_33  and  S_34 
REMARK   12  A    between atoms: S_34  and  C_35 
ROOT
HETATM    1  C   UNL     1       5.621  28.221  51.580  1.00  0.00     0.167 C 
ENDROOT
BRANCH   1   2
HETATM    2  C   UNL     1       5.115  27.419  52.824  1.00  0.00     0.124 C 
BRANCH   2   3
HETATM    3  N   UNL     1       6.069  26.351  53.172  1.00  0.00    -0.349 N 
HETATM    4  C   UNL     1       5.649  25.055  53.391  1.00  0.00     0.252 C 
HETATM    5  O   UNL     1       4.491  24.702  53.204  1.00  0.00    -0.268 OA
HETATM    6  H   UNL     1       7.008  26.602  53.471  1.00  0.00     0.163 HD
BRANCH   4   7
HETATM    7  C   UNL     1       6.691  24.109  53.871  1.00  0.00     0.040 A 
HETATM    8  C   UNL     1       6.972  23.965  55.247  1.00  0.00    -0.013 A 
HETATM    9  C   UNL     1       6.264  24.797  56.281  1.00  0.00     0.052 C 
HETATM   10  C   UNL     1       7.926  23.004  55.613  1.00  0.00     0.072 A 
HETATM   11  C   UNL     1       8.616  22.258  54.657  1.00  0.00     0.037 A 
HETATM   12  C   UNL     1       8.343  22.426  53.304  1.00  0.00     0.004 A 
HETATM   13  C   UNL     1       7.373  23.343  52.909  1.00  0.00     0.018 A 
BRANCH  10  14
HETATM   14  O   UNL     1       8.250  22.728  56.911  1.00  0.00    -0.360 OA
HETATM   15  H   UNL     1       7.460  22.786  57.472  1.00  0.00     0.217 HD
ENDBRANCH  10  14
ENDBRANCH   4   7
ENDBRANCH   2   3
BRANCH   2  16
HETATM   16  C   UNL     1       4.836  28.268  54.076  1.00  0.00     0.107 C 
BRANCH  16  17
HETATM   17  S   UNL     1       3.434  29.413  53.831  1.00  0.00    -0.128 SA
BRANCH  17  18
HETATM   18  C   UNL     1       3.854  30.609  55.086  1.00  0.00     0.000 A 
HETATM   19  C   UNL     1       5.080  30.518  55.752  1.00  0.00     0.018 A 
HETATM   20  C   UNL     1       5.404  31.437  56.752  1.00  0.00     0.001 A 
HETATM   21  C   UNL     1       4.509  32.453  57.085  1.00  0.00     0.000 A 
HETATM   22  C   UNL     1       3.292  32.556  56.415  1.00  0.00     0.001 A 
HETATM   23  C   UNL     1       2.966  31.638  55.415  1.00  0.00     0.018 A 
ENDBRANCH  17  18
ENDBRANCH  16  17
ENDBRANCH   2  16
ENDBRANCH   1   2
BRANCH   1  24
HETATM   24  O   UNL     1       6.298  29.457  51.873  1.00  0.00    -0.392 OA
HETATM   25  H   UNL     1       5.654  30.079  52.279  1.00  0.00     0.210 HD
ENDBRANCH   1  24
BRANCH   1  26
HETATM   26  C   UNL     1       4.486  28.541  50.582  1.00  0.00     0.269 C 
BRANCH  26  27
HETATM   27  N   UNL     1       5.121  28.941  49.243  1.00  0.00    -0.055 N 
HETATM   28  H   UNL     1       6.120  29.022  49.522  1.00  0.00     0.281 HD
HETATM   29  C   UNL     1       4.769  30.338  48.713  1.00  0.00     0.279 C 
HETATM   30  C   UNL     1       3.327  30.302  48.216  1.00  0.00     0.048 C 
HETATM   31  C   UNL     1       3.176  29.279  47.077  1.00  0.00    -0.006 C 
HETATM   32  C   UNL     1       3.710  27.876  47.423  1.00  0.00     0.016 C 
HETATM   33  C   UNL     1       1.739  29.191  46.554  1.00  0.00     0.005 C 
HETATM   34  C   UNL     1       5.057  27.899  48.167  1.00  0.00     0.241 C 
HETATM   35  C   UNL     1       2.655  26.937  48.046  1.00  0.00     0.007 C 
HETATM   36  C   UNL     1       1.390  27.622  48.553  1.00  0.00     0.000 C 
HETATM   37  C   UNL     1       0.756  28.570  47.541  1.00  0.00     0.000 C 
BRANCH  29  38
HETATM   38  C   UNL     1       5.134  31.453  49.725  1.00  0.00     0.249 C 
HETATM   39  N   UNL     1       4.114  32.291  50.113  1.00  0.00    -0.351 N 
HETATM   40  H   UNL     1       3.254  32.280  49.578  1.00  0.00     0.163 HD
HETATM   41  O   UNL     1       6.304  31.568  50.090  1.00  0.00    -0.271 OA
BRANCH  39  42
HETATM   42  C   UNL     1       4.273  33.490  50.965  1.00  0.00     0.022 C 
HETATM   43  C   UNL     1       5.305  34.441  50.343  1.00  0.00     0.037 C 
HETATM   44  C   UNL     1       2.910  34.205  51.023  1.00  0.00     0.037 C 
HETATM   45  C   UNL     1       4.681  33.127  52.401  1.00  0.00     0.037 C 
ENDBRANCH  39  42
ENDBRANCH  29  38
ENDBRANCH  26  27
ENDBRANCH   1  26
TORSDOF 12
ENDMDL
MODEL 10
REMARK VINA RESULT:      -8.1      2.791      7.360
REMARK  12 active torsions:
REMARK  status: ('A' for Active; 'I' for Inactive)
REMARK    1  A    between atoms: C_3  and  O_4 
REMARK    2  A    between atoms: C_8  and  C_9 
REMARK       I    between atoms: C_9  and  N_10 
REMARK    3  A    between atoms: N_10  and  C_11 
REMARK    4  A    between atoms: C_11  and  C_33 
REMARK    5  A    between atoms: C_11  and  C_12 
REMARK    6  A    between atoms: C_12  and  O_13 
REMARK    7  A    between atoms: C_12  and  C_14 
REMARK    8  A    between atoms: C_14  and  N_15 
REMARK    9  A    between atoms: C_17  and  C_18 
REMARK       I    between atoms: C_18  and  N_19 
REMARK   10  A    between atoms: N_19  and  C_20 
REMARK   11  A    between atoms: C_33  and  S_34 
REMARK   12  A    between atoms: S_34  and  C_35 
ROOT
HETATM    1  C   UNL     1       4.560  28.043  54.952  1.00  0.00     0.167 C 
ENDROOT
BRANCH   1   2
HETATM    2  C   UNL     1       4.458  29.103  53.807  1.00  0.00     0.124 C 
BRANCH   2   3
HETATM    3  N   UNL     1       4.132  28.449  52.526  1.00  0.00    -0.349 N 
HETATM    4  C   UNL     1       4.894  28.664  51.397  1.00  0.00     0.252 C 
HETATM    5  O   UNL     1       5.933  29.313  51.420  1.00  0.00    -0.268 OA
HETATM    6  H   UNL     1       3.221  28.015  52.409  1.00  0.00     0.163 HD
BRANCH   4   7
HETATM    7  C   UNL     1       4.375  28.056  50.142  1.00  0.00     0.040 A 
HETATM    8  C   UNL     1       3.600  28.807  49.230  1.00  0.00    -0.013 A 
HETATM    9  C   UNL     1       3.227  30.237  49.514  1.00  0.00     0.052 C 
HETATM   10  C   UNL     1       3.207  28.172  48.043  1.00  0.00     0.072 A 
HETATM   11  C   UNL     1       3.514  26.834  47.793  1.00  0.00     0.037 A 
HETATM   12  C   UNL     1       4.261  26.103  48.711  1.00  0.00     0.004 A 
HETATM   13  C   UNL     1       4.702  26.714  49.880  1.00  0.00     0.018 A 
BRANCH  10  14
HETATM   14  O   UNL     1       2.502  28.801  47.057  1.00  0.00    -0.360 OA
HETATM   15  H   UNL     1       3.003  29.560  46.720  1.00  0.00     0.217 HD
ENDBRANCH  10  14
ENDBRANCH   4   7
ENDBRANCH   2   3
BRANCH   2  16
HETATM   16  C   UNL     1       3.452  30.239  54.059  1.00  0.00     0.107 C 
BRANCH  16  17
HETATM   17  S   UNL     1       4.032  31.832  53.380  1.00  0.00    -0.128 SA
BRANCH  17  18
HETATM   18  C   UNL     1       4.170  32.733  54.915  1.00  0.00     0.000 A 
HETATM   19  C   UNL     1       3.677  32.173  56.096  1.00  0.00     0.018 A 
HETATM   20  C   UNL     1       3.761  32.883  57.296  1.00  0.00     0.001 A 
HETATM   21  C   UNL     1       4.342  34.150  57.320  1.00  0.00     0.000 A 
HETATM   22  C   UNL     1       4.847  34.707  56.146  1.00  0.00     0.001 A 
HETATM   23  C   UNL     1       4.764  33.998  54.946  1.00  0.00     0.018 A 
ENDBRANCH  17  18
ENDBRANCH  16  17
ENDBRANCH   2  16
ENDBRANCH   1   2
BRANCH   1  24
HETATM   24  O   UNL     1       3.771  28.317  56.124  1.00  0.00    -0.392 OA
HETATM   25  H   UNL     1       3.667  27.484  56.635  1.00  0.00     0.210 HD
ENDBRANCH   1  24
BRANCH   1  26
HETATM   26  C   UNL     1       6.015  27.814  55.419  1.00  0.00     0.269 C 
BRANCH  26  27
HETATM   27  N   UNL     1       5.982  27.260  56.850  1.00  0.00    -0.055 N 
HETATM   28  H   UNL     1       5.361  27.957  57.309  1.00  0.00     0.281 HD
HETATM   29  C   UNL     1       7.291  27.347  57.644  1.00  0.00     0.279 C 
HETATM   30  C   UNL     1       8.253  26.307  57.080  1.00  0.00     0.048 C 
HETATM   31  C   UNL     1       7.666  24.893  57.232  1.00  0.00    -0.006 C 
HETATM   32  C   UNL     1       6.242  24.744  56.661  1.00  0.00     0.016 C 
HETATM   33  C   UNL     1       8.587  23.811  56.662  1.00  0.00     0.005 C 
HETATM   34  C   UNL     1       5.318  25.925  57.005  1.00  0.00     0.241 C 
HETATM   35  C   UNL     1       6.200  24.311  55.180  1.00  0.00     0.007 C 
HETATM   36  C   UNL     1       7.516  24.453  54.422  1.00  0.00     0.000 C 
HETATM   37  C   UNL     1       8.710  23.836  55.142  1.00  0.00     0.000 C 
BRANCH  29  38
HETATM   38  C   UNL     1       7.814  28.802  57.747  1.00  0.00     0.249 C 
HETATM   39  N   UNL     1       7.736  29.399  58.985  1.00  0.00    -0.351 N 
HETATM   40  H   UNL     1       7.165  28.958  59.695  1.00  0.00     0.163 HD
HETATM   41  O   UNL     1       8.220  29.364  56.730  1.00  0.00    -0.271 OA
BRANCH  39  42
HETATM   42  C   UNL     1       8.059  30.814  59.272  1.00  0.00     0.022 C 
HETATM   43  C   UNL     1       9.401  31.185  58.627  1.00  0.00     0.037 C 
HETATM   44  C   UNL     1       6.950  31.681  58.646  1.00  0.00     0.037 C 
HETATM   45  C   UNL     1       8.095  31.103  60.781  1.00  0.00     0.037 C 
ENDBRANCH  39  42
ENDBRANCH  29  38
ENDBRANCH  26  27
ENDBRANCH   1  26
TORSDOF 12
ENDMDL
