MODEL 1
REMARK VINA RESULT:      -8.5      0.000      0.000
REMARK  6 active torsions:
REMARK  status: ('A' for Active; 'I' for Inactive)
REMARK    1  A    between atoms: C_2  and  C_3 
REMARK    2  A    between atoms: C_3  and  N_4 
REMARK       I    between atoms: N_4  and  C_5 
REMARK    3  A    between atoms: C_5  and  C_6 
REMARK    4  A    between atoms: C_11  and  C_12 
REMARK    5  A    between atoms: C_15  and  O_16 
REMARK    6  A    between atoms: C_21  and  C_22 
ROOT
HETATM    1  C   UNL     1       5.274  27.388  50.550  1.00  0.00     0.170 A 
HETATM    2  N   UNL     1       5.790  26.276  51.130  1.00  0.00    -0.163 NA
HETATM    3  N   UNL     1       6.224  26.708  52.326  1.00  0.00    -0.238 N 
HETATM    4  C   UNL     1       6.116  28.063  52.495  1.00  0.00     0.145 A 
HETATM    5  N   UNL     1       6.582  28.666  53.618  1.00  0.00    -0.365 N 
HETATM    6  C   UNL     1       7.492  27.949  54.507  1.00  0.00     0.118 C 
HETATM    7  C   UNL     1       7.021  26.495  54.644  1.00  0.00     0.066 C 
HETATM    8  C   UNL     1       6.905  25.827  53.262  1.00  0.00     0.221 C 
HETATM    9  C   UNL     1       5.478  28.532  51.370  1.00  0.00     0.115 A 
HETATM   10 CL   UNL     1       5.045  30.141  51.048  1.00  0.00    -0.077 Cl
HETATM   11  H   UNL     1       6.668  29.683  53.639  1.00  0.00     0.162 HD
ENDROOT
BRANCH   6  12
HETATM   12  C   UNL     1       7.550  28.622  55.864  1.00  0.00    -0.035 A 
HETATM   13  C   UNL     1       8.734  28.662  56.615  1.00  0.00     0.012 A 
HETATM   14  C   UNL     1       8.776  29.325  57.844  1.00  0.00     0.037 A 
HETATM   15  C   UNL     1       7.646  29.973  58.343  1.00  0.00     0.068 A 
HETATM   16  C   UNL     1       6.463  29.940  57.606  1.00  0.00     0.037 A 
HETATM   17  C   UNL     1       6.416  29.271  56.376  1.00  0.00     0.012 A 
BRANCH  15  18
HETATM   18  O   UNL     1       7.828  30.593  59.548  1.00  0.00    -0.356 OA
HETATM   19  C   UNL     1       9.169  30.763  59.987  1.00  0.00     0.210 C 
ENDBRANCH  15  18
ENDBRANCH   6  12
BRANCH   8  20
HETATM   20  C   UNL     1       6.207  24.491  53.399  1.00  0.00     0.409 C 
HETATM   21  F   UNL     1       6.402  23.926  54.611  1.00  0.00    -0.169 F 
HETATM   22  F   UNL     1       4.877  24.558  53.173  1.00  0.00    -0.169 F 
HETATM   23  F   UNL     1       6.701  23.621  52.478  1.00  0.00    -0.169 F 
ENDBRANCH   8  20
BRANCH   1  24
HETATM   24  C   UNL     1       4.616  27.312  49.235  1.00  0.00     0.273 C 
HETATM   25  N   UNL     1       3.486  26.521  49.245  1.00  0.00    -0.356 N 
HETATM   26  H   UNL     1       3.268  26.071  50.131  1.00  0.00     0.162 HD
HETATM   27  O   UNL     1       5.019  27.893  48.233  1.00  0.00    -0.266 OA
BRANCH  25  28
HETATM   28  C   UNL     1       2.659  26.304  48.082  1.00  0.00     0.122 C 
BRANCH  28  29
HETATM   29  C   UNL     1       1.436  27.215  48.076  1.00  0.00     0.015 C 
HETATM   30  C   UNL     1       0.861  27.361  46.677  1.00  0.00     0.006 C 
ENDBRANCH  28  29
ENDBRANCH  25  28
ENDBRANCH   1  24
TORSDOF 6
ENDMDL
MODEL 2
REMARK VINA RESULT:      -8.4      4.417      8.364
REMARK  6 active torsions:
REMARK  status: ('A' for Active; 'I' for Inactive)
REMARK    1  A    between atoms: C_2  and  C_3 
REMARK    2  A    between atoms: C_3  and  N_4 
REMARK       I    between atoms: N_4  and  C_5 
REMARK    3  A    between atoms: C_5  and  C_6 
REMARK    4  A    between atoms: C_11  and  C_12 
REMARK    5  A    between atoms: C_15  and  O_16 
REMARK    6  A    between atoms: C_21  and  C_22 
ROOT
HETATM    1  C   UNL     1       6.306  30.391  56.986  1.00  0.00     0.170 A 
HETATM    2  N   UNL     1       5.571  30.285  55.850  1.00  0.00    -0.163 NA
HETATM    3  N   UNL     1       5.886  29.069  55.375  1.00  0.00    -0.238 N 
HETATM    4  C   UNL     1       6.871  28.436  56.087  1.00  0.00     0.145 A 
HETATM    5  N   UNL     1       7.357  27.233  55.690  1.00  0.00    -0.365 N 
HETATM    6  C   UNL     1       7.087  26.747  54.340  1.00  0.00     0.118 C 
HETATM    7  C   UNL     1       5.632  27.064  53.972  1.00  0.00     0.066 C 
HETATM    8  C   UNL     1       5.348  28.569  54.120  1.00  0.00     0.221 C 
HETATM    9  C   UNL     1       7.148  29.257  57.156  1.00  0.00     0.115 A 
HETATM   10 CL   UNL     1       8.266  28.961  58.397  1.00  0.00    -0.077 Cl
HETATM   11  H   UNL     1       8.213  26.875  56.117  1.00  0.00     0.162 HD
ENDROOT
BRANCH   6  12
HETATM   12  C   UNL     1       7.349  25.256  54.249  1.00  0.00    -0.035 A 
HETATM   13  C   UNL     1       7.211  24.416  55.364  1.00  0.00     0.012 A 
HETATM   14  C   UNL     1       7.416  23.039  55.248  1.00  0.00     0.037 A 
HETATM   15  C   UNL     1       7.749  22.469  54.019  1.00  0.00     0.068 A 
HETATM   16  C   UNL     1       7.889  23.294  52.904  1.00  0.00     0.037 A 
HETATM   17  C   UNL     1       7.689  24.676  53.018  1.00  0.00     0.012 A 
BRANCH  15  18
HETATM   18  O   UNL     1       7.908  21.111  54.043  1.00  0.00    -0.356 OA
HETATM   19  C   UNL     1       8.371  20.497  52.847  1.00  0.00     0.210 C 
ENDBRANCH  15  18
ENDBRANCH   6  12
BRANCH   8  20
HETATM   20  C   UNL     1       3.861  28.821  53.996  1.00  0.00     0.409 C 
HETATM   21  F   UNL     1       3.582  30.048  53.504  1.00  0.00    -0.169 F 
HETATM   22  F   UNL     1       3.226  27.905  53.233  1.00  0.00    -0.169 F 
HETATM   23  F   UNL     1       3.282  28.752  55.225  1.00  0.00    -0.169 F 
ENDBRANCH   8  20
BRANCH   1  24
HETATM   24  C   UNL     1       6.178  31.573  57.854  1.00  0.00     0.273 C 
HETATM   25  N   UNL     1       6.528  31.319  59.164  1.00  0.00    -0.356 N 
HETATM   26  H   UNL     1       6.793  30.359  59.373  1.00  0.00     0.162 HD
HETATM   27  O   UNL     1       5.809  32.674  57.461  1.00  0.00    -0.266 OA
BRANCH  25  28
HETATM   28  C   UNL     1       6.502  32.321  60.201  1.00  0.00     0.122 C 
BRANCH  28  29
HETATM   29  C   UNL     1       7.682  32.181  61.157  1.00  0.00     0.015 C 
HETATM   30  C   UNL     1       9.007  32.296  60.423  1.00  0.00     0.006 C 
ENDBRANCH  28  29
ENDBRANCH  25  28
ENDBRANCH   1  24
TORSDOF 6
ENDMDL
MODEL 3
REMARK VINA RESULT:      -8.3      3.895      5.777
REMARK  6 active torsions:
REMARK  status: ('A' for Active; 'I' for Inactive)
REMARK    1  A    between atoms: C_2  and  C_3 
REMARK    2  A    between atoms: C_3  and  N_4 
REMARK       I    between atoms: N_4  and  C_5 
REMARK    3  A    between atoms: C_5  and  C_6 
REMARK    4  A    between atoms: C_11  and  C_12 
REMARK    5  A    between atoms: C_15  and  O_16 
REMARK    6  A    between atoms: C_21  and  C_22 
ROOT
HETATM    1  C   UNL     1       7.259  24.409  54.483  1.00  0.00     0.170 A 
HETATM    2  N   UNL     1       6.284  25.230  54.016  1.00  0.00    -0.163 NA
HETATM    3  N   UNL     1       6.354  26.303  54.821  1.00  0.00    -0.238 N 
HETATM    4  C   UNL     1       7.246  26.164  55.851  1.00  0.00     0.145 A 
HETATM    5  N   UNL     1       7.379  27.128  56.797  1.00  0.00    -0.365 N 
HETATM    6  C   UNL     1       6.359  28.165  56.928  1.00  0.00     0.118 C 
HETATM    7  C   UNL     1       5.918  28.618  55.531  1.00  0.00     0.066 C 
HETATM    8  C   UNL     1       5.430  27.420  54.697  1.00  0.00     0.221 C 
HETATM    9  C   UNL     1       7.871  24.955  55.644  1.00  0.00     0.115 A 
HETATM   10 CL   UNL     1       9.102  24.276  56.594  1.00  0.00    -0.077 Cl
HETATM   11  H   UNL     1       7.901  26.921  57.650  1.00  0.00     0.162 HD
ENDROOT
BRANCH   6  12
HETATM   12  C   UNL     1       6.894  29.337  57.728  1.00  0.00    -0.035 A 
HETATM   13  C   UNL     1       8.145  29.287  58.359  1.00  0.00     0.012 A 
HETATM   14  C   UNL     1       8.637  30.395  59.055  1.00  0.00     0.037 A 
HETATM   15  C   UNL     1       7.900  31.577  59.124  1.00  0.00     0.068 A 
HETATM   16  C   UNL     1       6.654  31.638  58.501  1.00  0.00     0.037 A 
HETATM   17  C   UNL     1       6.156  30.528  57.807  1.00  0.00     0.012 A 
BRANCH  15  18
HETATM   18  O   UNL     1       8.502  32.585  59.824  1.00  0.00    -0.356 OA
HETATM   19  C   UNL     1       9.557  32.217  60.703  1.00  0.00     0.210 C 
ENDBRANCH  15  18
ENDBRANCH   6  12
BRANCH   8  20
HETATM   20  C   UNL     1       5.239  27.845  53.257  1.00  0.00     0.409 C 
HETATM   21  F   UNL     1       4.787  29.113  53.147  1.00  0.00    -0.169 F 
HETATM   22  F   UNL     1       6.361  27.730  52.514  1.00  0.00    -0.169 F 
HETATM   23  F   UNL     1       4.313  27.046  52.664  1.00  0.00    -0.169 F 
ENDBRANCH   8  20
BRANCH   1  24
HETATM   24  C   UNL     1       7.558  23.138  53.803  1.00  0.00     0.273 C 
HETATM   25  N   UNL     1       7.547  22.056  54.658  1.00  0.00    -0.356 N 
HETATM   26  H   UNL     1       7.371  22.267  55.637  1.00  0.00     0.162 HD
HETATM   27  O   UNL     1       7.785  23.041  52.602  1.00  0.00    -0.266 OA
BRANCH  25  28
HETATM   28  C   UNL     1       7.793  20.701  54.226  1.00  0.00     0.122 C 
BRANCH  28  29
HETATM   29  C   UNL     1       8.627  19.924  55.240  1.00  0.00     0.015 C 
HETATM   30  C   UNL     1       8.742  20.676  56.555  1.00  0.00     0.006 C 
ENDBRANCH  28  29
ENDBRANCH  25  28
ENDBRANCH   1  24
TORSDOF 6
ENDMDL
MODEL 4
REMARK VINA RESULT:      -8.2      3.591      8.258
REMARK  6 active torsions:
REMARK  status: ('A' for Active; 'I' for Inactive)
REMARK    1  A    between atoms: C_2  and  C_3 
REMARK    2  A    between atoms: C_3  and  N_4 
REMARK       I    between atoms: N_4  and  C_5 
REMARK    3  A    between atoms: C_5  and  C_6 
REMARK    4  A    between atoms: C_11  and  C_12 
REMARK    5  A    between atoms: C_15  and  O_16 
REMARK    6  A    between atoms: C_21  and  C_22 
ROOT
HETATM    1  C   UNL     1       7.636  24.639  55.216  1.00  0.00     0.170 A 
HETATM    2  N   UNL     1       7.088  25.802  55.650  1.00  0.00    -0.163 NA
HETATM    3  N   UNL     1       6.451  26.281  54.569  1.00  0.00    -0.238 N 
HETATM    4  C   UNL     1       6.658  25.543  53.434  1.00  0.00     0.145 A 
HETATM    5  N   UNL     1       6.147  25.938  52.240  1.00  0.00    -0.365 N 
HETATM    6  C   UNL     1       5.657  27.303  52.073  1.00  0.00     0.118 C 
HETATM    7  C   UNL     1       4.884  27.719  53.331  1.00  0.00     0.066 C 
HETATM    8  C   UNL     1       5.761  27.561  54.587  1.00  0.00     0.221 C 
HETATM    9  C   UNL     1       7.403  24.454  53.825  1.00  0.00     0.115 A 
HETATM   10 CL   UNL     1       7.926  23.177  52.838  1.00  0.00    -0.077 Cl
HETATM   11  H   UNL     1       6.472  25.485  51.384  1.00  0.00     0.162 HD
ENDROOT
BRANCH   6  12
HETATM   12  C   UNL     1       4.773  27.404  50.845  1.00  0.00    -0.035 A 
HETATM   13  C   UNL     1       4.798  26.426  49.840  1.00  0.00     0.012 A 
HETATM   14  C   UNL     1       3.944  26.517  48.737  1.00  0.00     0.037 A 
HETATM   15  C   UNL     1       3.040  27.573  48.621  1.00  0.00     0.068 A 
HETATM   16  C   UNL     1       3.007  28.551  49.614  1.00  0.00     0.037 A 
HETATM   17  C   UNL     1       3.865  28.465  50.718  1.00  0.00     0.012 A 
BRANCH  15  18
HETATM   18  O   UNL     1       2.256  27.534  47.501  1.00  0.00    -0.356 OA
HETATM   19  C   UNL     1       0.875  27.253  47.693  1.00  0.00     0.210 C 
ENDBRANCH  15  18
ENDBRANCH   6  12
BRANCH   8  20
HETATM   20  C   UNL     1       4.911  27.735  55.827  1.00  0.00     0.409 C 
HETATM   21  F   UNL     1       3.772  28.419  55.583  1.00  0.00    -0.169 F 
HETATM   22  F   UNL     1       4.584  26.565  56.418  1.00  0.00    -0.169 F 
HETATM   23  F   UNL     1       5.602  28.445  56.758  1.00  0.00    -0.169 F 
ENDBRANCH   8  20
BRANCH   1  24
HETATM   24  C   UNL     1       8.365  23.760  56.146  1.00  0.00     0.273 C 
HETATM   25  N   UNL     1       7.896  22.464  56.140  1.00  0.00    -0.356 N 
HETATM   26  H   UNL     1       7.100  22.284  55.532  1.00  0.00     0.162 HD
HETATM   27  O   UNL     1       9.298  24.132  56.849  1.00  0.00    -0.266 OA
BRANCH  25  28
HETATM   28  C   UNL     1       8.458  21.413  56.953  1.00  0.00     0.122 C 
BRANCH  28  29
HETATM   29  C   UNL     1       9.106  20.323  56.105  1.00  0.00     0.015 C 
HETATM   30  C   UNL     1       8.425  20.194  54.753  1.00  0.00     0.006 C 
ENDBRANCH  28  29
ENDBRANCH  25  28
ENDBRANCH   1  24
TORSDOF 6
ENDMDL
MODEL 5
REMARK VINA RESULT:      -8.1      4.706      8.994
REMARK  6 active torsions:
REMARK  status: ('A' for Active; 'I' for Inactive)
REMARK    1  A    between atoms: C_2  and  C_3 
REMARK    2  A    between atoms: C_3  and  N_4 
REMARK       I    between atoms: N_4  and  C_5 
REMARK    3  A    between atoms: C_5  and  C_6 
REMARK    4  A    between atoms: C_11  and  C_12 
REMARK    5  A    between atoms: C_15  and  O_16 
REMARK    6  A    between atoms: C_21  and  C_22 
ROOT
HETATM    1  C   UNL     1       8.124  30.733  57.957  1.00  0.00     0.170 A 
HETATM    2  N   UNL     1       6.864  30.726  57.454  1.00  0.00    -0.163 NA
HETATM    3  N   UNL     1       6.847  29.659  56.640  1.00  0.00    -0.238 N 
HETATM    4  C   UNL     1       8.066  29.047  56.507  1.00  0.00     0.145 A 
HETATM    5  N   UNL     1       8.234  28.000  55.660  1.00  0.00    -0.365 N 
HETATM    6  C   UNL     1       7.227  27.718  54.640  1.00  0.00     0.118 C 
HETATM    7  C   UNL     1       5.830  27.904  55.246  1.00  0.00     0.066 C 
HETATM    8  C   UNL     1       5.679  29.314  55.846  1.00  0.00     0.221 C 
HETATM    9  C   UNL     1       8.911  29.704  57.371  1.00  0.00     0.115 A 
HETATM   10 CL   UNL     1      10.546  29.349  57.654  1.00  0.00    -0.077 Cl
HETATM   11  H   UNL     1       9.180  27.688  55.433  1.00  0.00     0.162 HD
ENDROOT
BRANCH   6  12
HETATM   12  C   UNL     1       7.395  26.311  54.103  1.00  0.00    -0.035 A 
HETATM   13  C   UNL     1       7.542  26.061  52.730  1.00  0.00     0.012 A 
HETATM   14  C   UNL     1       7.737  24.759  52.261  1.00  0.00     0.037 A 
HETATM   15  C   UNL     1       7.805  23.684  53.147  1.00  0.00     0.068 A 
HETATM   16  C   UNL     1       7.659  23.921  54.513  1.00  0.00     0.037 A 
HETATM   17  C   UNL     1       7.457  25.223  54.987  1.00  0.00     0.012 A 
BRANCH  15  18
HETATM   18  O   UNL     1       8.012  22.469  52.556  1.00  0.00    -0.356 OA
HETATM   19  C   UNL     1       8.176  21.353  53.422  1.00  0.00     0.210 C 
ENDBRANCH  15  18
ENDBRANCH   6  12
BRANCH   8  20
HETATM   20  C   UNL     1       4.399  29.390  56.651  1.00  0.00     0.409 C 
HETATM   21  F   UNL     1       3.474  28.496  56.239  1.00  0.00    -0.169 F 
HETATM   22  F   UNL     1       4.592  29.219  57.977  1.00  0.00    -0.169 F 
HETATM   23  F   UNL     1       3.843  30.623  56.508  1.00  0.00    -0.169 F 
ENDBRANCH   8  20
BRANCH   1  24
HETATM   24  C   UNL     1       8.522  31.725  58.970  1.00  0.00     0.273 C 
HETATM   25  N   UNL     1       7.665  31.764  60.050  1.00  0.00    -0.356 N 
HETATM   26  H   UNL     1       6.862  31.142  60.000  1.00  0.00     0.162 HD
HETATM   27  O   UNL     1       9.514  32.439  58.875  1.00  0.00    -0.266 OA
BRANCH  25  28
HETATM   28  C   UNL     1       7.852  32.643  61.179  1.00  0.00     0.122 C 
BRANCH  28  29
HETATM   29  C   UNL     1       8.760  32.023  62.237  1.00  0.00     0.015 C 
HETATM   30  C   UNL     1       8.858  30.516  62.070  1.00  0.00     0.006 C 
ENDBRANCH  28  29
ENDBRANCH  25  28
ENDBRANCH   1  24
TORSDOF 6
ENDMDL
MODEL 6
REMARK VINA RESULT:      -8.1      4.391      6.408
REMARK  6 active torsions:
REMARK  status: ('A' for Active; 'I' for Inactive)
REMARK    1  A    between atoms: C_2  and  C_3 
REMARK    2  A    between atoms: C_3  and  N_4 
REMARK       I    between atoms: N_4  and  C_5 
REMARK    3  A    between atoms: C_5  and  C_6 
REMARK    4  A    between atoms: C_11  and  C_12 
REMARK    5  A    between atoms: C_15  and  O_16 
REMARK    6  A    between atoms: C_21  and  C_22 
ROOT
HETATM    1  C   UNL     1       6.348  28.748  55.593  1.00  0.00     0.170 A 
HETATM    2  N   UNL     1       7.663  29.079  55.618  1.00  0.00    -0.163 NA
HETATM    3  N   UNL     1       7.804  29.754  56.770  1.00  0.00    -0.238 N 
HETATM    4  C   UNL     1       6.624  29.970  57.431  1.00  0.00     0.145 A 
HETATM    5  N   UNL     1       6.586  30.704  58.572  1.00  0.00    -0.365 N 
HETATM    6  C   UNL     1       7.722  31.544  58.937  1.00  0.00     0.118 C 
HETATM    7  C   UNL     1       9.024  30.788  58.640  1.00  0.00     0.066 C 
HETATM    8  C   UNL     1       9.073  30.344  57.167  1.00  0.00     0.221 C 
HETATM    9  C   UNL     1       5.661  29.306  56.706  1.00  0.00     0.115 A 
HETATM   10 CL   UNL     1       4.009  29.198  57.077  1.00  0.00    -0.077 Cl
HETATM   11  H   UNL     1       5.683  31.012  58.937  1.00  0.00     0.162 HD
ENDROOT
BRANCH   6  12
HETATM   12  C   UNL     1       7.650  31.930  60.401  1.00  0.00    -0.035 A 
HETATM   13  C   UNL     1       6.476  32.450  60.967  1.00  0.00     0.012 A 
HETATM   14  C   UNL     1       6.419  32.760  62.329  1.00  0.00     0.037 A 
HETATM   15  C   UNL     1       7.521  32.544  63.156  1.00  0.00     0.068 A 
HETATM   16  C   UNL     1       8.693  32.027  62.604  1.00  0.00     0.037 A 
HETATM   17  C   UNL     1       8.756  31.722  61.239  1.00  0.00     0.012 A 
BRANCH  15  18
HETATM   18  O   UNL     1       7.326  32.877  64.467  1.00  0.00    -0.356 OA
HETATM   19  C   UNL     1       6.162  33.635  64.772  1.00  0.00     0.210 C 
ENDBRANCH  15  18
ENDBRANCH   6  12
BRANCH   8  20
HETATM   20  C   UNL     1      10.234  29.395  56.960  1.00  0.00     0.409 C 
HETATM   21  F   UNL     1      11.280  29.671  57.769  1.00  0.00    -0.169 F 
HETATM   22  F   UNL     1       9.898  28.097  57.129  1.00  0.00    -0.169 F 
HETATM   23  F   UNL     1      10.688  29.502  55.682  1.00  0.00    -0.169 F 
ENDBRANCH   8  20
BRANCH   1  24
HETATM   24  C   UNL     1       5.804  27.919  54.504  1.00  0.00     0.273 C 
HETATM   25  N   UNL     1       5.818  26.571  54.797  1.00  0.00    -0.356 N 
HETATM   26  H   UNL     1       6.225  26.317  55.694  1.00  0.00     0.162 HD
HETATM   27  O   UNL     1       5.373  28.371  53.449  1.00  0.00    -0.266 OA
BRANCH  25  28
HETATM   28  C   UNL     1       5.323  25.559  53.896  1.00  0.00     0.122 C 
BRANCH  28  29
HETATM   29  C   UNL     1       6.394  24.527  53.555  1.00  0.00     0.015 C 
HETATM   30  C   UNL     1       7.433  24.422  54.658  1.00  0.00     0.006 C 
ENDBRANCH  28  29
ENDBRANCH  25  28
ENDBRANCH   1  24
TORSDOF 6
ENDMDL
MODEL 7
REMARK VINA RESULT:      -8.1      4.539      7.245
REMARK  6 active torsions:
REMARK  status: ('A' for Active; 'I' for Inactive)
REMARK    1  A    between atoms: C_2  and  C_3 
REMARK    2  A    between atoms: C_3  and  N_4 
REMARK       I    between atoms: N_4  and  C_5 
REMARK    3  A    between atoms: C_5  and  C_6 
REMARK    4  A    between atoms: C_11  and  C_12 
REMARK    5  A    between atoms: C_15  and  O_16 
REMARK    6  A    between atoms: C_21  and  C_22 
ROOT
HETATM    1  C   UNL     1       4.625  29.831  55.183  1.00  0.00     0.170 A 
HETATM    2  N   UNL     1       5.510  29.613  56.189  1.00  0.00    -0.163 NA
HETATM    3  N   UNL     1       5.972  28.376  55.949  1.00  0.00    -0.238 N 
HETATM    4  C   UNL     1       5.347  27.745  54.906  1.00  0.00     0.145 A 
HETATM    5  N   UNL     1       5.646  26.460  54.585  1.00  0.00    -0.365 N 
HETATM    6  C   UNL     1       6.382  25.626  55.530  1.00  0.00     0.118 C 
HETATM    7  C   UNL     1       7.497  26.458  56.175  1.00  0.00     0.066 C 
HETATM    8  C   UNL     1       6.921  27.722  56.837  1.00  0.00     0.221 C 
HETATM    9  C   UNL     1       4.485  28.673  54.370  1.00  0.00     0.115 A 
HETATM   10 CL   UNL     1       3.471  28.456  53.026  1.00  0.00    -0.077 Cl
HETATM   11  H   UNL     1       5.038  25.954  53.939  1.00  0.00     0.162 HD
ENDROOT
BRANCH   6  12
HETATM   12  C   UNL     1       6.959  24.411  54.828  1.00  0.00    -0.035 A 
HETATM   13  C   UNL     1       7.247  23.228  55.525  1.00  0.00     0.012 A 
HETATM   14  C   UNL     1       7.738  22.107  54.851  1.00  0.00     0.037 A 
HETATM   15  C   UNL     1       7.938  22.136  53.471  1.00  0.00     0.068 A 
HETATM   16  C   UNL     1       7.655  23.306  52.768  1.00  0.00     0.037 A 
HETATM   17  C   UNL     1       7.168  24.434  53.441  1.00  0.00     0.012 A 
BRANCH  15  18
HETATM   18  O   UNL     1       8.408  20.968  52.937  1.00  0.00    -0.356 OA
HETATM   19  C   UNL     1       8.825  19.964  53.853  1.00  0.00     0.210 C 
ENDBRANCH  15  18
ENDBRANCH   6  12
BRANCH   8  20
HETATM   20  C   UNL     1       8.050  28.644  57.244  1.00  0.00     0.409 C 
HETATM   21  F   UNL     1       8.299  29.597  56.320  1.00  0.00    -0.169 F 
HETATM   22  F   UNL     1       7.841  29.252  58.432  1.00  0.00    -0.169 F 
HETATM   23  F   UNL     1       9.197  27.927  57.386  1.00  0.00    -0.169 F 
ENDBRANCH   8  20
BRANCH   1  24
HETATM   24  C   UNL     1       3.950  31.132  55.047  1.00  0.00     0.273 C 
HETATM   25  N   UNL     1       4.802  32.142  54.653  1.00  0.00    -0.356 N 
HETATM   26  H   UNL     1       5.778  31.878  54.539  1.00  0.00     0.162 HD
HETATM   27  O   UNL     1       2.753  31.307  55.253  1.00  0.00    -0.266 OA
BRANCH  25  28
HETATM   28  C   UNL     1       4.373  33.502  54.435  1.00  0.00     0.122 C 
BRANCH  28  29
HETATM   29  C   UNL     1       5.084  34.479  55.367  1.00  0.00     0.015 C 
HETATM   30  C   UNL     1       4.666  34.269  56.813  1.00  0.00     0.006 C 
ENDBRANCH  28  29
ENDBRANCH  25  28
ENDBRANCH   1  24
TORSDOF 6
ENDMDL
MODEL 8
REMARK VINA RESULT:      -7.9      3.878      6.920
REMARK  6 active torsions:
REMARK  status: ('A' for Active; 'I' for Inactive)
REMARK    1  A    between atoms: C_2  and  C_3 
REMARK    2  A    between atoms: C_3  and  N_4 
REMARK       I    between atoms: N_4  and  C_5 
REMARK    3  A    between atoms: C_5  and  C_6 
REMARK    4  A    between atoms: C_11  and  C_12 
REMARK    5  A    between atoms: C_15  and  O_16 
REMARK    6  A    between atoms: C_21  and  C_22 
ROOT
HETATM    1  C   UNL     1       5.011  29.361  54.324  1.00  0.00     0.170 A 
HETATM    2  N   UNL     1       5.218  29.066  53.016  1.00  0.00    -0.163 NA
HETATM    3  N   UNL     1       5.828  27.870  53.049  1.00  0.00    -0.238 N 
HETATM    4  C   UNL     1       6.125  27.436  54.314  1.00  0.00     0.145 A 
HETATM    5  N   UNL     1       6.811  26.282  54.515  1.00  0.00    -0.365 N 
HETATM    6  C   UNL     1       7.527  25.657  53.406  1.00  0.00     0.118 C 
HETATM    7  C   UNL     1       6.667  25.743  52.138  1.00  0.00     0.066 C 
HETATM    8  C   UNL     1       6.282  27.203  51.838  1.00  0.00     0.221 C 
HETATM    9  C   UNL     1       5.584  28.369  55.167  1.00  0.00     0.115 A 
HETATM   10 CL   UNL     1       5.613  28.329  56.863  1.00  0.00    -0.077 Cl
HETATM   11  H   UNL     1       7.186  26.079  55.443  1.00  0.00     0.162 HD
ENDROOT
BRANCH   6  12
HETATM   12  C   UNL     1       7.856  24.214  53.732  1.00  0.00    -0.035 A 
HETATM   13  C   UNL     1       8.239  23.821  55.023  1.00  0.00     0.012 A 
HETATM   14  C   UNL     1       8.498  22.478  55.311  1.00  0.00     0.037 A 
HETATM   15  C   UNL     1       8.366  21.499  54.326  1.00  0.00     0.068 A 
HETATM   16  C   UNL     1       7.986  21.878  53.039  1.00  0.00     0.037 A 
HETATM   17  C   UNL     1       7.732  23.224  52.745  1.00  0.00     0.012 A 
BRANCH  15  18
HETATM   18  O   UNL     1       8.635  20.226  54.745  1.00  0.00    -0.356 OA
HETATM   19  C   UNL     1       8.590  19.988  56.146  1.00  0.00     0.210 C 
ENDBRANCH  15  18
ENDBRANCH   6  12
BRANCH   8  20
HETATM   20  C   UNL     1       5.239  27.240  50.742  1.00  0.00     0.409 C 
HETATM   21  F   UNL     1       4.001  27.505  51.213  1.00  0.00    -0.169 F 
HETATM   22  F   UNL     1       5.521  28.132  49.767  1.00  0.00    -0.169 F 
HETATM   23  F   UNL     1       5.174  26.026  50.133  1.00  0.00    -0.169 F 
ENDBRANCH   8  20
BRANCH   1  24
HETATM   24  C   UNL     1       4.282  30.581  54.711  1.00  0.00     0.273 C 
HETATM   25  N   UNL     1       5.111  31.573  55.191  1.00  0.00    -0.356 N 
HETATM   26  H   UNL     1       6.098  31.335  55.251  1.00  0.00     0.162 HD
HETATM   27  O   UNL     1       3.067  30.712  54.611  1.00  0.00    -0.266 OA
BRANCH  25  28
HETATM   28  C   UNL     1       4.635  32.866  55.618  1.00  0.00     0.122 C 
BRANCH  28  29
HETATM   29  C   UNL     1       4.894  33.107  57.102  1.00  0.00     0.015 C 
HETATM   30  C   UNL     1       3.827  32.455  57.964  1.00  0.00     0.006 C 
ENDBRANCH  28  29
ENDBRANCH  25  28
ENDBRANCH   1  24
TORSDOF 6
ENDMDL
MODEL 9
REMARK VINA RESULT:      -7.8      5.582      8.663
REMARK  6 active torsions:
REMARK  status: ('A' for Active; 'I' for Inactive)
REMARK    1  A    between atoms: C_2  and  C_3 
REMARK    2  A    between atoms: C_3  and  N_4 
REMARK       I    between atoms: N_4  and  C_5 
REMARK    3  A    between atoms: C_5  and  C_6 
REMARK    4  A    between atoms: C_11  and  C_12 
REMARK    5  A    between atoms: C_15  and  O_16 
REMARK    6  A    between atoms: C_21  and  C_22 
ROOT
HETATM    1  C   UNL     1       5.967  31.372  57.931  1.00  0.00     0.170 A 
HETATM    2  N   UNL     1       7.288  31.158  58.159  1.00  0.00    -0.163 NA
HETATM    3  N   UNL     1       7.476  29.881  57.790  1.00  0.00    -0.238 N 
HETATM    4  C   UNL     1       6.321  29.230  57.445  1.00  0.00     0.145 A 
HETATM    5  N   UNL     1       6.331  27.911  57.122  1.00  0.00    -0.365 N 
HETATM    6  C   UNL     1       7.491  27.089  57.451  1.00  0.00     0.118 C 
HETATM    7  C   UNL     1       8.771  27.884  57.163  1.00  0.00     0.066 C 
HETATM    8  C   UNL     1       8.765  29.222  57.925  1.00  0.00     0.221 C 
HETATM    9  C   UNL     1       5.325  30.178  57.500  1.00  0.00     0.115 A 
HETATM   10 CL   UNL     1       3.684  29.946  57.136  1.00  0.00    -0.077 Cl
HETATM   11  H   UNL     1       5.445  27.407  57.059  1.00  0.00     0.162 HD
ENDROOT
BRANCH   6  12
HETATM   12  C   UNL     1       7.472  25.799  56.655  1.00  0.00    -0.035 A 
HETATM   13  C   UNL     1       6.570  25.601  55.600  1.00  0.00     0.012 A 
HETATM   14  C   UNL     1       6.598  24.421  54.852  1.00  0.00     0.037 A 
HETATM   15  C   UNL     1       7.532  23.423  55.129  1.00  0.00     0.068 A 
HETATM   16  C   UNL     1       8.434  23.609  56.176  1.00  0.00     0.037 A 
HETATM   17  C   UNL     1       8.405  24.788  56.932  1.00  0.00     0.012 A 
BRANCH  15  18
HETATM   18  O   UNL     1       7.458  22.327  54.314  1.00  0.00    -0.356 OA
HETATM   19  C   UNL     1       8.634  21.538  54.190  1.00  0.00     0.210 C 
ENDBRANCH  15  18
ENDBRANCH   6  12
BRANCH   8  20
HETATM   20  C   UNL     1       9.904  30.091  57.436  1.00  0.00     0.409 C 
HETATM   21  F   UNL     1       9.843  30.327  56.107  1.00  0.00    -0.169 F 
HETATM   22  F   UNL     1       9.979  31.280  58.074  1.00  0.00    -0.169 F 
HETATM   23  F   UNL     1      11.089  29.465  57.669  1.00  0.00    -0.169 F 
ENDBRANCH   8  20
BRANCH   1  24
HETATM   24  C   UNL     1       5.376  32.703  58.142  1.00  0.00     0.273 C 
HETATM   25  N   UNL     1       4.804  32.846  59.389  1.00  0.00    -0.356 N 
HETATM   26  H   UNL     1       4.830  32.022  59.985  1.00  0.00     0.162 HD
HETATM   27  O   UNL     1       5.393  33.600  57.305  1.00  0.00    -0.266 OA
BRANCH  25  28
HETATM   28  C   UNL     1       4.176  34.065  59.839  1.00  0.00     0.122 C 
BRANCH  28  29
HETATM   29  C   UNL     1       2.785  33.810  60.410  1.00  0.00     0.015 C 
HETATM   30  C   UNL     1       2.777  33.924  61.925  1.00  0.00     0.006 C 
ENDBRANCH  28  29
ENDBRANCH  25  28
ENDBRANCH   1  24
TORSDOF 6
ENDMDL
MODEL 10
REMARK VINA RESULT:      -7.8      1.822      2.422
REMARK  6 active torsions:
REMARK  status: ('A' for Active; 'I' for Inactive)
REMARK    1  A    between atoms: C_2  and  C_3 
REMARK    2  A    between atoms: C_3  and  N_4 
REMARK       I    between atoms: N_4  and  C_5 
REMARK    3  A    between atoms: C_5  and  C_6 
REMARK    4  A    between atoms: C_11  and  C_12 
REMARK    5  A    between atoms: C_15  and  O_16 
REMARK    6  A    between atoms: C_21  and  C_22 
ROOT
HETATM    1  C   UNL     1       5.930  26.346  52.645  1.00  0.00     0.170 A 
HETATM    2  N   UNL     1       6.448  25.498  53.569  1.00  0.00    -0.163 NA
HETATM    3  N   UNL     1       6.969  26.314  54.500  1.00  0.00    -0.238 N 
HETATM    4  C   UNL     1       6.913  27.641  54.164  1.00  0.00     0.145 A 
HETATM    5  N   UNL     1       7.467  28.588  54.963  1.00  0.00    -0.365 N 
HETATM    6  C   UNL     1       8.408  28.199  56.009  1.00  0.00     0.118 C 
HETATM    7  C   UNL     1       7.904  26.923  56.693  1.00  0.00     0.066 C 
HETATM    8  C   UNL     1       7.681  25.803  55.661  1.00  0.00     0.221 C 
HETATM    9  C   UNL     1       6.220  27.698  52.977  1.00  0.00     0.115 A 
HETATM   10 CL   UNL     1       5.816  29.098  52.107  1.00  0.00    -0.077 Cl
HETATM   11  H   UNL     1       7.584  29.537  54.604  1.00  0.00     0.162 HD
ENDROOT
BRANCH   6  12
HETATM   12  C   UNL     1       8.572  29.318  57.019  1.00  0.00    -0.035 A 
HETATM   13  C   UNL     1       9.819  29.912  57.263  1.00  0.00     0.012 A 
HETATM   14  C   UNL     1       9.939  30.970  58.167  1.00  0.00     0.037 A 
HETATM   15  C   UNL     1       8.820  31.468  58.835  1.00  0.00     0.068 A 
HETATM   16  C   UNL     1       7.575  30.886  58.600  1.00  0.00     0.037 A 
HETATM   17  C   UNL     1       7.452  29.821  57.698  1.00  0.00     0.012 A 
BRANCH  15  18
HETATM   18  O   UNL     1       9.076  32.512  59.680  1.00  0.00    -0.356 OA
HETATM   19  C   UNL     1       8.113  32.769  60.694  1.00  0.00     0.210 C 
ENDBRANCH  15  18
ENDBRANCH   6  12
BRANCH   8  20
HETATM   20  C   UNL     1       6.954  24.646  56.312  1.00  0.00     0.409 C 
HETATM   21  F   UNL     1       7.539  24.248  57.463  1.00  0.00    -0.169 F 
HETATM   22  F   UNL     1       5.653  24.910  56.568  1.00  0.00    -0.169 F 
HETATM   23  F   UNL     1       6.962  23.573  55.477  1.00  0.00    -0.169 F 
ENDBRANCH   8  20
BRANCH   1  24
HETATM   24  C   UNL     1       5.189  25.828  51.483  1.00  0.00     0.273 C 
HETATM   25  N   UNL     1       5.277  26.650  50.379  1.00  0.00    -0.356 N 
HETATM   26  H   UNL     1       5.802  27.511  50.510  1.00  0.00     0.162 HD
HETATM   27  O   UNL     1       4.564  24.773  51.486  1.00  0.00    -0.266 OA
BRANCH  25  28
HETATM   28  C   UNL     1       4.649  26.350  49.115  1.00  0.00     0.122 C 
BRANCH  28  29
HETATM   29  C   UNL     1       3.559  27.359  48.768  1.00  0.00     0.015 C 
HETATM   30  C   UNL     1       2.436  26.711  47.976  1.00  0.00     0.006 C 
ENDBRANCH  28  29
ENDBRANCH  25  28
ENDBRANCH   1  24
TORSDOF 6
ENDMDL
