MODEL 1
REMARK VINA RESULT:     -10.2      0.000      0.000
REMARK  5 active torsions:
REMARK  status: ('A' for Active; 'I' for Inactive)
REMARK    1  A    between atoms: C_7  and  C_8 
REMARK    2  A    between atoms: C_16  and  C_17 
REMARK    3  A    between atoms: C_19  and  O_20 
REMARK    4  A    between atoms: C_24  and  C_25 
REMARK       I    between atoms: C_25  and  N_26 
REMARK    5  A    between atoms: N_26  and  C_27 
ROOT
HETATM    1  C   UNL     1       5.355  28.084  50.409  1.00  0.00     0.070 C 
HETATM    2  C   UNL     1       5.726  27.312  51.652  1.00  0.00     0.037 C 
HETATM    3  N   UNL     1       6.599  26.242  51.460  1.00  0.00    -0.192 N 
HETATM    4  C   UNL     1       6.836  25.318  52.413  1.00  0.00     0.726 A 
HETATM    5  N   UNL     1       6.367  25.532  53.676  1.00  0.00    -0.083 N 
HETATM    6  N   UNL     1       6.642  24.499  54.493  1.00  0.00    -0.135 NA
HETATM    7  C   UNL     1       7.308  23.677  53.660  1.00  0.00     0.200 A 
HETATM    8  N   UNL     1       7.457  24.169  52.375  1.00  0.00    -0.041 NA
HETATM    9  C   UNL     1       5.686  26.757  54.099  1.00  0.00     0.202 C 
HETATM   10  C   UNL     1       5.258  27.592  52.896  1.00  0.00     0.062 C 
HETATM   11  H   UNL     1       6.830  25.999  50.499  1.00  0.00     0.184 HD
ENDROOT
BRANCH  10  12
HETATM   12  C   UNL     1       4.148  28.572  53.086  1.00  0.00     0.256 C 
HETATM   13  N   UNL     1       4.553  29.825  53.489  1.00  0.00    -0.323 N 
HETATM   14  H   UNL     1       5.544  30.003  53.591  1.00  0.00     0.169 HD
HETATM   15  O   UNL     1       2.992  28.201  52.913  1.00  0.00    -0.267 OA
BRANCH  13  16
HETATM   16  C   UNL     1       3.734  30.933  53.796  1.00  0.00     0.035 A 
HETATM   17  C   UNL     1       3.374  31.921  52.878  1.00  0.00     0.029 A 
HETATM   18  C   UNL     1       2.558  32.988  53.269  1.00  0.00     0.002 A 
HETATM   19  C   UNL     1       2.088  33.070  54.577  1.00  0.00     0.000 A 
HETATM   20  C   UNL     1       2.438  32.090  55.500  1.00  0.00     0.002 A 
HETATM   21  C   UNL     1       3.264  31.030  55.114  1.00  0.00     0.029 A 
ENDBRANCH  13  16
ENDBRANCH  10  12
BRANCH   9  22
HETATM   22  C   UNL     1       6.603  27.510  55.066  1.00  0.00    -0.025 A 
HETATM   23  C   UNL     1       7.717  28.241  54.610  1.00  0.00     0.046 A 
HETATM   24  C   UNL     1       8.517  28.928  55.518  1.00  0.00     0.066 A 
HETATM   25  C   UNL     1       8.242  28.895  56.879  1.00  0.00     0.036 A 
HETATM   26  C   UNL     1       7.157  28.157  57.346  1.00  0.00     0.003 A 
HETATM   27  C   UNL     1       6.341  27.468  56.447  1.00  0.00     0.010 A 
BRANCH  24  28
HETATM   28  O   UNL     1       9.594  29.656  55.108  1.00  0.00    -0.361 OA
HETATM   29  H   UNL     1       9.530  29.805  54.149  1.00  0.00     0.217 HD
ENDBRANCH  24  28
ENDBRANCH   9  22
BRANCH   7  30
HETATM   30  C   UNL     1       7.903  22.424  54.102  1.00  0.00     0.036 A 
HETATM   31  C   UNL     1       8.481  22.254  55.369  1.00  0.00     0.048 A 
HETATM   32 CL   UNL     1       8.619  23.535  56.525  1.00  0.00    -0.083 Cl
HETATM   33  C   UNL     1       9.026  21.015  55.733  1.00  0.00     0.025 A 
HETATM   34  C   UNL     1       9.002  19.939  54.844  1.00  0.00     0.002 A 
HETATM   35  C   UNL     1       8.439  20.098  53.581  1.00  0.00     0.001 A 
HETATM   36  C   UNL     1       7.897  21.330  53.213  1.00  0.00     0.017 A 
ENDBRANCH   7  30
TORSDOF 5
ENDMDL
MODEL 2
REMARK VINA RESULT:     -10.0      5.349      9.457
REMARK  5 active torsions:
REMARK  status: ('A' for Active; 'I' for Inactive)
REMARK    1  A    between atoms: C_7  and  C_8 
REMARK    2  A    between atoms: C_16  and  C_17 
REMARK    3  A    between atoms: C_19  and  O_20 
REMARK    4  A    between atoms: C_24  and  C_25 
REMARK       I    between atoms: C_25  and  N_26 
REMARK    5  A    between atoms: N_26  and  C_27 
ROOT
HETATM    1  C   UNL     1      10.687  29.777  56.658  1.00  0.00     0.070 C 
HETATM    2  C   UNL     1       9.498  30.120  57.521  1.00  0.00     0.037 C 
HETATM    3  N   UNL     1       9.655  31.226  58.355  1.00  0.00    -0.192 N 
HETATM    4  C   UNL     1       8.791  31.517  59.347  1.00  0.00     0.726 A 
HETATM    5  N   UNL     1       7.615  30.830  59.426  1.00  0.00    -0.083 N 
HETATM    6  N   UNL     1       6.890  31.201  60.496  1.00  0.00    -0.135 NA
HETATM    7  C   UNL     1       7.682  32.150  61.032  1.00  0.00     0.200 A 
HETATM    8  N   UNL     1       8.852  32.375  60.331  1.00  0.00    -0.041 NA
HETATM    9  C   UNL     1       7.179  29.839  58.440  1.00  0.00     0.202 C 
HETATM   10  C   UNL     1       8.333  29.421  57.533  1.00  0.00     0.062 C 
HETATM   11  H   UNL     1      10.582  31.646  58.396  1.00  0.00     0.184 HD
ENDROOT
BRANCH  10  12
HETATM   12  C   UNL     1       8.229  28.106  56.833  1.00  0.00     0.256 C 
HETATM   13  N   UNL     1       7.496  28.134  55.669  1.00  0.00    -0.323 N 
HETATM   14  H   UNL     1       7.119  29.019  55.355  1.00  0.00     0.169 HD
HETATM   15  O   UNL     1       8.753  27.121  57.342  1.00  0.00    -0.267 OA
BRANCH  13  16
HETATM   16  C   UNL     1       7.184  27.044  54.826  1.00  0.00     0.035 A 
HETATM   17  C   UNL     1       7.825  26.782  53.614  1.00  0.00     0.029 A 
HETATM   18  C   UNL     1       7.450  25.678  52.840  1.00  0.00     0.002 A 
HETATM   19  C   UNL     1       6.441  24.823  53.276  1.00  0.00     0.000 A 
HETATM   20  C   UNL     1       5.797  25.074  54.484  1.00  0.00     0.002 A 
HETATM   21  C   UNL     1       6.162  26.184  55.252  1.00  0.00     0.029 A 
ENDBRANCH  13  16
ENDBRANCH  10  12
BRANCH   9  22
HETATM   22  C   UNL     1       5.983  30.412  57.677  1.00  0.00    -0.025 A 
HETATM   23  C   UNL     1       5.966  31.745  57.223  1.00  0.00     0.046 A 
HETATM   24  C   UNL     1       4.867  32.225  56.516  1.00  0.00     0.066 A 
HETATM   25  C   UNL     1       3.772  31.410  56.259  1.00  0.00     0.036 A 
HETATM   26  C   UNL     1       3.767  30.096  56.722  1.00  0.00     0.003 A 
HETATM   27  C   UNL     1       4.864  29.598  57.427  1.00  0.00     0.010 A 
BRANCH  24  28
HETATM   28  O   UNL     1       4.825  33.505  56.051  1.00  0.00    -0.361 OA
HETATM   29  H   UNL     1       3.900  33.752  55.881  1.00  0.00     0.217 HD
ENDBRANCH  24  28
ENDBRANCH   9  22
BRANCH   7  30
HETATM   30  C   UNL     1       7.291  32.934  62.195  1.00  0.00     0.036 A 
HETATM   31  C   UNL     1       6.215  33.834  62.188  1.00  0.00     0.048 A 
HETATM   32 CL   UNL     1       5.272  34.169  60.775  1.00  0.00    -0.083 Cl
HETATM   33  C   UNL     1       5.887  34.549  63.348  1.00  0.00     0.025 A 
HETATM   34  C   UNL     1       6.625  34.377  64.520  1.00  0.00     0.002 A 
HETATM   35  C   UNL     1       7.700  33.494  64.538  1.00  0.00     0.001 A 
HETATM   36  C   UNL     1       8.031  32.781  63.385  1.00  0.00     0.017 A 
ENDBRANCH   7  30
TORSDOF 5
ENDMDL
MODEL 3
REMARK VINA RESULT:      -9.9      3.177      4.251
REMARK  5 active torsions:
REMARK  status: ('A' for Active; 'I' for Inactive)
REMARK    1  A    between atoms: C_7  and  C_8 
REMARK    2  A    between atoms: C_16  and  C_17 
REMARK    3  A    between atoms: C_19  and  O_20 
REMARK    4  A    between atoms: C_24  and  C_25 
REMARK       I    between atoms: C_25  and  N_26 
REMARK    5  A    between atoms: N_26  and  C_27 
ROOT
HETATM    1  C   UNL     1       3.543  30.767  54.899  1.00  0.00     0.070 C 
HETATM    2  C   UNL     1       4.544  29.746  55.384  1.00  0.00     0.037 C 
HETATM    3  N   UNL     1       4.914  28.775  54.455  1.00  0.00    -0.192 N 
HETATM    4  C   UNL     1       5.603  27.668  54.797  1.00  0.00     0.726 A 
HETATM    5  N   UNL     1       6.133  27.577  56.050  1.00  0.00    -0.083 N 
HETATM    6  N   UNL     1       6.745  26.395  56.250  1.00  0.00    -0.135 NA
HETATM    7  C   UNL     1       6.567  25.804  55.053  1.00  0.00     0.200 A 
HETATM    8  N   UNL     1       5.881  26.577  54.134  1.00  0.00    -0.041 NA
HETATM    9  C   UNL     1       6.079  28.653  57.042  1.00  0.00     0.202 C 
HETATM   10  C   UNL     1       5.071  29.724  56.636  1.00  0.00     0.062 C 
HETATM   11  H   UNL     1       4.408  28.763  53.571  1.00  0.00     0.184 HD
ENDROOT
BRANCH  10  12
HETATM   12  C   UNL     1       4.514  30.601  57.709  1.00  0.00     0.256 C 
HETATM   13  N   UNL     1       5.280  31.709  57.996  1.00  0.00    -0.323 N 
HETATM   14  H   UNL     1       6.120  31.870  57.455  1.00  0.00     0.169 HD
HETATM   15  O   UNL     1       3.473  30.271  58.265  1.00  0.00    -0.267 OA
BRANCH  13  16
HETATM   16  C   UNL     1       5.038  32.684  58.989  1.00  0.00     0.035 A 
HETATM   17  C   UNL     1       4.131  33.736  58.850  1.00  0.00     0.029 A 
HETATM   18  C   UNL     1       3.956  34.660  59.886  1.00  0.00     0.002 A 
HETATM   19  C   UNL     1       4.676  34.533  61.071  1.00  0.00     0.000 A 
HETATM   20  C   UNL     1       5.581  33.486  61.221  1.00  0.00     0.002 A 
HETATM   21  C   UNL     1       5.766  32.570  60.181  1.00  0.00     0.029 A 
ENDBRANCH  13  16
ENDBRANCH  10  12
BRANCH   9  22
HETATM   22  C   UNL     1       7.495  29.196  57.242  1.00  0.00    -0.025 A 
HETATM   23  C   UNL     1       8.384  29.359  56.162  1.00  0.00     0.046 A 
HETATM   24  C   UNL     1       9.659  29.873  56.381  1.00  0.00     0.066 A 
HETATM   25  C   UNL     1      10.078  30.220  57.659  1.00  0.00     0.036 A 
HETATM   26  C   UNL     1       9.217  30.044  58.739  1.00  0.00     0.003 A 
HETATM   27  C   UNL     1       7.933  29.535  58.535  1.00  0.00     0.010 A 
BRANCH  24  28
HETATM   28  O   UNL     1      10.538  30.056  55.356  1.00  0.00    -0.361 OA
HETATM   29  H   UNL     1      11.189  29.334  55.363  1.00  0.00     0.217 HD
ENDBRANCH  24  28
ENDBRANCH   9  22
BRANCH   7  30
HETATM   30  C   UNL     1       7.132  24.502  54.729  1.00  0.00     0.036 A 
HETATM   31  C   UNL     1       7.730  24.211  53.494  1.00  0.00     0.048 A 
HETATM   32 CL   UNL     1       7.800  25.344  52.187  1.00  0.00    -0.083 Cl
HETATM   33  C   UNL     1       8.265  22.938  53.253  1.00  0.00     0.025 A 
HETATM   34  C   UNL     1       8.208  21.947  54.234  1.00  0.00     0.002 A 
HETATM   35  C   UNL     1       7.610  22.220  55.460  1.00  0.00     0.001 A 
HETATM   36  C   UNL     1       7.075  23.486  55.704  1.00  0.00     0.017 A 
ENDBRANCH   7  30
TORSDOF 5
ENDMDL
MODEL 4
REMARK VINA RESULT:      -9.1      3.167      5.717
REMARK  5 active torsions:
REMARK  status: ('A' for Active; 'I' for Inactive)
REMARK    1  A    between atoms: C_7  and  C_8 
REMARK    2  A    between atoms: C_16  and  C_17 
REMARK    3  A    between atoms: C_19  and  O_20 
REMARK    4  A    between atoms: C_24  and  C_25 
REMARK       I    between atoms: C_25  and  N_26 
REMARK    5  A    between atoms: N_26  and  C_27 
ROOT
HETATM    1  C   UNL     1       3.116  31.134  53.009  1.00  0.00     0.070 C 
HETATM    2  C   UNL     1       3.871  29.938  52.482  1.00  0.00     0.037 C 
HETATM    3  N   UNL     1       3.944  28.842  53.341  1.00  0.00    -0.192 N 
HETATM    4  C   UNL     1       4.772  27.802  53.122  1.00  0.00     0.726 A 
HETATM    5  N   UNL     1       5.421  27.710  51.926  1.00  0.00    -0.083 N 
HETATM    6  N   UNL     1       6.245  26.647  51.885  1.00  0.00    -0.135 NA
HETATM    7  C   UNL     1       6.038  26.108  53.102  1.00  0.00     0.200 A 
HETATM    8  N   UNL     1       5.119  26.793  53.877  1.00  0.00    -0.041 NA
HETATM    9  C   UNL     1       5.212  28.633  50.809  1.00  0.00     0.202 C 
HETATM   10  C   UNL     1       4.468  29.885  51.263  1.00  0.00     0.062 C 
HETATM   11  H   UNL     1       3.583  28.970  54.285  1.00  0.00     0.184 HD
ENDROOT
BRANCH  10  12
HETATM   12  C   UNL     1       4.606  31.118  50.432  1.00  0.00     0.256 C 
HETATM   13  N   UNL     1       5.756  31.839  50.665  1.00  0.00    -0.323 N 
HETATM   14  H   UNL     1       6.424  31.479  51.333  1.00  0.00     0.169 HD
HETATM   15  O   UNL     1       3.705  31.414  49.654  1.00  0.00    -0.267 OA
BRANCH  13  16
HETATM   16  C   UNL     1       6.134  33.065  50.073  1.00  0.00     0.035 A 
HETATM   17  C   UNL     1       6.018  34.306  50.700  1.00  0.00     0.029 A 
HETATM   18  C   UNL     1       6.415  35.473  50.037  1.00  0.00     0.002 A 
HETATM   19  C   UNL     1       6.941  35.406  48.750  1.00  0.00     0.000 A 
HETATM   20  C   UNL     1       7.063  34.173  48.117  1.00  0.00     0.002 A 
HETATM   21  C   UNL     1       6.654  33.008  48.773  1.00  0.00     0.029 A 
ENDBRANCH  13  16
ENDBRANCH  10  12
BRANCH   9  22
HETATM   22  C   UNL     1       4.501  27.877  49.685  1.00  0.00    -0.025 A 
HETATM   23  C   UNL     1       3.097  27.768  49.641  1.00  0.00     0.046 A 
HETATM   24  C   UNL     1       2.485  27.088  48.593  1.00  0.00     0.066 A 
HETATM   25  C   UNL     1       3.240  26.499  47.587  1.00  0.00     0.036 A 
HETATM   26  C   UNL     1       4.629  26.579  47.630  1.00  0.00     0.003 A 
HETATM   27  C   UNL     1       5.258  27.263  48.672  1.00  0.00     0.010 A 
BRANCH  24  28
HETATM   28  O   UNL     1       1.128  26.977  48.513  1.00  0.00    -0.361 OA
HETATM   29  H   UNL     1       0.787  27.668  47.921  1.00  0.00     0.217 HD
ENDBRANCH  24  28
ENDBRANCH   9  22
BRANCH   7  30
HETATM   30  C   UNL     1       6.657  24.859  53.524  1.00  0.00     0.036 A 
HETATM   31  C   UNL     1       6.605  24.385  54.842  1.00  0.00     0.048 A 
HETATM   32 CL   UNL     1       5.860  25.263  56.135  1.00  0.00    -0.083 Cl
HETATM   33  C   UNL     1       7.214  23.167  55.177  1.00  0.00     0.025 A 
HETATM   34  C   UNL     1       7.880  22.417  54.207  1.00  0.00     0.002 A 
HETATM   35  C   UNL     1       7.947  22.882  52.897  1.00  0.00     0.001 A 
HETATM   36  C   UNL     1       7.342  24.094  52.560  1.00  0.00     0.017 A 
ENDBRANCH   7  30
TORSDOF 5
ENDMDL
MODEL 5
REMARK VINA RESULT:      -8.9      3.192      5.544
REMARK  5 active torsions:
REMARK  status: ('A' for Active; 'I' for Inactive)
REMARK    1  A    between atoms: C_7  and  C_8 
REMARK    2  A    between atoms: C_16  and  C_17 
REMARK    3  A    between atoms: C_19  and  O_20 
REMARK    4  A    between atoms: C_24  and  C_25 
REMARK       I    between atoms: C_25  and  N_26 
REMARK    5  A    between atoms: N_26  and  C_27 
ROOT
HETATM    1  C   UNL     1       2.850  31.416  53.393  1.00  0.00     0.070 C 
HETATM    2  C   UNL     1       3.736  30.325  52.842  1.00  0.00     0.037 C 
HETATM    3  N   UNL     1       3.828  29.171  53.620  1.00  0.00    -0.192 N 
HETATM    4  C   UNL     1       4.751  28.214  53.393  1.00  0.00     0.726 A 
HETATM    5  N   UNL     1       5.496  28.267  52.252  1.00  0.00    -0.083 N 
HETATM    6  N   UNL     1       6.401  27.274  52.200  1.00  0.00    -0.135 NA
HETATM    7  C   UNL     1       6.144  26.625  53.351  1.00  0.00     0.200 A 
HETATM    8  N   UNL     1       5.117  27.175  54.097  1.00  0.00    -0.041 NA
HETATM    9  C   UNL     1       5.302  29.261  51.194  1.00  0.00     0.202 C 
HETATM   10  C   UNL     1       4.428  30.415  51.677  1.00  0.00     0.062 C 
HETATM   11  H   UNL     1       3.386  29.195  54.537  1.00  0.00     0.184 HD
ENDROOT
BRANCH  10  12
HETATM   12  C   UNL     1       4.532  31.718  50.955  1.00  0.00     0.256 C 
HETATM   13  N   UNL     1       5.737  32.365  51.115  1.00  0.00    -0.323 N 
HETATM   14  H   UNL     1       6.459  31.914  51.662  1.00  0.00     0.169 HD
HETATM   15  O   UNL     1       3.564  32.126  50.323  1.00  0.00    -0.267 OA
BRANCH  13  16
HETATM   16  C   UNL     1       6.106  33.628  50.601  1.00  0.00     0.035 A 
HETATM   17  C   UNL     1       6.132  34.804  51.353  1.00  0.00     0.029 A 
HETATM   18  C   UNL     1       6.509  36.014  50.760  1.00  0.00     0.002 A 
HETATM   19  C   UNL     1       6.874  36.055  49.417  1.00  0.00     0.000 A 
HETATM   20  C   UNL     1       6.854  34.889  48.659  1.00  0.00     0.002 A 
HETATM   21  C   UNL     1       6.465  33.681  49.247  1.00  0.00     0.029 A 
ENDBRANCH  13  16
ENDBRANCH  10  12
BRANCH   9  22
HETATM   22  C   UNL     1       4.742  28.549  49.961  1.00  0.00    -0.025 A 
HETATM   23  C   UNL     1       5.583  28.076  48.935  1.00  0.00     0.046 A 
HETATM   24  C   UNL     1       5.038  27.417  47.837  1.00  0.00     0.066 A 
HETATM   25  C   UNL     1       3.667  27.227  47.727  1.00  0.00     0.036 A 
HETATM   26  C   UNL     1       2.822  27.710  48.723  1.00  0.00     0.003 A 
HETATM   27  C   UNL     1       3.353  28.367  49.834  1.00  0.00     0.010 A 
BRANCH  24  28
HETATM   28  O   UNL     1       5.826  26.934  46.835  1.00  0.00    -0.361 OA
HETATM   29  H   UNL     1       5.269  26.467  46.189  1.00  0.00     0.217 HD
ENDBRANCH  24  28
ENDBRANCH   9  22
BRANCH   7  30
HETATM   30  C   UNL     1       6.825  25.394  53.729  1.00  0.00     0.036 A 
HETATM   31  C   UNL     1       7.468  25.221  54.963  1.00  0.00     0.048 A 
HETATM   32 CL   UNL     1       7.588  26.474  56.151  1.00  0.00    -0.083 Cl
HETATM   33  C   UNL     1       8.095  24.005  55.265  1.00  0.00     0.025 A 
HETATM   34  C   UNL     1       8.091  22.955  54.345  1.00  0.00     0.002 A 
HETATM   35  C   UNL     1       7.464  23.118  53.114  1.00  0.00     0.001 A 
HETATM   36  C   UNL     1       6.839  24.328  52.807  1.00  0.00     0.017 A 
ENDBRANCH   7  30
TORSDOF 5
ENDMDL
MODEL 6
REMARK VINA RESULT:      -8.6      3.650      6.935
REMARK  5 active torsions:
REMARK  status: ('A' for Active; 'I' for Inactive)
REMARK    1  A    between atoms: C_7  and  C_8 
REMARK    2  A    between atoms: C_16  and  C_17 
REMARK    3  A    between atoms: C_19  and  O_20 
REMARK    4  A    between atoms: C_24  and  C_25 
REMARK       I    between atoms: C_25  and  N_26 
REMARK    5  A    between atoms: N_26  and  C_27 
ROOT
HETATM    1  C   UNL     1       7.884  26.041  57.708  1.00  0.00     0.070 C 
HETATM    2  C   UNL     1       7.244  26.935  56.674  1.00  0.00     0.037 C 
HETATM    3  N   UNL     1       6.472  26.287  55.710  1.00  0.00    -0.192 N 
HETATM    4  C   UNL     1       6.036  26.904  54.594  1.00  0.00     0.726 A 
HETATM    5  N   UNL     1       6.177  28.256  54.484  1.00  0.00    -0.083 N 
HETATM    6  N   UNL     1       5.739  28.710  53.296  1.00  0.00    -0.135 NA
HETATM    7  C   UNL     1       5.318  27.568  52.719  1.00  0.00     0.200 A 
HETATM    8  N   UNL     1       5.474  26.442  53.508  1.00  0.00    -0.041 NA
HETATM    9  C   UNL     1       6.701  29.113  55.550  1.00  0.00     0.202 C 
HETATM   10  C   UNL     1       7.386  28.285  56.634  1.00  0.00     0.062 C 
HETATM   11  H   UNL     1       6.489  25.269  55.712  1.00  0.00     0.184 HD
ENDROOT
BRANCH  10  12
HETATM   12  C   UNL     1       8.390  28.968  57.503  1.00  0.00     0.256 C 
HETATM   13  N   UNL     1       7.848  29.707  58.531  1.00  0.00    -0.323 N 
HETATM   14  H   UNL     1       6.843  29.709  58.647  1.00  0.00     0.169 HD
HETATM   15  O   UNL     1       9.581  28.859  57.233  1.00  0.00    -0.267 OA
BRANCH  13  16
HETATM   16  C   UNL     1       8.539  30.497  59.475  1.00  0.00     0.035 A 
HETATM   17  C   UNL     1       9.244  31.660  59.159  1.00  0.00     0.029 A 
HETATM   18  C   UNL     1       9.905  32.382  60.160  1.00  0.00     0.002 A 
HETATM   19  C   UNL     1       9.855  31.953  61.484  1.00  0.00     0.000 A 
HETATM   20  C   UNL     1       9.153  30.797  61.810  1.00  0.00     0.002 A 
HETATM   21  C   UNL     1       8.504  30.068  60.810  1.00  0.00     0.029 A 
ENDBRANCH  13  16
ENDBRANCH  10  12
BRANCH   9  22
HETATM   22  C   UNL     1       5.557  29.979  56.080  1.00  0.00    -0.025 A 
HETATM   23  C   UNL     1       4.873  29.655  57.268  1.00  0.00     0.046 A 
HETATM   24  C   UNL     1       3.849  30.477  57.728  1.00  0.00     0.066 A 
HETATM   25  C   UNL     1       3.478  31.616  57.024  1.00  0.00     0.036 A 
HETATM   26  C   UNL     1       4.130  31.936  55.836  1.00  0.00     0.003 A 
HETATM   27  C   UNL     1       5.163  31.124  55.365  1.00  0.00     0.010 A 
BRANCH  24  28
HETATM   28  O   UNL     1       3.178  30.199  58.882  1.00  0.00    -0.361 OA
HETATM   29  H   UNL     1       3.762  29.698  59.476  1.00  0.00     0.217 HD
ENDBRANCH  24  28
ENDBRANCH   9  22
BRANCH   7  30
HETATM   30  C   UNL     1       4.668  27.539  51.417  1.00  0.00     0.036 A 
HETATM   31  C   UNL     1       3.699  28.474  51.022  1.00  0.00     0.048 A 
HETATM   32 CL   UNL     1       3.113  29.725  52.064  1.00  0.00    -0.083 Cl
HETATM   33  C   UNL     1       3.122  28.393  49.747  1.00  0.00     0.025 A 
HETATM   34  C   UNL     1       3.500  27.385  48.859  1.00  0.00     0.002 A 
HETATM   35  C   UNL     1       4.453  26.448  49.242  1.00  0.00     0.001 A 
HETATM   36  C   UNL     1       5.031  26.523  50.511  1.00  0.00     0.017 A 
ENDBRANCH   7  30
TORSDOF 5
ENDMDL
MODEL 7
REMARK VINA RESULT:      -8.6      3.732      6.366
REMARK  5 active torsions:
REMARK  status: ('A' for Active; 'I' for Inactive)
REMARK    1  A    between atoms: C_7  and  C_8 
REMARK    2  A    between atoms: C_16  and  C_17 
REMARK    3  A    between atoms: C_19  and  O_20 
REMARK    4  A    between atoms: C_24  and  C_25 
REMARK       I    between atoms: C_25  and  N_26 
REMARK    5  A    between atoms: N_26  and  C_27 
ROOT
HETATM    1  C   UNL     1       2.362  32.415  52.023  1.00  0.00     0.070 C 
HETATM    2  C   UNL     1       3.267  31.212  51.915  1.00  0.00     0.037 C 
HETATM    3  N   UNL     1       3.146  30.271  52.937  1.00  0.00    -0.192 N 
HETATM    4  C   UNL     1       4.036  29.274  53.116  1.00  0.00     0.726 A 
HETATM    5  N   UNL     1       4.979  29.047  52.158  1.00  0.00    -0.083 N 
HETATM    6  N   UNL     1       5.818  28.055  52.508  1.00  0.00    -0.135 NA
HETATM    7  C   UNL     1       5.315  27.698  53.705  1.00  0.00     0.200 A 
HETATM    8  N   UNL     1       4.204  28.424  54.094  1.00  0.00    -0.041 NA
HETATM    9  C   UNL     1       5.042  29.767  50.885  1.00  0.00     0.202 C 
HETATM   10  C   UNL     1       4.165  31.015  50.915  1.00  0.00     0.062 C 
HETATM   11  H   UNL     1       2.546  30.516  53.723  1.00  0.00     0.184 HD
ENDROOT
BRANCH  10  12
HETATM   12  C   UNL     1       4.478  32.111  49.950  1.00  0.00     0.256 C 
HETATM   13  N   UNL     1       5.711  32.697  50.130  1.00  0.00    -0.323 N 
HETATM   14  H   UNL     1       6.317  32.335  50.855  1.00  0.00     0.169 HD
HETATM   15  O   UNL     1       3.635  32.428  49.118  1.00  0.00    -0.267 OA
BRANCH  13  16
HETATM   16  C   UNL     1       6.257  33.783  49.411  1.00  0.00     0.035 A 
HETATM   17  C   UNL     1       6.174  35.115  49.819  1.00  0.00     0.029 A 
HETATM   18  C   UNL     1       6.743  36.130  49.041  1.00  0.00     0.002 A 
HETATM   19  C   UNL     1       7.407  35.820  47.858  1.00  0.00     0.000 A 
HETATM   20  C   UNL     1       7.498  34.495  47.443  1.00  0.00     0.002 A 
HETATM   21  C   UNL     1       6.919  33.482  48.212  1.00  0.00     0.029 A 
ENDBRANCH  13  16
ENDBRANCH  10  12
BRANCH   9  22
HETATM   22  C   UNL     1       4.676  28.795  49.761  1.00  0.00    -0.025 A 
HETATM   23  C   UNL     1       5.619  28.396  48.794  1.00  0.00     0.046 A 
HETATM   24  C   UNL     1       5.254  27.495  47.797  1.00  0.00     0.066 A 
HETATM   25  C   UNL     1       3.963  26.988  47.732  1.00  0.00     0.036 A 
HETATM   26  C   UNL     1       3.015  27.392  48.669  1.00  0.00     0.003 A 
HETATM   27  C   UNL     1       3.367  28.290  49.678  1.00  0.00     0.010 A 
BRANCH  24  28
HETATM   28  O   UNL     1       6.146  27.078  46.855  1.00  0.00    -0.361 OA
HETATM   29  H   UNL     1       5.711  27.073  45.985  1.00  0.00     0.217 HD
ENDBRANCH  24  28
ENDBRANCH   9  22
BRANCH   7  30
HETATM   30  C   UNL     1       5.841  26.580  54.476  1.00  0.00     0.036 A 
HETATM   31  C   UNL     1       5.722  25.243  54.068  1.00  0.00     0.048 A 
HETATM   32 CL   UNL     1       4.875  24.763  52.636  1.00  0.00    -0.083 Cl
HETATM   33  C   UNL     1       6.263  24.216  54.854  1.00  0.00     0.025 A 
HETATM   34  C   UNL     1       6.921  24.509  56.050  1.00  0.00     0.002 A 
HETATM   35  C   UNL     1       7.037  25.830  56.470  1.00  0.00     0.001 A 
HETATM   36  C   UNL     1       6.499  26.856  55.691  1.00  0.00     0.017 A 
ENDBRANCH   7  30
TORSDOF 5
ENDMDL
MODEL 8
REMARK VINA RESULT:      -8.3      4.023      7.708
REMARK  5 active torsions:
REMARK  status: ('A' for Active; 'I' for Inactive)
REMARK    1  A    between atoms: C_7  and  C_8 
REMARK    2  A    between atoms: C_16  and  C_17 
REMARK    3  A    between atoms: C_19  and  O_20 
REMARK    4  A    between atoms: C_24  and  C_25 
REMARK       I    between atoms: C_25  and  N_26 
REMARK    5  A    between atoms: N_26  and  C_27 
ROOT
HETATM    1  C   UNL     1       1.952  31.948  55.388  1.00  0.00     0.070 C 
HETATM    2  C   UNL     1       3.293  31.535  55.943  1.00  0.00     0.037 C 
HETATM    3  N   UNL     1       3.470  31.741  57.311  1.00  0.00    -0.192 N 
HETATM    4  C   UNL     1       4.674  31.650  57.909  1.00  0.00     0.726 A 
HETATM    5  N   UNL     1       5.729  31.149  57.205  1.00  0.00    -0.083 N 
HETATM    6  N   UNL     1       6.866  31.172  57.923  1.00  0.00    -0.135 NA
HETATM    7  C   UNL     1       6.429  31.690  59.087  1.00  0.00     0.200 A 
HETATM    8  N   UNL     1       5.076  31.977  59.109  1.00  0.00    -0.041 NA
HETATM    9  C   UNL     1       5.625  30.613  55.846  1.00  0.00     0.202 C 
HETATM   10  C   UNL     1       4.299  31.003  55.201  1.00  0.00     0.062 C 
HETATM   11  H   UNL     1       2.734  32.246  57.801  1.00  0.00     0.184 HD
ENDROOT
BRANCH  10  12
HETATM   12  C   UNL     1       4.219  30.996  53.709  1.00  0.00     0.256 C 
HETATM   13  N   UNL     1       4.010  29.754  53.154  1.00  0.00    -0.323 N 
HETATM   14  H   UNL     1       3.892  28.962  53.772  1.00  0.00     0.169 HD
HETATM   15  O   UNL     1       4.376  32.050  53.102  1.00  0.00    -0.267 OA
BRANCH  13  16
HETATM   16  C   UNL     1       3.943  29.430  51.781  1.00  0.00     0.035 A 
HETATM   17  C   UNL     1       5.059  29.255  50.961  1.00  0.00     0.029 A 
HETATM   18  C   UNL     1       4.900  28.937  49.607  1.00  0.00     0.002 A 
HETATM   19  C   UNL     1       3.626  28.780  49.067  1.00  0.00     0.000 A 
HETATM   20  C   UNL     1       2.507  28.950  49.876  1.00  0.00     0.002 A 
HETATM   21  C   UNL     1       2.665  29.281  51.225  1.00  0.00     0.029 A 
ENDBRANCH  13  16
ENDBRANCH  10  12
BRANCH   9  22
HETATM   22  C   UNL     1       5.850  29.101  55.905  1.00  0.00    -0.025 A 
HETATM   23  C   UNL     1       4.944  28.245  56.562  1.00  0.00     0.046 A 
HETATM   24  C   UNL     1       5.173  26.872  56.580  1.00  0.00     0.066 A 
HETATM   25  C   UNL     1       6.294  26.327  55.967  1.00  0.00     0.036 A 
HETATM   26  C   UNL     1       7.209  27.165  55.334  1.00  0.00     0.003 A 
HETATM   27  C   UNL     1       6.991  28.543  55.302  1.00  0.00     0.010 A 
BRANCH  24  28
HETATM   28  O   UNL     1       4.309  26.015  57.194  1.00  0.00    -0.361 OA
HETATM   29  H   UNL     1       4.108  26.350  58.084  1.00  0.00     0.217 HD
ENDBRANCH  24  28
ENDBRANCH   9  22
BRANCH   7  30
HETATM   30  C   UNL     1       7.291  31.845  60.251  1.00  0.00     0.036 A 
HETATM   31  C   UNL     1       8.691  31.878  60.170  1.00  0.00     0.048 A 
HETATM   32 CL   UNL     1       9.558  31.666  58.686  1.00  0.00    -0.083 Cl
HETATM   33  C   UNL     1       9.460  32.041  61.330  1.00  0.00     0.025 A 
HETATM   34  C   UNL     1       8.845  32.170  62.577  1.00  0.00     0.002 A 
HETATM   35  C   UNL     1       7.458  32.130  62.671  1.00  0.00     0.001 A 
HETATM   36  C   UNL     1       6.688  31.966  61.518  1.00  0.00     0.017 A 
ENDBRANCH   7  30
TORSDOF 5
ENDMDL
MODEL 9
REMARK VINA RESULT:      -8.1      3.408      5.806
REMARK  5 active torsions:
REMARK  status: ('A' for Active; 'I' for Inactive)
REMARK    1  A    between atoms: C_7  and  C_8 
REMARK    2  A    between atoms: C_16  and  C_17 
REMARK    3  A    between atoms: C_19  and  O_20 
REMARK    4  A    between atoms: C_24  and  C_25 
REMARK       I    between atoms: C_25  and  N_26 
REMARK    5  A    between atoms: N_26  and  C_27 
ROOT
HETATM    1  C   UNL     1       2.865  31.864  53.121  1.00  0.00     0.070 C 
HETATM    2  C   UNL     1       3.737  30.712  52.683  1.00  0.00     0.037 C 
HETATM    3  N   UNL     1       3.761  29.613  53.539  1.00  0.00    -0.192 N 
HETATM    4  C   UNL     1       4.660  28.616  53.417  1.00  0.00     0.726 A 
HETATM    5  N   UNL     1       5.453  28.569  52.307  1.00  0.00    -0.083 N 
HETATM    6  N   UNL     1       6.327  27.549  52.360  1.00  0.00    -0.135 NA
HETATM    7  C   UNL     1       6.003  26.988  53.541  1.00  0.00     0.200 A 
HETATM    8  N   UNL     1       4.965  27.618  54.203  1.00  0.00    -0.041 NA
HETATM    9  C   UNL     1       5.333  29.493  51.178  1.00  0.00     0.202 C 
HETATM   10  C   UNL     1       4.478  30.702  51.544  1.00  0.00     0.062 C 
HETATM   11  H   UNL     1       3.283  29.712  54.433  1.00  0.00     0.184 HD
ENDROOT
BRANCH  10  12
HETATM   12  C   UNL     1       4.653  31.950  50.741  1.00  0.00     0.256 C 
HETATM   13  N   UNL     1       3.771  32.083  49.692  1.00  0.00    -0.323 N 
HETATM   14  H   UNL     1       3.065  31.371  49.561  1.00  0.00     0.169 HD
HETATM   15  O   UNL     1       5.557  32.723  51.037  1.00  0.00    -0.267 OA
BRANCH  13  16
HETATM   16  C   UNL     1       3.728  33.121  48.736  1.00  0.00     0.035 A 
HETATM   17  C   UNL     1       3.068  34.336  48.928  1.00  0.00     0.029 A 
HETATM   18  C   UNL     1       3.073  35.311  47.924  1.00  0.00     0.002 A 
HETATM   19  C   UNL     1       3.748  35.083  46.727  1.00  0.00     0.000 A 
HETATM   20  C   UNL     1       4.411  33.876  46.527  1.00  0.00     0.002 A 
HETATM   21  C   UNL     1       4.395  32.897  47.524  1.00  0.00     0.029 A 
ENDBRANCH  13  16
ENDBRANCH  10  12
BRANCH   9  22
HETATM   22  C   UNL     1       4.800  28.715  49.972  1.00  0.00    -0.025 A 
HETATM   23  C   UNL     1       5.653  28.276  48.941  1.00  0.00     0.046 A 
HETATM   24  C   UNL     1       5.135  27.555  47.869  1.00  0.00     0.066 A 
HETATM   25  C   UNL     1       3.779  27.269  47.791  1.00  0.00     0.036 A 
HETATM   26  C   UNL     1       2.920  27.717  48.792  1.00  0.00     0.003 A 
HETATM   27  C   UNL     1       3.426  28.436  49.877  1.00  0.00     0.010 A 
BRANCH  24  28
HETATM   28  O   UNL     1       5.936  27.103  46.863  1.00  0.00    -0.361 OA
HETATM   29  H   UNL     1       6.840  26.989  47.203  1.00  0.00     0.217 HD
ENDBRANCH  24  28
ENDBRANCH   9  22
BRANCH   7  30
HETATM   30  C   UNL     1       6.629  25.766  54.028  1.00  0.00     0.036 A 
HETATM   31  C   UNL     1       7.351  25.701  55.229  1.00  0.00     0.048 A 
HETATM   32 CL   UNL     1       7.641  27.081  56.234  1.00  0.00    -0.083 Cl
HETATM   33  C   UNL     1       7.918  24.489  55.644  1.00  0.00     0.025 A 
HETATM   34  C   UNL     1       7.775  23.336  54.870  1.00  0.00     0.002 A 
HETATM   35  C   UNL     1       7.069  23.390  53.673  1.00  0.00     0.001 A 
HETATM   36  C   UNL     1       6.503  24.595  53.255  1.00  0.00     0.017 A 
ENDBRANCH   7  30
TORSDOF 5
ENDMDL
MODEL 10
REMARK VINA RESULT:      -7.9      4.227      6.503
REMARK  5 active torsions:
REMARK  status: ('A' for Active; 'I' for Inactive)
REMARK    1  A    between atoms: C_7  and  C_8 
REMARK    2  A    between atoms: C_16  and  C_17 
REMARK    3  A    between atoms: C_19  and  O_20 
REMARK    4  A    between atoms: C_24  and  C_25 
REMARK       I    between atoms: C_25  and  N_26 
REMARK    5  A    between atoms: N_26  and  C_27 
ROOT
HETATM    1  C   UNL     1       4.604  33.800  53.794  1.00  0.00     0.070 C 
HETATM    2  C   UNL     1       4.312  32.355  53.471  1.00  0.00     0.037 C 
HETATM    3  N   UNL     1       4.603  31.957  52.167  1.00  0.00    -0.192 N 
HETATM    4  C   UNL     1       4.184  30.782  51.656  1.00  0.00     0.726 A 
HETATM    5  N   UNL     1       3.625  29.857  52.489  1.00  0.00    -0.083 N 
HETATM    6  N   UNL     1       3.216  28.765  51.820  1.00  0.00    -0.135 NA
HETATM    7  C   UNL     1       3.574  29.080  50.560  1.00  0.00     0.200 A 
HETATM    8  N   UNL     1       4.189  30.312  50.437  1.00  0.00    -0.041 NA
HETATM    9  C   UNL     1       3.526  30.018  53.941  1.00  0.00     0.202 C 
HETATM   10  C   UNL     1       3.790  31.463  54.353  1.00  0.00     0.062 C 
HETATM   11  H   UNL     1       4.883  32.685  51.513  1.00  0.00     0.184 HD
ENDROOT
BRANCH  10  12
HETATM   12  C   UNL     1       3.253  31.923  55.669  1.00  0.00     0.256 C 
HETATM   13  N   UNL     1       4.199  32.047  56.661  1.00  0.00    -0.323 N 
HETATM   14  H   UNL     1       5.167  31.862  56.431  1.00  0.00     0.169 HD
HETATM   15  O   UNL     1       2.047  32.116  55.783  1.00  0.00    -0.267 OA
BRANCH  13  16
HETATM   16  C   UNL     1       3.985  32.409  58.009  1.00  0.00     0.035 A 
HETATM   17  C   UNL     1       3.604  31.514  59.010  1.00  0.00     0.029 A 
HETATM   18  C   UNL     1       3.411  31.961  60.322  1.00  0.00     0.002 A 
HETATM   19  C   UNL     1       3.608  33.301  60.645  1.00  0.00     0.000 A 
HETATM   20  C   UNL     1       3.990  34.201  59.655  1.00  0.00     0.002 A 
HETATM   21  C   UNL     1       4.171  33.759  58.341  1.00  0.00     0.029 A 
ENDBRANCH  13  16
ENDBRANCH  10  12
BRANCH   9  22
HETATM   22  C   UNL     1       4.471  29.015  54.604  1.00  0.00    -0.025 A 
HETATM   23  C   UNL     1       4.040  28.169  55.644  1.00  0.00     0.046 A 
HETATM   24  C   UNL     1       4.924  27.256  56.211  1.00  0.00     0.066 A 
HETATM   25  C   UNL     1       6.240  27.172  55.774  1.00  0.00     0.036 A 
HETATM   26  C   UNL     1       6.686  28.018  54.762  1.00  0.00     0.003 A 
HETATM   27  C   UNL     1       5.809  28.935  54.179  1.00  0.00     0.010 A 
BRANCH  24  28
HETATM   28  O   UNL     1       4.534  26.414  57.209  1.00  0.00    -0.361 OA
HETATM   29  H   UNL     1       3.564  26.434  57.281  1.00  0.00     0.217 HD
ENDBRANCH  24  28
ENDBRANCH   9  22
BRANCH   7  30
HETATM   30  C   UNL     1       3.411  28.160  49.443  1.00  0.00     0.036 A 
HETATM   31  C   UNL     1       4.116  26.952  49.336  1.00  0.00     0.048 A 
HETATM   32 CL   UNL     1       5.312  26.450  50.482  1.00  0.00    -0.083 Cl
HETATM   33  C   UNL     1       3.901  26.107  48.238  1.00  0.00     0.025 A 
HETATM   34  C   UNL     1       2.990  26.457  47.240  1.00  0.00     0.002 A 
HETATM   35  C   UNL     1       2.292  27.657  47.331  1.00  0.00     0.001 A 
HETATM   36  C   UNL     1       2.503  28.502  48.422  1.00  0.00     0.017 A 
ENDBRANCH   7  30
TORSDOF 5
ENDMDL
