MODEL 1
REMARK VINA RESULT:      -9.3      0.000      0.000
REMARK  6 active torsions:
REMARK  status: ('A' for Active; 'I' for Inactive)
REMARK    1  A    between atoms: C_2  and  N_3 
REMARK    2  A    between atoms: C_2  and  C_25 
REMARK       I    between atoms: N_3  and  C_4 
REMARK    3  A    between atoms: C_4  and  C_5 
REMARK    4  A    between atoms: C_5  and  N_6 
REMARK    5  A    between atoms: C_10  and  N_11 
REMARK       I    between atoms: N_11  and  C_12 
REMARK       I    between atoms: C_12  and  N_13 
REMARK    6  A    between atoms: N_13  and  C_14 
ROOT
HETATM    1  N   UNL     1       7.639  28.234  56.511  1.00  0.00    -0.063 N 
HETATM    2  H   UNL     1       7.805  28.428  55.513  1.00  0.00     0.280 HD
HETATM    3  C   UNL     1       6.441  29.066  56.909  1.00  0.00     0.237 C 
HETATM    4  C   UNL     1       6.807  30.516  57.150  1.00  0.00     0.053 C 
HETATM    5  C   UNL     1       7.969  30.700  58.118  1.00  0.00     0.089 C 
HETATM    6  C   UNL     1       9.181  29.904  57.647  1.00  0.00     0.053 C 
HETATM    7  C   UNL     1       8.917  28.455  57.280  1.00  0.00     0.237 C 
ENDROOT
BRANCH   1   8
HETATM    8  C   UNL     1       7.284  26.734  56.578  1.00  0.00     0.337 C 
BRANCH   8   9
HETATM    9  C   UNL     1       7.538  26.002  55.260  1.00  0.00     0.244 C 
HETATM   10  N   UNL     1       7.610  24.636  55.363  1.00  0.00    -0.351 N 
HETATM   11  H   UNL     1       7.486  24.170  56.256  1.00  0.00     0.163 HD
HETATM   12  O   UNL     1       7.589  26.623  54.203  1.00  0.00    -0.272 OA
BRANCH  10  13
HETATM   13  C   UNL     1       7.772  23.759  54.211  1.00  0.00     0.120 C 
HETATM   14  C   UNL     1       6.547  23.781  53.298  1.00  0.00     0.038 C 
BRANCH  13  15
HETATM   15  C   UNL     1       8.065  22.370  54.726  1.00  0.00     0.005 A 
HETATM   16  S   UNL     1       8.432  21.076  53.651  1.00  0.00    -0.104 SA
HETATM   17  C   UNL     1       8.609  19.966  54.937  1.00  0.00     0.050 A 
HETATM   18  C   UNL     1       8.393  20.556  56.161  1.00  0.00     0.008 A 
HETATM   19  C   UNL     1       8.079  21.941  56.040  1.00  0.00     0.017 A 
ENDBRANCH  13  15
ENDBRANCH  10  13
ENDBRANCH   8   9
ENDBRANCH   1   8
BRANCH   5  20
HETATM   20  N   UNL     1       7.587  30.540  59.524  1.00  0.00    -0.338 N 
HETATM   21  C   UNL     1       7.123  31.518  60.371  1.00  0.00     0.321 C 
HETATM   22  N   UNL     1       7.163  31.121  61.685  1.00  0.00    -0.309 N 
HETATM   23  O   UNL     1       6.812  32.631  59.970  1.00  0.00    -0.247 OA
HETATM   24  H   UNL     1       7.708  30.295  61.887  1.00  0.00     0.170 HD
HETATM   25  H   UNL     1       7.522  29.590  59.871  1.00  0.00     0.164 HD
BRANCH  22  26
HETATM   26  C   UNL     1       6.818  31.921  62.798  1.00  0.00     0.036 A 
HETATM   27  C   UNL     1       5.497  32.146  63.206  1.00  0.00     0.032 A 
HETATM   28  C   UNL     1       5.224  32.983  64.291  1.00  0.00     0.044 A 
HETATM   29  C   UNL     1       6.271  33.591  64.969  1.00  0.00     0.116 A 
HETATM   30  F   UNL     1       6.007  34.405  65.998  1.00  0.00    -0.206 F 
HETATM   31  C   UNL     1       7.589  33.363  64.595  1.00  0.00     0.044 A 
HETATM   32  C   UNL     1       7.864  32.519  63.515  1.00  0.00     0.032 A 
ENDBRANCH  22  26
ENDBRANCH   5  20
TORSDOF 6
ENDMDL
MODEL 2
REMARK VINA RESULT:      -9.1      5.026     10.959
REMARK  6 active torsions:
REMARK  status: ('A' for Active; 'I' for Inactive)
REMARK    1  A    between atoms: C_2  and  N_3 
REMARK    2  A    between atoms: C_2  and  C_25 
REMARK       I    between atoms: N_3  and  C_4 
REMARK    3  A    between atoms: C_4  and  C_5 
REMARK    4  A    between atoms: C_5  and  N_6 
REMARK    5  A    between atoms: C_10  and  N_11 
REMARK       I    between atoms: N_11  and  C_12 
REMARK       I    between atoms: C_12  and  N_13 
REMARK    6  A    between atoms: N_13  and  C_14 
ROOT
HETATM    1  N   UNL     1       7.794  29.479  57.355  1.00  0.00    -0.063 N 
HETATM    2  H   UNL     1       7.231  30.160  57.885  1.00  0.00     0.280 HD
HETATM    3  C   UNL     1       7.464  29.702  55.897  1.00  0.00     0.237 C 
HETATM    4  C   UNL     1       6.148  29.066  55.505  1.00  0.00     0.053 C 
HETATM    5  C   UNL     1       6.041  27.595  55.890  1.00  0.00     0.089 C 
HETATM    6  C   UNL     1       6.309  27.418  57.380  1.00  0.00     0.053 C 
HETATM    7  C   UNL     1       7.558  28.098  57.912  1.00  0.00     0.237 C 
ENDROOT
BRANCH   1   8
HETATM    8  C   UNL     1       9.263  29.869  57.629  1.00  0.00     0.337 C 
BRANCH   8   9
HETATM    9  C   UNL     1       9.396  31.127  58.487  1.00  0.00     0.244 C 
HETATM   10  N   UNL     1       8.528  31.198  59.546  1.00  0.00    -0.351 N 
HETATM   11  H   UNL     1       7.867  30.451  59.733  1.00  0.00     0.163 HD
HETATM   12  O   UNL     1      10.278  31.948  58.255  1.00  0.00    -0.272 OA
BRANCH  10  13
HETATM   13  C   UNL     1       8.548  32.280  60.520  1.00  0.00     0.120 C 
HETATM   14  C   UNL     1       9.374  31.923  61.755  1.00  0.00     0.038 C 
BRANCH  13  15
HETATM   15  C   UNL     1       7.118  32.608  60.876  1.00  0.00     0.005 A 
HETATM   16  S   UNL     1       6.714  33.331  62.386  1.00  0.00    -0.104 SA
HETATM   17  C   UNL     1       5.049  33.354  62.009  1.00  0.00     0.050 A 
HETATM   18  C   UNL     1       4.794  32.822  60.766  1.00  0.00     0.008 A 
HETATM   19  C   UNL     1       5.985  32.392  60.113  1.00  0.00     0.017 A 
ENDBRANCH  13  15
ENDBRANCH  10  13
ENDBRANCH   8   9
ENDBRANCH   1   8
BRANCH   5  20
HETATM   20  N   UNL     1       6.767  26.702  54.982  1.00  0.00    -0.338 N 
HETATM   21  C   UNL     1       6.802  25.329  55.027  1.00  0.00     0.321 C 
HETATM   22  N   UNL     1       7.813  24.816  54.251  1.00  0.00    -0.309 N 
HETATM   23  O   UNL     1       6.065  24.683  55.758  1.00  0.00    -0.247 OA
HETATM   24  H   UNL     1       8.515  25.472  53.939  1.00  0.00     0.170 HD
HETATM   25  H   UNL     1       7.169  27.126  54.154  1.00  0.00     0.164 HD
BRANCH  22  26
HETATM   26  C   UNL     1       8.152  23.449  54.139  1.00  0.00     0.036 A 
HETATM   27  C   UNL     1       7.774  22.646  53.056  1.00  0.00     0.032 A 
HETATM   28  C   UNL     1       8.107  21.289  53.028  1.00  0.00     0.044 A 
HETATM   29  C   UNL     1       8.822  20.737  54.082  1.00  0.00     0.116 A 
HETATM   30  F   UNL     1       9.126  19.434  54.062  1.00  0.00    -0.206 F 
HETATM   31  C   UNL     1       9.227  21.521  55.155  1.00  0.00     0.044 A 
HETATM   32  C   UNL     1       8.902  22.880  55.179  1.00  0.00     0.032 A 
ENDBRANCH  22  26
ENDBRANCH   5  20
TORSDOF 6
ENDMDL
MODEL 3
REMARK VINA RESULT:      -9.1      4.887     11.016
REMARK  6 active torsions:
REMARK  status: ('A' for Active; 'I' for Inactive)
REMARK    1  A    between atoms: C_2  and  N_3 
REMARK    2  A    between atoms: C_2  and  C_25 
REMARK       I    between atoms: N_3  and  C_4 
REMARK    3  A    between atoms: C_4  and  C_5 
REMARK    4  A    between atoms: C_5  and  N_6 
REMARK    5  A    between atoms: C_10  and  N_11 
REMARK       I    between atoms: N_11  and  C_12 
REMARK       I    between atoms: C_12  and  N_13 
REMARK    6  A    between atoms: N_13  and  C_14 
ROOT
HETATM    1  N   UNL     1       5.580  29.794  56.267  1.00  0.00    -0.063 N 
HETATM    2  H   UNL     1       5.573  30.721  55.817  1.00  0.00     0.280 HD
HETATM    3  C   UNL     1       6.948  29.207  56.005  1.00  0.00     0.237 C 
HETATM    4  C   UNL     1       7.068  28.638  54.607  1.00  0.00     0.053 C 
HETATM    5  C   UNL     1       5.955  27.661  54.247  1.00  0.00     0.089 C 
HETATM    6  C   UNL     1       4.592  28.311  54.455  1.00  0.00     0.053 C 
HETATM    7  C   UNL     1       4.388  29.003  55.791  1.00  0.00     0.237 C 
ENDROOT
BRANCH   1   8
HETATM    8  C   UNL     1       5.406  30.075  57.775  1.00  0.00     0.337 C 
BRANCH   8   9
HETATM    9  C   UNL     1       6.168  31.315  58.242  1.00  0.00     0.244 C 
HETATM   10  N   UNL     1       7.151  31.074  59.167  1.00  0.00    -0.351 N 
HETATM   11  H   UNL     1       7.347  30.132  59.490  1.00  0.00     0.163 HD
HETATM   12  O   UNL     1       5.938  32.412  57.742  1.00  0.00    -0.272 OA
BRANCH  10  13
HETATM   13  C   UNL     1       8.034  32.113  59.679  1.00  0.00     0.120 C 
HETATM   14  C   UNL     1       9.508  31.769  59.461  1.00  0.00     0.038 C 
BRANCH  13  15
HETATM   15  C   UNL     1       7.714  32.313  61.140  1.00  0.00     0.005 A 
HETATM   16  S   UNL     1       6.176  32.898  61.648  1.00  0.00    -0.104 SA
HETATM   17  C   UNL     1       6.619  32.838  63.295  1.00  0.00     0.050 A 
HETATM   18  C   UNL     1       7.908  32.388  63.467  1.00  0.00     0.008 A 
HETATM   19  C   UNL     1       8.539  32.086  62.226  1.00  0.00     0.017 A 
ENDBRANCH  13  15
ENDBRANCH  10  13
ENDBRANCH   8   9
ENDBRANCH   1   8
BRANCH   5  20
HETATM   20  N   UNL     1       6.142  26.328  54.828  1.00  0.00    -0.338 N 
HETATM   21  C   UNL     1       7.007  25.352  54.396  1.00  0.00     0.321 C 
HETATM   22  N   UNL     1       6.713  24.127  54.944  1.00  0.00    -0.309 N 
HETATM   23  O   UNL     1       7.863  25.570  53.551  1.00  0.00    -0.247 OA
HETATM   24  H   UNL     1       5.812  24.041  55.392  1.00  0.00     0.170 HD
HETATM   25  H   UNL     1       5.693  26.156  55.721  1.00  0.00     0.164 HD
BRANCH  22  26
HETATM   26  C   UNL     1       7.374  22.913  54.648  1.00  0.00     0.036 A 
HETATM   27  C   UNL     1       7.531  22.417  53.348  1.00  0.00     0.032 A 
HETATM   28  C   UNL     1       8.158  21.188  53.129  1.00  0.00     0.044 A 
HETATM   29  C   UNL     1       8.632  20.457  54.210  1.00  0.00     0.116 A 
HETATM   30  F   UNL     1       9.219  19.273  54.000  1.00  0.00    -0.206 F 
HETATM   31  C   UNL     1       8.508  20.942  55.506  1.00  0.00     0.044 A 
HETATM   32  C   UNL     1       7.888  22.176  55.725  1.00  0.00     0.032 A 
ENDBRANCH  22  26
ENDBRANCH   5  20
TORSDOF 6
ENDMDL
MODEL 4
REMARK VINA RESULT:      -8.9      2.449      3.663
REMARK  6 active torsions:
REMARK  status: ('A' for Active; 'I' for Inactive)
REMARK    1  A    between atoms: C_2  and  N_3 
REMARK    2  A    between atoms: C_2  and  C_25 
REMARK       I    between atoms: N_3  and  C_4 
REMARK    3  A    between atoms: C_4  and  C_5 
REMARK    4  A    between atoms: C_5  and  N_6 
REMARK    5  A    between atoms: C_10  and  N_11 
REMARK       I    between atoms: N_11  and  C_12 
REMARK       I    between atoms: C_12  and  N_13 
REMARK    6  A    between atoms: N_13  and  C_14 
ROOT
HETATM    1  N   UNL     1       7.336  27.971  56.680  1.00  0.00    -0.063 N 
HETATM    2  H   UNL     1       7.452  28.111  55.666  1.00  0.00     0.280 HD
HETATM    3  C   UNL     1       6.201  28.876  57.104  1.00  0.00     0.237 C 
HETATM    4  C   UNL     1       6.643  30.316  57.252  1.00  0.00     0.053 C 
HETATM    5  C   UNL     1       7.867  30.491  58.143  1.00  0.00     0.089 C 
HETATM    6  C   UNL     1       9.014  29.618  57.644  1.00  0.00     0.053 C 
HETATM    7  C   UNL     1       8.665  28.167  57.363  1.00  0.00     0.237 C 
ENDROOT
BRANCH   1   8
HETATM    8  C   UNL     1       6.921  26.493  56.840  1.00  0.00     0.337 C 
BRANCH   8   9
HETATM    9  C   UNL     1       6.368  25.886  55.551  1.00  0.00     0.244 C 
HETATM   10  N   UNL     1       7.074  26.197  54.417  1.00  0.00    -0.351 N 
HETATM   11  H   UNL     1       7.906  26.777  54.461  1.00  0.00     0.163 HD
HETATM   12  O   UNL     1       5.409  25.121  55.584  1.00  0.00    -0.272 OA
BRANCH  10  13
HETATM   13  C   UNL     1       6.750  25.657  53.104  1.00  0.00     0.120 C 
HETATM   14  C   UNL     1       7.983  25.096  52.396  1.00  0.00     0.038 C 
BRANCH  13  15
HETATM   15  C   UNL     1       6.092  26.754  52.303  1.00  0.00     0.005 A 
HETATM   16  S   UNL     1       5.251  26.412  50.839  1.00  0.00    -0.104 SA
HETATM   17  C   UNL     1       4.856  28.056  50.601  1.00  0.00     0.050 A 
HETATM   18  C   UNL     1       5.351  28.857  51.605  1.00  0.00     0.008 A 
HETATM   19  C   UNL     1       6.064  28.107  52.585  1.00  0.00     0.017 A 
ENDBRANCH  13  15
ENDBRANCH  10  13
ENDBRANCH   8   9
ENDBRANCH   1   8
BRANCH   5  20
HETATM   20  N   UNL     1       7.561  30.415  59.574  1.00  0.00    -0.338 N 
HETATM   21  C   UNL     1       7.135  31.440  60.384  1.00  0.00     0.321 C 
HETATM   22  N   UNL     1       7.247  31.123  61.716  1.00  0.00    -0.309 N 
HETATM   23  O   UNL     1       6.793  32.524  59.935  1.00  0.00    -0.247 OA
HETATM   24  H   UNL     1       7.810  30.313  61.938  1.00  0.00     0.170 HD
HETATM   25  H   UNL     1       7.523  29.487  59.981  1.00  0.00     0.164 HD
BRANCH  22  26
HETATM   26  C   UNL     1       6.954  31.987  62.795  1.00  0.00     0.036 A 
HETATM   27  C   UNL     1       7.937  32.654  63.537  1.00  0.00     0.032 A 
HETATM   28  C   UNL     1       7.580  33.462  64.620  1.00  0.00     0.044 A 
HETATM   29  C   UNL     1       6.242  33.604  64.959  1.00  0.00     0.116 A 
HETATM   30  F   UNL     1       5.904  34.365  66.006  1.00  0.00    -0.206 F 
HETATM   31  C   UNL     1       5.250  32.969  64.222  1.00  0.00     0.044 A 
HETATM   32  C   UNL     1       5.605  32.168  63.133  1.00  0.00     0.032 A 
ENDBRANCH  22  26
ENDBRANCH   5  20
TORSDOF 6
ENDMDL
MODEL 5
REMARK VINA RESULT:      -8.8      5.561     11.213
REMARK  6 active torsions:
REMARK  status: ('A' for Active; 'I' for Inactive)
REMARK    1  A    between atoms: C_2  and  N_3 
REMARK    2  A    between atoms: C_2  and  C_25 
REMARK       I    between atoms: N_3  and  C_4 
REMARK    3  A    between atoms: C_4  and  C_5 
REMARK    4  A    between atoms: C_5  and  N_6 
REMARK    5  A    between atoms: C_10  and  N_11 
REMARK       I    between atoms: N_11  and  C_12 
REMARK       I    between atoms: C_12  and  N_13 
REMARK    6  A    between atoms: N_13  and  C_14 
ROOT
HETATM    1  N   UNL     1       6.640  29.846  58.278  1.00  0.00    -0.063 N 
HETATM    2  H   UNL     1       6.459  29.516  59.237  1.00  0.00     0.280 HD
HETATM    3  C   UNL     1       5.413  29.492  57.470  1.00  0.00     0.237 C 
HETATM    4  C   UNL     1       5.394  28.032  57.069  1.00  0.00     0.053 C 
HETATM    5  C   UNL     1       6.675  27.570  56.384  1.00  0.00     0.089 C 
HETATM    6  C   UNL     1       7.885  27.879  57.259  1.00  0.00     0.053 C 
HETATM    7  C   UNL     1       7.960  29.294  57.804  1.00  0.00     0.237 C 
ENDROOT
BRANCH   1   8
HETATM    8  C   UNL     1       6.769  31.380  58.396  1.00  0.00     0.337 C 
BRANCH   8   9
HETATM    9  C   UNL     1       7.756  31.814  59.480  1.00  0.00     0.244 C 
HETATM   10  N   UNL     1       7.441  31.398  60.748  1.00  0.00    -0.351 N 
HETATM   11  H   UNL     1       6.616  30.833  60.924  1.00  0.00     0.163 HD
HETATM   12  O   UNL     1       8.780  32.421  59.182  1.00  0.00    -0.272 OA
BRANCH  10  13
HETATM   13  C   UNL     1       8.293  31.647  61.902  1.00  0.00     0.120 C 
HETATM   14  C   UNL     1       8.974  30.371  62.396  1.00  0.00     0.038 C 
BRANCH  13  15
HETATM   15  C   UNL     1       7.442  32.282  62.976  1.00  0.00     0.005 A 
HETATM   16  S   UNL     1       5.726  32.146  62.956  1.00  0.00    -0.104 SA
HETATM   17  C   UNL     1       5.567  33.065  64.385  1.00  0.00     0.050 A 
HETATM   18  C   UNL     1       6.786  33.475  64.874  1.00  0.00     0.008 A 
HETATM   19  C   UNL     1       7.867  33.025  64.062  1.00  0.00     0.017 A 
ENDBRANCH  13  15
ENDBRANCH  10  13
ENDBRANCH   8   9
ENDBRANCH   1   8
BRANCH   5  20
HETATM   20  N   UNL     1       6.762  27.976  54.978  1.00  0.00    -0.338 N 
HETATM   21  C   UNL     1       5.820  27.773  53.999  1.00  0.00     0.321 C 
HETATM   22  N   UNL     1       6.333  27.980  52.742  1.00  0.00    -0.309 N 
HETATM   23  O   UNL     1       4.696  27.363  54.253  1.00  0.00    -0.247 OA
HETATM   24  H   UNL     1       7.339  28.030  52.671  1.00  0.00     0.170 HD
HETATM   25  H   UNL     1       7.528  28.593  54.731  1.00  0.00     0.164 HD
BRANCH  22  26
HETATM   26  C   UNL     1       5.637  27.787  51.527  1.00  0.00     0.036 A 
HETATM   27  C   UNL     1       5.375  26.525  50.981  1.00  0.00     0.032 A 
HETATM   28  C   UNL     1       4.718  26.406  49.753  1.00  0.00     0.044 A 
HETATM   29  C   UNL     1       4.322  27.550  49.074  1.00  0.00     0.116 A 
HETATM   30  F   UNL     1       3.707  27.435  47.891  1.00  0.00    -0.206 F 
HETATM   31  C   UNL     1       4.551  28.810  49.609  1.00  0.00     0.044 A 
HETATM   32  C   UNL     1       5.200  28.930  50.841  1.00  0.00     0.032 A 
ENDBRANCH  22  26
ENDBRANCH   5  20
TORSDOF 6
ENDMDL
MODEL 6
REMARK VINA RESULT:      -8.6      1.780      2.358
REMARK  6 active torsions:
REMARK  status: ('A' for Active; 'I' for Inactive)
REMARK    1  A    between atoms: C_2  and  N_3 
REMARK    2  A    between atoms: C_2  and  C_25 
REMARK       I    between atoms: N_3  and  C_4 
REMARK    3  A    between atoms: C_4  and  C_5 
REMARK    4  A    between atoms: C_5  and  N_6 
REMARK    5  A    between atoms: C_10  and  N_11 
REMARK       I    between atoms: N_11  and  C_12 
REMARK       I    between atoms: C_12  and  N_13 
REMARK    6  A    between atoms: N_13  and  C_14 
ROOT
HETATM    1  N   UNL     1       7.068  28.118  55.545  1.00  0.00    -0.063 N 
HETATM    2  H   UNL     1       7.678  27.448  55.055  1.00  0.00     0.280 HD
HETATM    3  C   UNL     1       7.853  29.406  55.649  1.00  0.00     0.237 C 
HETATM    4  C   UNL     1       8.872  29.365  56.768  1.00  0.00     0.053 C 
HETATM    5  C   UNL     1       8.286  28.951  58.112  1.00  0.00     0.089 C 
HETATM    6  C   UNL     1       7.564  27.614  57.985  1.00  0.00     0.053 C 
HETATM    7  C   UNL     1       6.583  27.501  56.831  1.00  0.00     0.237 C 
ENDROOT
BRANCH   1   8
HETATM    8  C   UNL     1       5.854  28.315  54.612  1.00  0.00     0.337 C 
BRANCH   8   9
HETATM    9  C   UNL     1       5.833  27.330  53.444  1.00  0.00     0.244 C 
HETATM   10  N   UNL     1       6.235  26.056  53.755  1.00  0.00    -0.351 N 
HETATM   11  H   UNL     1       6.506  25.809  54.701  1.00  0.00     0.163 HD
HETATM   12  O   UNL     1       5.409  27.675  52.345  1.00  0.00    -0.272 OA
BRANCH  10  13
HETATM   13  C   UNL     1       6.215  24.959  52.798  1.00  0.00     0.120 C 
HETATM   14  C   UNL     1       4.790  24.534  52.444  1.00  0.00     0.038 C 
BRANCH  13  15
HETATM   15  C   UNL     1       7.012  23.819  53.385  1.00  0.00     0.005 A 
HETATM   16  S   UNL     1       7.182  23.629  55.088  1.00  0.00    -0.104 SA
HETATM   17  C   UNL     1       8.143  22.230  54.906  1.00  0.00     0.050 A 
HETATM   18  C   UNL     1       8.340  21.907  53.583  1.00  0.00     0.008 A 
HETATM   19  C   UNL     1       7.689  22.822  52.706  1.00  0.00     0.017 A 
ENDBRANCH  13  15
ENDBRANCH  10  13
ENDBRANCH   8   9
ENDBRANCH   1   8
BRANCH   5  20
HETATM   20  N   UNL     1       7.557  30.028  58.787  1.00  0.00    -0.338 N 
HETATM   21  C   UNL     1       7.968  30.744  59.885  1.00  0.00     0.321 C 
HETATM   22  N   UNL     1       6.936  31.447  60.457  1.00  0.00    -0.309 N 
HETATM   23  O   UNL     1       9.106  30.661  60.326  1.00  0.00    -0.247 OA
HETATM   24  H   UNL     1       6.003  31.192  60.162  1.00  0.00     0.170 HD
HETATM   25  H   UNL     1       6.731  30.381  58.316  1.00  0.00     0.164 HD
BRANCH  22  26
HETATM   26  C   UNL     1       7.020  32.223  61.635  1.00  0.00     0.036 A 
HETATM   27  C   UNL     1       7.879  31.919  62.698  1.00  0.00     0.032 A 
HETATM   28  C   UNL     1       7.883  32.706  63.853  1.00  0.00     0.044 A 
HETATM   29  C   UNL     1       7.030  33.797  63.942  1.00  0.00     0.116 A 
HETATM   30  F   UNL     1       7.023  34.540  65.055  1.00  0.00    -0.206 F 
HETATM   31  C   UNL     1       6.187  34.129  62.890  1.00  0.00     0.044 A 
HETATM   32  C   UNL     1       6.189  33.348  61.730  1.00  0.00     0.032 A 
ENDBRANCH  22  26
ENDBRANCH   5  20
TORSDOF 6
ENDMDL
MODEL 7
REMARK VINA RESULT:      -8.6      1.941      2.560
REMARK  6 active torsions:
REMARK  status: ('A' for Active; 'I' for Inactive)
REMARK    1  A    between atoms: C_2  and  N_3 
REMARK    2  A    between atoms: C_2  and  C_25 
REMARK       I    between atoms: N_3  and  C_4 
REMARK    3  A    between atoms: C_4  and  C_5 
REMARK    4  A    between atoms: C_5  and  N_6 
REMARK    5  A    between atoms: C_10  and  N_11 
REMARK       I    between atoms: N_11  and  C_12 
REMARK       I    between atoms: C_12  and  N_13 
REMARK    6  A    between atoms: N_13  and  C_14 
ROOT
HETATM    1  N   UNL     1       5.060  29.429  56.327  1.00  0.00    -0.063 N 
HETATM    2  H   UNL     1       4.849  29.656  55.345  1.00  0.00     0.280 HD
HETATM    3  C   UNL     1       3.783  29.666  57.099  1.00  0.00     0.237 C 
HETATM    4  C   UNL     1       3.553  31.135  57.386  1.00  0.00     0.053 C 
HETATM    5  C   UNL     1       4.745  31.824  58.040  1.00  0.00     0.089 C 
HETATM    6  C   UNL     1       6.000  31.623  57.197  1.00  0.00     0.053 C 
HETATM    7  C   UNL     1       6.282  30.196  56.764  1.00  0.00     0.237 C 
ENDROOT
BRANCH   1   8
HETATM    8  C   UNL     1       5.405  27.924  56.328  1.00  0.00     0.337 C 
BRANCH   8   9
HETATM    9  C   UNL     1       5.794  27.400  54.946  1.00  0.00     0.244 C 
HETATM   10  N   UNL     1       5.752  26.036  54.813  1.00  0.00    -0.351 N 
HETATM   11  H   UNL     1       5.466  25.442  55.585  1.00  0.00     0.163 HD
HETATM   12  O   UNL     1       6.043  28.180  54.032  1.00  0.00    -0.272 OA
BRANCH  10  13
HETATM   13  C   UNL     1       6.016  25.351  53.555  1.00  0.00     0.120 C 
HETATM   14  C   UNL     1       4.728  24.892  52.872  1.00  0.00     0.038 C 
BRANCH  13  15
HETATM   15  C   UNL     1       6.941  24.193  53.845  1.00  0.00     0.005 A 
HETATM   16  S   UNL     1       7.426  23.815  55.454  1.00  0.00    -0.104 SA
HETATM   17  C   UNL     1       8.380  22.499  54.931  1.00  0.00     0.050 A 
HETATM   18  C   UNL     1       8.340  22.344  53.565  1.00  0.00     0.008 A 
HETATM   19  C   UNL     1       7.513  23.320  52.938  1.00  0.00     0.017 A 
ENDBRANCH  13  15
ENDBRANCH  10  13
ENDBRANCH   8   9
ENDBRANCH   1   8
BRANCH   5  20
HETATM   20  N   UNL     1       4.866  31.541  59.473  1.00  0.00    -0.338 N 
HETATM   21  C   UNL     1       5.234  32.422  60.461  1.00  0.00     0.321 C 
HETATM   22  N   UNL     1       5.558  31.777  61.630  1.00  0.00    -0.309 N 
HETATM   23  O   UNL     1       5.338  33.623  60.256  1.00  0.00    -0.247 OA
HETATM   24  H   UNL     1       5.704  30.779  61.565  1.00  0.00     0.170 HD
HETATM   25  H   UNL     1       4.509  30.647  59.791  1.00  0.00     0.164 HD
BRANCH  22  26
HETATM   26  C   UNL     1       6.038  32.396  62.806  1.00  0.00     0.036 A 
HETATM   27  C   UNL     1       7.398  32.580  63.082  1.00  0.00     0.032 A 
HETATM   28  C   UNL     1       7.806  33.162  64.285  1.00  0.00     0.044 A 
HETATM   29  C   UNL     1       6.852  33.564  65.210  1.00  0.00     0.116 A 
HETATM   30  F   UNL     1       7.245  34.107  66.368  1.00  0.00    -0.206 F 
HETATM   31  C   UNL     1       5.497  33.412  64.946  1.00  0.00     0.044 A 
HETATM   32  C   UNL     1       5.089  32.838  63.739  1.00  0.00     0.032 A 
ENDBRANCH  22  26
ENDBRANCH   5  20
TORSDOF 6
ENDMDL
MODEL 8
REMARK VINA RESULT:      -8.6      5.258     11.665
REMARK  6 active torsions:
REMARK  status: ('A' for Active; 'I' for Inactive)
REMARK    1  A    between atoms: C_2  and  N_3 
REMARK    2  A    between atoms: C_2  and  C_25 
REMARK       I    between atoms: N_3  and  C_4 
REMARK    3  A    between atoms: C_4  and  C_5 
REMARK    4  A    between atoms: C_5  and  N_6 
REMARK    5  A    between atoms: C_10  and  N_11 
REMARK       I    between atoms: N_11  and  C_12 
REMARK       I    between atoms: C_12  and  N_13 
REMARK    6  A    between atoms: N_13  and  C_14 
ROOT
HETATM    1  N   UNL     1       7.608  31.668  61.258  1.00  0.00    -0.063 N 
HETATM    2  H   UNL     1       7.970  32.630  61.328  1.00  0.00     0.280 HD
HETATM    3  C   UNL     1       8.787  30.798  60.887  1.00  0.00     0.237 C 
HETATM    4  C   UNL     1       9.120  30.884  59.413  1.00  0.00     0.053 C 
HETATM    5  C   UNL     1       7.924  30.634  58.501  1.00  0.00     0.089 C 
HETATM    6  C   UNL     1       6.781  31.578  58.857  1.00  0.00     0.053 C 
HETATM    7  C   UNL     1       6.420  31.651  60.331  1.00  0.00     0.237 C 
ENDROOT
BRANCH   1   8
HETATM    8  C   UNL     1       7.119  31.316  62.680  1.00  0.00     0.337 C 
BRANCH   8   9
HETATM    9  C   UNL     1       6.016  32.249  63.179  1.00  0.00     0.244 C 
HETATM   10  N   UNL     1       6.416  33.537  63.425  1.00  0.00    -0.351 N 
HETATM   11  H   UNL     1       7.375  33.827  63.266  1.00  0.00     0.163 HD
HETATM   12  O   UNL     1       4.857  31.853  63.264  1.00  0.00    -0.272 OA
BRANCH  10  13
HETATM   13  C   UNL     1       5.499  34.591  63.835  1.00  0.00     0.120 C 
HETATM   14  C   UNL     1       5.812  35.921  63.150  1.00  0.00     0.038 C 
BRANCH  13  15
HETATM   15  C   UNL     1       5.567  34.704  65.339  1.00  0.00     0.005 A 
HETATM   16  S   UNL     1       4.477  35.712  66.212  1.00  0.00    -0.104 SA
HETATM   17  C   UNL     1       5.184  35.296  67.710  1.00  0.00     0.050 A 
HETATM   18  C   UNL     1       6.228  34.413  67.561  1.00  0.00     0.008 A 
HETATM   19  C   UNL     1       6.450  34.072  66.195  1.00  0.00     0.017 A 
ENDBRANCH  13  15
ENDBRANCH  10  13
ENDBRANCH   8   9
ENDBRANCH   1   8
BRANCH   5  20
HETATM   20  N   UNL     1       7.584  29.215  58.363  1.00  0.00    -0.338 N 
HETATM   21  C   UNL     1       8.184  28.299  57.533  1.00  0.00     0.321 C 
HETATM   22  N   UNL     1       7.435  27.154  57.406  1.00  0.00    -0.309 N 
HETATM   23  O   UNL     1       9.214  28.549  56.925  1.00  0.00    -0.247 OA
HETATM   24  H   UNL     1       6.480  27.205  57.731  1.00  0.00     0.170 HD
HETATM   25  H   UNL     1       6.939  28.835  59.046  1.00  0.00     0.164 HD
BRANCH  22  26
HETATM   26  C   UNL     1       7.746  26.055  56.573  1.00  0.00     0.036 A 
HETATM   27  C   UNL     1       7.347  25.965  55.234  1.00  0.00     0.032 A 
HETATM   28  C   UNL     1       7.653  24.831  54.479  1.00  0.00     0.044 A 
HETATM   29  C   UNL     1       8.359  23.787  55.062  1.00  0.00     0.116 A 
HETATM   30  F   UNL     1       8.636  22.695  54.342  1.00  0.00    -0.206 F 
HETATM   31  C   UNL     1       8.783  23.867  56.382  1.00  0.00     0.044 A 
HETATM   32  C   UNL     1       8.486  25.005  57.136  1.00  0.00     0.032 A 
ENDBRANCH  22  26
ENDBRANCH   5  20
TORSDOF 6
ENDMDL
MODEL 9
REMARK VINA RESULT:      -8.5      7.645     11.146
REMARK  6 active torsions:
REMARK  status: ('A' for Active; 'I' for Inactive)
REMARK    1  A    between atoms: C_2  and  N_3 
REMARK    2  A    between atoms: C_2  and  C_25 
REMARK       I    between atoms: N_3  and  C_4 
REMARK    3  A    between atoms: C_4  and  C_5 
REMARK    4  A    between atoms: C_5  and  N_6 
REMARK    5  A    between atoms: C_10  and  N_11 
REMARK       I    between atoms: N_11  and  C_12 
REMARK       I    between atoms: C_12  and  N_13 
REMARK    6  A    between atoms: N_13  and  C_14 
ROOT
HETATM    1  N   UNL     1       5.903  26.796  53.781  1.00  0.00    -0.063 N 
HETATM    2  H   UNL     1       6.903  26.634  53.967  1.00  0.00     0.280 HD
HETATM    3  C   UNL     1       5.454  25.668  52.880  1.00  0.00     0.237 C 
HETATM    4  C   UNL     1       5.859  25.891  51.439  1.00  0.00     0.053 C 
HETATM    5  C   UNL     1       5.443  27.251  50.891  1.00  0.00     0.089 C 
HETATM    6  C   UNL     1       5.974  28.366  51.785  1.00  0.00     0.053 C 
HETATM    7  C   UNL     1       5.712  28.201  53.272  1.00  0.00     0.237 C 
ENDROOT
BRANCH   1   8
HETATM    8  C   UNL     1       5.212  26.679  55.156  1.00  0.00     0.337 C 
BRANCH   8   9
HETATM    9  C   UNL     1       5.679  25.465  55.958  1.00  0.00     0.244 C 
HETATM   10  N   UNL     1       6.849  24.899  55.519  1.00  0.00    -0.351 N 
HETATM   11  H   UNL     1       7.354  25.286  54.728  1.00  0.00     0.163 HD
HETATM   12  O   UNL     1       5.066  25.105  56.959  1.00  0.00    -0.272 OA
BRANCH  10  13
HETATM   13  C   UNL     1       7.494  23.781  56.194  1.00  0.00     0.120 C 
HETATM   14  C   UNL     1       8.809  24.195  56.855  1.00  0.00     0.038 C 
BRANCH  13  15
HETATM   15  C   UNL     1       7.697  22.683  55.178  1.00  0.00     0.005 A 
HETATM   16  S   UNL     1       7.912  21.044  55.662  1.00  0.00    -0.104 SA
HETATM   17  C   UNL     1       8.064  20.514  54.047  1.00  0.00     0.050 A 
HETATM   18  C   UNL     1       7.958  21.553  53.150  1.00  0.00     0.008 A 
HETATM   19  C   UNL     1       7.748  22.803  53.802  1.00  0.00     0.017 A 
ENDBRANCH  13  15
ENDBRANCH  10  13
ENDBRANCH   8   9
ENDBRANCH   1   8
BRANCH   5  20
HETATM   20  N   UNL     1       4.026  27.323  50.525  1.00  0.00    -0.338 N 
HETATM   21  C   UNL     1       3.505  27.522  49.270  1.00  0.00     0.321 C 
HETATM   22  N   UNL     1       2.173  27.855  49.313  1.00  0.00    -0.309 N 
HETATM   23  O   UNL     1       4.201  27.492  48.265  1.00  0.00    -0.247 OA
HETATM   24  H   UNL     1       1.808  28.125  50.216  1.00  0.00     0.170 HD
HETATM   25  H   UNL     1       3.359  27.059  51.242  1.00  0.00     0.164 HD
BRANCH  22  26
HETATM   26  C   UNL     1       1.370  28.187  48.198  1.00  0.00     0.036 A 
HETATM   27  C   UNL     1       0.762  27.233  47.375  1.00  0.00     0.032 A 
HETATM   28  C   UNL     1       0.014  27.629  46.263  1.00  0.00     0.044 A 
HETATM   29  C   UNL     1      -0.126  28.980  45.977  1.00  0.00     0.116 A 
HETATM   30  F   UNL     1      -0.828  29.358  44.902  1.00  0.00    -0.206 F 
HETATM   31  C   UNL     1       0.450  29.944  46.794  1.00  0.00     0.044 A 
HETATM   32  C   UNL     1       1.190  29.548  47.912  1.00  0.00     0.032 A 
ENDBRANCH  22  26
ENDBRANCH   5  20
TORSDOF 6
ENDMDL
MODEL 10
REMARK VINA RESULT:      -8.4      6.306      9.680
REMARK  6 active torsions:
REMARK  status: ('A' for Active; 'I' for Inactive)
REMARK    1  A    between atoms: C_2  and  N_3 
REMARK    2  A    between atoms: C_2  and  C_25 
REMARK       I    between atoms: N_3  and  C_4 
REMARK    3  A    between atoms: C_4  and  C_5 
REMARK    4  A    between atoms: C_5  and  N_6 
REMARK    5  A    between atoms: C_10  and  N_11 
REMARK       I    between atoms: N_11  and  C_12 
REMARK       I    between atoms: C_12  and  N_13 
REMARK    6  A    between atoms: N_13  and  C_14 
ROOT
HETATM    1  N   UNL     1       5.533  29.517  55.088  1.00  0.00    -0.063 N 
HETATM    2  H   UNL     1       5.693  30.442  55.513  1.00  0.00     0.280 HD
HETATM    3  C   UNL     1       4.670  28.749  56.063  1.00  0.00     0.237 C 
HETATM    4  C   UNL     1       5.472  28.189  57.219  1.00  0.00     0.053 C 
HETATM    5  C   UNL     1       6.689  27.381  56.783  1.00  0.00     0.089 C 
HETATM    6  C   UNL     1       7.572  28.212  55.859  1.00  0.00     0.053 C 
HETATM    7  C   UNL     1       6.858  28.907  54.712  1.00  0.00     0.237 C 
ENDROOT
BRANCH   1   8
HETATM    8  C   UNL     1       4.742  29.799  53.792  1.00  0.00     0.337 C 
BRANCH   8   9
HETATM    9  C   UNL     1       4.332  28.524  53.056  1.00  0.00     0.244 C 
HETATM   10  N   UNL     1       5.286  28.012  52.214  1.00  0.00    -0.351 N 
HETATM   11  H   UNL     1       6.192  28.457  52.116  1.00  0.00     0.163 HD
HETATM   12  O   UNL     1       3.252  27.989  53.289  1.00  0.00    -0.272 OA
BRANCH  10  13
HETATM   13  C   UNL     1       5.113  26.765  51.480  1.00  0.00     0.120 C 
HETATM   14  C   UNL     1       6.257  25.785  51.740  1.00  0.00     0.038 C 
BRANCH  13  15
HETATM   15  C   UNL     1       4.987  27.105  50.015  1.00  0.00     0.005 A 
HETATM   16  S   UNL     1       5.452  28.650  49.410  1.00  0.00    -0.104 SA
HETATM   17  C   UNL     1       5.019  28.231  47.812  1.00  0.00     0.050 A 
HETATM   18  C   UNL     1       4.528  26.949  47.729  1.00  0.00     0.008 A 
HETATM   19  C   UNL     1       4.508  26.300  48.998  1.00  0.00     0.017 A 
ENDBRANCH  13  15
ENDBRANCH  10  13
ENDBRANCH   8   9
ENDBRANCH   1   8
BRANCH   5  20
HETATM   20  N   UNL     1       6.356  26.028  56.330  1.00  0.00    -0.338 N 
HETATM   21  C   UNL     1       7.233  24.996  56.093  1.00  0.00     0.321 C 
HETATM   22  N   UNL     1       6.648  23.978  55.382  1.00  0.00    -0.309 N 
HETATM   23  O   UNL     1       8.412  25.059  56.412  1.00  0.00    -0.247 OA
HETATM   24  H   UNL     1       5.763  24.189  54.942  1.00  0.00     0.170 HD
HETATM   25  H   UNL     1       5.373  25.780  56.325  1.00  0.00     0.164 HD
BRANCH  22  26
HETATM   26  C   UNL     1       7.301  22.811  54.925  1.00  0.00     0.036 A 
HETATM   27  C   UNL     1       7.713  21.775  55.773  1.00  0.00     0.032 A 
HETATM   28  C   UNL     1       8.392  20.667  55.260  1.00  0.00     0.044 A 
HETATM   29  C   UNL     1       8.657  20.594  53.899  1.00  0.00     0.116 A 
HETATM   30  F   UNL     1       9.322  19.540  53.412  1.00  0.00    -0.206 F 
HETATM   31  C   UNL     1       8.237  21.599  53.038  1.00  0.00     0.044 A 
HETATM   32  C   UNL     1       7.549  22.704  53.549  1.00  0.00     0.032 A 
ENDBRANCH  22  26
ENDBRANCH   5  20
TORSDOF 6
ENDMDL
