MODEL 1
REMARK VINA RESULT:      -8.0      0.000      0.000
REMARK  5 active torsions:
REMARK  status: ('A' for Active; 'I' for Inactive)
REMARK    1  A    between atoms: C_4  and  O_5 
REMARK    2  A    between atoms: O_5  and  C_6 
REMARK    3  A    between atoms: C_6  and  C_7 
REMARK    4  A    between atoms: C_11  and  N_12 
REMARK       I    between atoms: N_12  and  C_13 
REMARK       I    between atoms: C_13  and  N_14 
REMARK    5  A    between atoms: N_14  and  C_15 
ROOT
HETATM    1  N   UNL     1       7.972  26.136  53.556  1.00  0.00    -0.306 N 
HETATM    2  C   UNL     1       7.036  27.105  53.320  1.00  0.00     0.325 C 
HETATM    3  N   UNL     1       5.798  26.688  52.930  1.00  0.00    -0.305 N 
HETATM    4  O   UNL     1       7.416  28.270  53.401  1.00  0.00    -0.247 OA
HETATM    5  H   UNL     1       8.904  26.521  53.450  1.00  0.00     0.171 HD
HETATM    6  H   UNL     1       5.641  25.697  52.883  1.00  0.00     0.171 HD
ENDROOT
BRANCH   1   7
HETATM    7  C   UNL     1       7.900  24.742  53.719  1.00  0.00     0.069 A 
HETATM    8  C   UNL     1       7.832  24.246  55.030  1.00  0.00     0.096 A 
HETATM    9  C   UNL     1       7.859  22.875  55.288  1.00  0.00     0.046 A 
HETATM   10  C   UNL     1       7.869  21.967  54.224  1.00  0.00    -0.059 A 
HETATM   11  C   UNL     1       7.961  20.492  54.481  1.00  0.00     0.048 C 
HETATM   12  C   UNL     1       7.845  22.458  52.913  1.00  0.00     0.009 A 
HETATM   13  C   UNL     1       7.847  23.835  52.660  1.00  0.00     0.033 A 
BRANCH   8  14
HETATM   14  O   UNL     1       7.842  25.113  56.095  1.00  0.00    -0.340 OA
BRANCH  14  15
HETATM   15  C   UNL     1       6.747  24.842  56.991  1.00  0.00     0.293 C 
BRANCH  15  16
HETATM   16  C   UNL     1       5.494  25.594  56.575  1.00  0.00     0.408 C 
HETATM   17  F   UNL     1       4.964  25.099  55.435  1.00  0.00    -0.169 F 
HETATM   18  F   UNL     1       4.546  25.499  57.537  1.00  0.00    -0.169 F 
HETATM   19  F   UNL     1       5.744  26.909  56.384  1.00  0.00    -0.169 F 
ENDBRANCH  15  16
ENDBRANCH  14  15
ENDBRANCH   8  14
ENDBRANCH   1   7
BRANCH   3  20
HETATM   20  C   UNL     1       4.752  27.468  52.468  1.00  0.00     0.086 A 
HETATM   21  C   UNL     1       3.885  28.422  53.079  1.00  0.00     0.079 A 
HETATM   22  C   UNL     1       3.853  28.952  54.466  1.00  0.00     0.075 C 
HETATM   23  N   UNL     1       3.016  28.931  52.191  1.00  0.00    -0.177 NA
HETATM   24  N   UNL     1       3.326  28.327  51.042  1.00  0.00    -0.280 N 
HETATM   25  H   UNL     1       2.783  28.568  50.218  1.00  0.00     0.189 HD
HETATM   26  C   UNL     1       4.368  27.451  51.140  1.00  0.00     0.052 A 
HETATM   27  C   UNL     1       4.845  26.682  49.967  1.00  0.00     0.072 C 
ENDBRANCH   3  20
TORSDOF 5
ENDMDL
MODEL 2
REMARK VINA RESULT:      -7.8      0.263      1.671
REMARK  5 active torsions:
REMARK  status: ('A' for Active; 'I' for Inactive)
REMARK    1  A    between atoms: C_4  and  O_5 
REMARK    2  A    between atoms: O_5  and  C_6 
REMARK    3  A    between atoms: C_6  and  C_7 
REMARK    4  A    between atoms: C_11  and  N_12 
REMARK       I    between atoms: N_12  and  C_13 
REMARK       I    between atoms: C_13  and  N_14 
REMARK    5  A    between atoms: N_14  and  C_15 
ROOT
HETATM    1  N   UNL     1       7.928  26.125  53.569  1.00  0.00    -0.306 N 
HETATM    2  C   UNL     1       7.007  27.068  53.207  1.00  0.00     0.325 C 
HETATM    3  N   UNL     1       5.845  26.617  52.654  1.00  0.00    -0.305 N 
HETATM    4  O   UNL     1       7.340  28.243  53.336  1.00  0.00    -0.247 OA
HETATM    5  H   UNL     1       8.855  26.535  53.590  1.00  0.00     0.171 HD
HETATM    6  H   UNL     1       5.723  25.622  52.589  1.00  0.00     0.171 HD
ENDROOT
BRANCH   1   7
HETATM    7  C   UNL     1       7.874  24.729  53.725  1.00  0.00     0.069 A 
HETATM    8  C   UNL     1       7.827  24.225  55.034  1.00  0.00     0.096 A 
HETATM    9  C   UNL     1       7.873  22.852  55.282  1.00  0.00     0.046 A 
HETATM   10  C   UNL     1       7.879  21.951  54.213  1.00  0.00    -0.059 A 
HETATM   11  C   UNL     1       7.990  20.476  54.459  1.00  0.00     0.048 C 
HETATM   12  C   UNL     1       7.834  22.449  52.905  1.00  0.00     0.009 A 
HETATM   13  C   UNL     1       7.818  23.828  52.661  1.00  0.00     0.033 A 
BRANCH   8  14
HETATM   14  O   UNL     1       7.842  25.085  56.103  1.00  0.00    -0.340 OA
BRANCH  14  15
HETATM   15  C   UNL     1       6.721  24.842  56.975  1.00  0.00     0.293 C 
BRANCH  15  16
HETATM   16  C   UNL     1       5.510  25.660  56.559  1.00  0.00     0.408 C 
HETATM   17  F   UNL     1       5.001  25.242  55.379  1.00  0.00    -0.169 F 
HETATM   18  F   UNL     1       4.528  25.551  57.484  1.00  0.00    -0.169 F 
HETATM   19  F   UNL     1       5.813  26.972  56.444  1.00  0.00    -0.169 F 
ENDBRANCH  15  16
ENDBRANCH  14  15
ENDBRANCH   8  14
ENDBRANCH   1   7
BRANCH   3  20
HETATM   20  C   UNL     1       4.850  27.368  52.054  1.00  0.00     0.086 A 
HETATM   21  C   UNL     1       4.414  27.538  50.705  1.00  0.00     0.079 A 
HETATM   22  C   UNL     1       4.879  26.893  49.451  1.00  0.00     0.075 C 
HETATM   23  N   UNL     1       3.377  28.385  50.631  1.00  0.00    -0.177 NA
HETATM   24  N   UNL     1       3.147  28.740  51.897  1.00  0.00    -0.280 N 
HETATM   25  H   UNL     1       2.388  29.390  52.077  1.00  0.00     0.189 HD
HETATM   26  C   UNL     1       3.986  28.151  52.798  1.00  0.00     0.052 A 
HETATM   27  C   UNL     1       3.885  28.434  54.248  1.00  0.00     0.072 C 
ENDBRANCH   3  20
TORSDOF 5
ENDMDL
MODEL 3
REMARK VINA RESULT:      -7.8      3.982      6.559
REMARK  5 active torsions:
REMARK  status: ('A' for Active; 'I' for Inactive)
REMARK    1  A    between atoms: C_4  and  O_5 
REMARK    2  A    between atoms: O_5  and  C_6 
REMARK    3  A    between atoms: C_6  and  C_7 
REMARK    4  A    between atoms: C_11  and  N_12 
REMARK       I    between atoms: N_12  and  C_13 
REMARK       I    between atoms: C_13  and  N_14 
REMARK    5  A    between atoms: N_14  and  C_15 
ROOT
HETATM    1  N   UNL     1       7.678  25.299  57.491  1.00  0.00    -0.306 N 
HETATM    2  C   UNL     1       8.148  24.246  56.758  1.00  0.00     0.325 C 
HETATM    3  N   UNL     1       7.522  23.987  55.575  1.00  0.00    -0.305 N 
HETATM    4  O   UNL     1       9.040  23.573  57.268  1.00  0.00    -0.247 OA
HETATM    5  H   UNL     1       7.915  25.176  58.469  1.00  0.00     0.171 HD
HETATM    6  H   UNL     1       6.787  24.613  55.298  1.00  0.00     0.171 HD
ENDROOT
BRANCH   1   7
HETATM    7  C   UNL     1       6.813  26.370  57.202  1.00  0.00     0.069 A 
HETATM    8  C   UNL     1       7.357  27.663  57.213  1.00  0.00     0.096 A 
HETATM    9  C   UNL     1       6.551  28.788  57.037  1.00  0.00     0.046 A 
HETATM   10  C   UNL     1       5.189  28.632  56.759  1.00  0.00    -0.059 A 
HETATM   11  C   UNL     1       4.295  29.830  56.628  1.00  0.00     0.048 C 
HETATM   12  C   UNL     1       4.661  27.340  56.658  1.00  0.00     0.009 A 
HETATM   13  C   UNL     1       5.469  26.214  56.864  1.00  0.00     0.033 A 
BRANCH   8  14
HETATM   14  O   UNL     1       8.686  27.848  57.504  1.00  0.00    -0.340 OA
BRANCH  14  15
HETATM   15  C   UNL     1       8.988  29.248  57.663  1.00  0.00     0.293 C 
BRANCH  15  16
HETATM   16  C   UNL     1      10.082  29.690  56.704  1.00  0.00     0.408 C 
HETATM   17  F   UNL     1      10.476  30.960  56.941  1.00  0.00    -0.169 F 
HETATM   18  F   UNL     1      11.171  28.896  56.835  1.00  0.00    -0.169 F 
HETATM   19  F   UNL     1       9.676  29.609  55.418  1.00  0.00    -0.169 F 
ENDBRANCH  15  16
ENDBRANCH  14  15
ENDBRANCH   8  14
ENDBRANCH   1   7
BRANCH   3  20
HETATM   20  C   UNL     1       7.694  22.887  54.752  1.00  0.00     0.086 A 
HETATM   21  C   UNL     1       7.746  21.480  54.980  1.00  0.00     0.079 A 
HETATM   22  C   UNL     1       7.576  20.695  56.229  1.00  0.00     0.075 C 
HETATM   23  N   UNL     1       7.923  20.806  53.833  1.00  0.00    -0.177 NA
HETATM   24  N   UNL     1       7.972  21.755  52.896  1.00  0.00    -0.280 N 
HETATM   25  H   UNL     1       8.102  21.463  51.932  1.00  0.00     0.189 HD
HETATM   26  C   UNL     1       7.824  23.021  53.382  1.00  0.00     0.052 A 
HETATM   27  C   UNL     1       7.861  24.202  52.488  1.00  0.00     0.072 C 
ENDBRANCH   3  20
TORSDOF 5
ENDMDL
MODEL 4
REMARK VINA RESULT:      -7.5      4.145      5.666
REMARK  5 active torsions:
REMARK  status: ('A' for Active; 'I' for Inactive)
REMARK    1  A    between atoms: C_4  and  O_5 
REMARK    2  A    between atoms: O_5  and  C_6 
REMARK    3  A    between atoms: C_6  and  C_7 
REMARK    4  A    between atoms: C_11  and  N_12 
REMARK       I    between atoms: N_12  and  C_13 
REMARK       I    between atoms: C_13  and  N_14 
REMARK    5  A    between atoms: N_14  and  C_15 
ROOT
HETATM    1  N   UNL     1       6.621  27.758  55.876  1.00  0.00    -0.306 N 
HETATM    2  C   UNL     1       7.076  28.991  56.251  1.00  0.00     0.325 C 
HETATM    3  N   UNL     1       8.166  29.027  57.067  1.00  0.00    -0.305 N 
HETATM    4  O   UNL     1       6.413  29.959  55.884  1.00  0.00    -0.247 OA
HETATM    5  H   UNL     1       5.640  27.811  55.625  1.00  0.00     0.171 HD
HETATM    6  H   UNL     1       8.590  28.149  57.306  1.00  0.00     0.171 HD
ENDROOT
BRANCH   1   7
HETATM    7  C   UNL     1       7.165  26.463  55.950  1.00  0.00     0.069 A 
HETATM    8  C   UNL     1       7.452  25.812  54.741  1.00  0.00     0.096 A 
HETATM    9  C   UNL     1       7.898  24.490  54.719  1.00  0.00     0.046 A 
HETATM   10  C   UNL     1       8.148  23.821  55.921  1.00  0.00    -0.059 A 
HETATM   11  C   UNL     1       8.569  22.381  55.919  1.00  0.00     0.048 C 
HETATM   12  C   UNL     1       7.949  24.498  57.130  1.00  0.00     0.009 A 
HETATM   13  C   UNL     1       7.473  25.815  57.146  1.00  0.00     0.033 A 
BRANCH   8  14
HETATM   14  O   UNL     1       7.196  26.437  53.545  1.00  0.00    -0.340 OA
BRANCH  14  15
HETATM   15  C   UNL     1       6.682  25.503  52.576  1.00  0.00     0.293 C 
BRANCH  15  16
HETATM   16  C   UNL     1       5.164  25.546  52.519  1.00  0.00     0.408 C 
HETATM   17  F   UNL     1       4.682  26.765  52.846  1.00  0.00    -0.169 F 
HETATM   18  F   UNL     1       4.731  25.261  51.268  1.00  0.00    -0.169 F 
HETATM   19  F   UNL     1       4.611  24.639  53.354  1.00  0.00    -0.169 F 
ENDBRANCH  15  16
ENDBRANCH  14  15
ENDBRANCH   8  14
ENDBRANCH   1   7
BRANCH   3  20
HETATM   20  C   UNL     1       8.699  30.128  57.716  1.00  0.00     0.086 A 
HETATM   21  C   UNL     1       8.146  31.158  58.534  1.00  0.00     0.079 A 
HETATM   22  C   UNL     1       6.759  31.366  59.022  1.00  0.00     0.075 C 
HETATM   23  N   UNL     1       9.093  32.015  58.947  1.00  0.00    -0.177 NA
HETATM   24  N   UNL     1      10.223  31.540  58.416  1.00  0.00    -0.280 N 
HETATM   25  H   UNL     1      11.083  32.045  58.603  1.00  0.00     0.189 HD
HETATM   26  C   UNL     1      10.054  30.403  57.681  1.00  0.00     0.052 A 
HETATM   27  C   UNL     1      11.196  29.740  57.009  1.00  0.00     0.072 C 
ENDBRANCH   3  20
TORSDOF 5
ENDMDL
MODEL 5
REMARK VINA RESULT:      -7.3      4.151      6.441
REMARK  5 active torsions:
REMARK  status: ('A' for Active; 'I' for Inactive)
REMARK    1  A    between atoms: C_4  and  O_5 
REMARK    2  A    between atoms: O_5  and  C_6 
REMARK    3  A    between atoms: C_6  and  C_7 
REMARK    4  A    between atoms: C_11  and  N_12 
REMARK       I    between atoms: N_12  and  C_13 
REMARK       I    between atoms: C_13  and  N_14 
REMARK    5  A    between atoms: N_14  and  C_15 
ROOT
HETATM    1  N   UNL     1       6.834  27.300  56.399  1.00  0.00    -0.306 N 
HETATM    2  C   UNL     1       7.505  28.064  57.313  1.00  0.00     0.325 C 
HETATM    3  N   UNL     1       7.647  29.389  57.027  1.00  0.00    -0.305 N 
HETATM    4  O   UNL     1       7.993  27.473  58.274  1.00  0.00    -0.247 OA
HETATM    5  H   UNL     1       7.111  26.329  56.488  1.00  0.00     0.171 HD
HETATM    6  H   UNL     1       7.213  29.726  56.187  1.00  0.00     0.171 HD
ENDROOT
BRANCH   1   7
HETATM    7  C   UNL     1       6.022  27.606  55.293  1.00  0.00     0.069 A 
HETATM    8  C   UNL     1       6.528  27.313  54.017  1.00  0.00     0.096 A 
HETATM    9  C   UNL     1       5.832  27.675  52.863  1.00  0.00     0.046 A 
HETATM   10  C   UNL     1       4.568  28.265  52.968  1.00  0.00    -0.059 A 
HETATM   11  C   UNL     1       3.833  28.717  51.741  1.00  0.00     0.048 C 
HETATM   12  C   UNL     1       4.021  28.476  54.239  1.00  0.00     0.009 A 
HETATM   13  C   UNL     1       4.736  28.137  55.395  1.00  0.00     0.033 A 
BRANCH   8  14
HETATM   14  O   UNL     1       7.774  26.754  53.883  1.00  0.00    -0.340 OA
BRANCH  14  15
HETATM   15  C   UNL     1       7.779  25.748  52.852  1.00  0.00     0.293 C 
BRANCH  15  16
HETATM   16  C   UNL     1       7.685  24.351  53.443  1.00  0.00     0.408 C 
HETATM   17  F   UNL     1       8.190  23.416  52.609  1.00  0.00    -0.169 F 
HETATM   18  F   UNL     1       8.383  24.282  54.601  1.00  0.00    -0.169 F 
HETATM   19  F   UNL     1       6.406  24.016  53.723  1.00  0.00    -0.169 F 
ENDBRANCH  15  16
ENDBRANCH  14  15
ENDBRANCH   8  14
ENDBRANCH   1   7
BRANCH   3  20
HETATM   20  C   UNL     1       8.425  30.317  57.696  1.00  0.00     0.086 A 
HETATM   21  C   UNL     1       8.146  31.336  58.655  1.00  0.00     0.079 A 
HETATM   22  C   UNL     1       6.873  31.717  59.317  1.00  0.00     0.075 C 
HETATM   23  N   UNL     1       9.264  31.981  59.022  1.00  0.00    -0.177 NA
HETATM   24  N   UNL     1      10.234  31.384  58.326  1.00  0.00    -0.280 N 
HETATM   25  H   UNL     1      11.184  31.720  58.452  1.00  0.00     0.189 HD
HETATM   26  C   UNL     1       9.797  30.369  57.525  1.00  0.00     0.052 A 
HETATM   27  C   UNL     1      10.732  29.600  56.672  1.00  0.00     0.072 C 
ENDBRANCH   3  20
TORSDOF 5
ENDMDL
MODEL 6
REMARK VINA RESULT:      -7.3      3.654      5.672
REMARK  5 active torsions:
REMARK  status: ('A' for Active; 'I' for Inactive)
REMARK    1  A    between atoms: C_4  and  O_5 
REMARK    2  A    between atoms: O_5  and  C_6 
REMARK    3  A    between atoms: C_6  and  C_7 
REMARK    4  A    between atoms: C_11  and  N_12 
REMARK       I    between atoms: N_12  and  C_13 
REMARK       I    between atoms: C_13  and  N_14 
REMARK    5  A    between atoms: N_14  and  C_15 
ROOT
HETATM    1  N   UNL     1       7.438  25.803  55.686  1.00  0.00    -0.306 N 
HETATM    2  C   UNL     1       7.748  26.717  56.654  1.00  0.00     0.325 C 
HETATM    3  N   UNL     1       7.617  28.033  56.327  1.00  0.00    -0.305 N 
HETATM    4  O   UNL     1       8.195  26.273  57.709  1.00  0.00    -0.247 OA
HETATM    5  H   UNL     1       7.918  24.929  55.867  1.00  0.00     0.171 HD
HETATM    6  H   UNL     1       7.261  28.246  55.413  1.00  0.00     0.171 HD
ENDROOT
BRANCH   1   7
HETATM    7  C   UNL     1       6.771  25.891  54.451  1.00  0.00     0.069 A 
HETATM    8  C   UNL     1       7.241  25.086  53.402  1.00  0.00     0.096 A 
HETATM    9  C   UNL     1       6.703  25.184  52.118  1.00  0.00     0.046 A 
HETATM   10  C   UNL     1       5.619  26.035  51.881  1.00  0.00    -0.059 A 
HETATM   11  C   UNL     1       5.068  26.200  50.496  1.00  0.00     0.048 C 
HETATM   12  C   UNL     1       5.089  26.772  52.947  1.00  0.00     0.009 A 
HETATM   13  C   UNL     1       5.651  26.692  54.227  1.00  0.00     0.033 A 
BRANCH   8  14
HETATM   14  O   UNL     1       8.318  24.258  53.601  1.00  0.00    -0.340 OA
BRANCH  14  15
HETATM   15  C   UNL     1       8.015  22.912  53.183  1.00  0.00     0.293 C 
BRANCH  15  16
HETATM   16  C   UNL     1       7.965  21.964  54.369  1.00  0.00     0.408 C 
HETATM   17  F   UNL     1       7.577  20.722  54.005  1.00  0.00    -0.169 F 
HETATM   18  F   UNL     1       9.190  21.855  54.937  1.00  0.00    -0.169 F 
HETATM   19  F   UNL     1       7.116  22.406  55.323  1.00  0.00    -0.169 F 
ENDBRANCH  15  16
ENDBRANCH  14  15
ENDBRANCH   8  14
ENDBRANCH   1   7
BRANCH   3  20
HETATM   20  C   UNL     1       8.032  29.131  57.063  1.00  0.00     0.086 A 
HETATM   21  C   UNL     1       9.306  29.701  57.356  1.00  0.00     0.079 A 
HETATM   22  C   UNL     1      10.667  29.312  56.905  1.00  0.00     0.075 C 
HETATM   23  N   UNL     1       9.186  30.797  58.121  1.00  0.00    -0.177 NA
HETATM   24  N   UNL     1       7.870  30.931  58.302  1.00  0.00    -0.280 N 
HETATM   25  H   UNL     1       7.546  31.713  58.863  1.00  0.00     0.189 HD
HETATM   26  C   UNL     1       7.125  29.973  57.680  1.00  0.00     0.052 A 
HETATM   27  C   UNL     1       5.647  29.957  57.779  1.00  0.00     0.072 C 
ENDBRANCH   3  20
TORSDOF 5
ENDMDL
MODEL 7
REMARK VINA RESULT:      -7.3      6.220      8.477
REMARK  5 active torsions:
REMARK  status: ('A' for Active; 'I' for Inactive)
REMARK    1  A    between atoms: C_4  and  O_5 
REMARK    2  A    between atoms: O_5  and  C_6 
REMARK    3  A    between atoms: C_6  and  C_7 
REMARK    4  A    between atoms: C_11  and  N_12 
REMARK       I    between atoms: N_12  and  C_13 
REMARK       I    between atoms: C_13  and  N_14 
REMARK    5  A    between atoms: N_14  and  C_15 
ROOT
HETATM    1  N   UNL     1       8.836  30.546  58.517  1.00  0.00    -0.306 N 
HETATM    2  C   UNL     1       8.108  29.813  57.623  1.00  0.00     0.325 C 
HETATM    3  N   UNL     1       6.983  29.202  58.093  1.00  0.00    -0.305 N 
HETATM    4  O   UNL     1       8.574  29.701  56.491  1.00  0.00    -0.247 OA
HETATM    5  H   UNL     1       9.798  30.619  58.205  1.00  0.00     0.171 HD
HETATM    6  H   UNL     1       6.739  29.366  59.053  1.00  0.00     0.171 HD
ENDROOT
BRANCH   1   7
HETATM    7  C   UNL     1       8.574  31.031  59.811  1.00  0.00     0.069 A 
HETATM    8  C   UNL     1       7.560  31.991  59.949  1.00  0.00     0.096 A 
HETATM    9  C   UNL     1       7.303  32.599  61.179  1.00  0.00     0.046 A 
HETATM   10  C   UNL     1       8.004  32.190  62.318  1.00  0.00    -0.059 A 
HETATM   11  C   UNL     1       7.785  32.874  63.635  1.00  0.00     0.048 C 
HETATM   12  C   UNL     1       8.954  31.168  62.200  1.00  0.00     0.009 A 
HETATM   13  C   UNL     1       9.229  30.581  60.958  1.00  0.00     0.033 A 
BRANCH   8  14
HETATM   14  O   UNL     1       6.870  32.426  58.846  1.00  0.00    -0.340 OA
BRANCH  14  15
HETATM   15  C   UNL     1       5.521  32.793  59.194  1.00  0.00     0.293 C 
BRANCH  15  16
HETATM   16  C   UNL     1       4.792  33.408  58.010  1.00  0.00     0.408 C 
HETATM   17  F   UNL     1       3.498  33.024  57.961  1.00  0.00    -0.169 F 
HETATM   18  F   UNL     1       4.811  34.759  58.096  1.00  0.00    -0.169 F 
HETATM   19  F   UNL     1       5.375  33.069  56.839  1.00  0.00    -0.169 F 
ENDBRANCH  15  16
ENDBRANCH  14  15
ENDBRANCH   8  14
ENDBRANCH   1   7
BRANCH   3  20
HETATM   20  C   UNL     1       6.189  28.277  57.437  1.00  0.00     0.086 A 
HETATM   21  C   UNL     1       6.324  26.887  57.147  1.00  0.00     0.079 A 
HETATM   22  C   UNL     1       7.391  25.921  57.513  1.00  0.00     0.075 C 
HETATM   23  N   UNL     1       5.255  26.421  56.482  1.00  0.00    -0.177 NA
HETATM   24  N   UNL     1       4.453  27.482  56.361  1.00  0.00    -0.280 N 
HETATM   25  H   UNL     1       3.568  27.354  55.880  1.00  0.00     0.189 HD
HETATM   26  C   UNL     1       4.950  28.619  56.927  1.00  0.00     0.052 A 
HETATM   27  C   UNL     1       4.201  29.897  56.881  1.00  0.00     0.072 C 
ENDBRANCH   3  20
TORSDOF 5
ENDMDL
MODEL 8
REMARK VINA RESULT:      -7.2      7.066      8.766
REMARK  5 active torsions:
REMARK  status: ('A' for Active; 'I' for Inactive)
REMARK    1  A    between atoms: C_4  and  O_5 
REMARK    2  A    between atoms: O_5  and  C_6 
REMARK    3  A    between atoms: C_6  and  C_7 
REMARK    4  A    between atoms: C_11  and  N_12 
REMARK       I    between atoms: N_12  and  C_13 
REMARK       I    between atoms: C_13  and  N_14 
REMARK    5  A    between atoms: N_14  and  C_15 
ROOT
HETATM    1  N   UNL     1       7.343  31.364  58.421  1.00  0.00    -0.306 N 
HETATM    2  C   UNL     1       7.328  32.006  59.628  1.00  0.00     0.325 C 
HETATM    3  N   UNL     1       6.361  31.635  60.514  1.00  0.00    -0.305 N 
HETATM    4  O   UNL     1       8.137  32.918  59.778  1.00  0.00    -0.247 OA
HETATM    5  H   UNL     1       7.800  31.942  57.725  1.00  0.00     0.171 HD
HETATM    6  H   UNL     1       5.750  30.886  60.241  1.00  0.00     0.171 HD
ENDROOT
BRANCH   1   7
HETATM    7  C   UNL     1       6.714  30.203  57.935  1.00  0.00     0.069 A 
HETATM    8  C   UNL     1       7.482  29.031  57.870  1.00  0.00     0.096 A 
HETATM    9  C   UNL     1       6.969  27.861  57.307  1.00  0.00     0.046 A 
HETATM   10  C   UNL     1       5.639  27.822  56.875  1.00  0.00    -0.059 A 
HETATM   11  C   UNL     1       5.089  26.594  56.212  1.00  0.00     0.048 C 
HETATM   12  C   UNL     1       4.844  28.964  57.022  1.00  0.00     0.009 A 
HETATM   13  C   UNL     1       5.372  30.144  57.561  1.00  0.00     0.033 A 
BRANCH   8  14
HETATM   14  O   UNL     1       8.796  29.045  58.267  1.00  0.00    -0.340 OA
BRANCH  14  15
HETATM   15  C   UNL     1       9.668  28.698  57.174  1.00  0.00     0.293 C 
BRANCH  15  16
HETATM   16  C   UNL     1      10.568  29.862  56.794  1.00  0.00     0.408 C 
HETATM   17  F   UNL     1      11.866  29.605  57.064  1.00  0.00    -0.169 F 
HETATM   18  F   UNL     1      10.472  30.117  55.468  1.00  0.00    -0.169 F 
HETATM   19  F   UNL     1      10.220  30.992  57.449  1.00  0.00    -0.169 F 
ENDBRANCH  15  16
ENDBRANCH  14  15
ENDBRANCH   8  14
ENDBRANCH   1   7
BRANCH   3  20
HETATM   20  C   UNL     1       6.033  32.249  61.711  1.00  0.00     0.086 A 
HETATM   21  C   UNL     1       6.759  32.544  62.903  1.00  0.00     0.079 A 
HETATM   22  C   UNL     1       8.187  32.321  63.246  1.00  0.00     0.075 C 
HETATM   23  N   UNL     1       5.988  33.177  63.800  1.00  0.00    -0.177 NA
HETATM   24  N   UNL     1       4.804  33.295  63.194  1.00  0.00    -0.280 N 
HETATM   25  H   UNL     1       4.055  33.753  63.703  1.00  0.00     0.189 HD
HETATM   26  C   UNL     1       4.772  32.772  61.934  1.00  0.00     0.052 A 
HETATM   27  C   UNL     1       3.539  32.803  61.115  1.00  0.00     0.072 C 
ENDBRANCH   3  20
TORSDOF 5
ENDMDL
MODEL 9
REMARK VINA RESULT:      -7.2      2.113      3.165
REMARK  5 active torsions:
REMARK  status: ('A' for Active; 'I' for Inactive)
REMARK    1  A    between atoms: C_4  and  O_5 
REMARK    2  A    between atoms: O_5  and  C_6 
REMARK    3  A    between atoms: C_6  and  C_7 
REMARK    4  A    between atoms: C_11  and  N_12 
REMARK       I    between atoms: N_12  and  C_13 
REMARK       I    between atoms: C_13  and  N_14 
REMARK    5  A    between atoms: N_14  and  C_15 
ROOT
HETATM    1  N   UNL     1       5.486  26.511  52.843  1.00  0.00    -0.306 N 
HETATM    2  C   UNL     1       4.807  26.949  51.741  1.00  0.00     0.325 C 
HETATM    3  N   UNL     1       5.122  26.368  50.549  1.00  0.00    -0.305 N 
HETATM    4  O   UNL     1       4.029  27.885  51.908  1.00  0.00    -0.247 OA
HETATM    5  H   UNL     1       5.481  27.227  53.561  1.00  0.00     0.171 HD
HETATM    6  H   UNL     1       5.800  25.627  50.564  1.00  0.00     0.171 HD
ENDROOT
BRANCH   1   7
HETATM    7  C   UNL     1       6.308  25.398  53.094  1.00  0.00     0.069 A 
HETATM    8  C   UNL     1       6.212  24.793  54.356  1.00  0.00     0.096 A 
HETATM    9  C   UNL     1       7.061  23.749  54.724  1.00  0.00     0.046 A 
HETATM   10  C   UNL     1       7.971  23.232  53.796  1.00  0.00    -0.059 A 
HETATM   11  C   UNL     1       8.934  22.152  54.193  1.00  0.00     0.048 C 
HETATM   12  C   UNL     1       8.007  23.774  52.506  1.00  0.00     0.009 A 
HETATM   13  C   UNL     1       7.173  24.841  52.151  1.00  0.00     0.033 A 
BRANCH   8  14
HETATM   14  O   UNL     1       5.343  25.293  55.294  1.00  0.00    -0.340 OA
BRANCH  14  15
HETATM   15  C   UNL     1       6.031  25.597  56.523  1.00  0.00     0.293 C 
BRANCH  15  16
HETATM   16  C   UNL     1       6.625  26.996  56.492  1.00  0.00     0.408 C 
HETATM   17  F   UNL     1       7.840  27.014  55.903  1.00  0.00    -0.169 F 
HETATM   18  F   UNL     1       5.823  27.832  55.792  1.00  0.00    -0.169 F 
HETATM   19  F   UNL     1       6.753  27.508  57.736  1.00  0.00    -0.169 F 
ENDBRANCH  15  16
ENDBRANCH  14  15
ENDBRANCH   8  14
ENDBRANCH   1   7
BRANCH   3  20
HETATM   20  C   UNL     1       4.708  26.756  49.286  1.00  0.00     0.086 A 
HETATM   21  C   UNL     1       3.899  26.149  48.280  1.00  0.00     0.079 A 
HETATM   22  C   UNL     1       3.160  24.860  48.279  1.00  0.00     0.075 C 
HETATM   23  N   UNL     1       3.775  26.945  47.207  1.00  0.00    -0.177 NA
HETATM   24  N   UNL     1       4.477  28.036  47.522  1.00  0.00    -0.280 N 
HETATM   25  H   UNL     1       4.520  28.786  46.838  1.00  0.00     0.189 HD
HETATM   26  C   UNL     1       5.046  27.990  48.761  1.00  0.00     0.052 A 
HETATM   27  C   UNL     1       5.869  29.109  49.276  1.00  0.00     0.072 C 
ENDBRANCH   3  20
TORSDOF 5
ENDMDL
MODEL 10
REMARK VINA RESULT:      -7.1      3.700      7.386
REMARK  5 active torsions:
REMARK  status: ('A' for Active; 'I' for Inactive)
REMARK    1  A    between atoms: C_4  and  O_5 
REMARK    2  A    between atoms: O_5  and  C_6 
REMARK    3  A    between atoms: C_6  and  C_7 
REMARK    4  A    between atoms: C_11  and  N_12 
REMARK       I    between atoms: N_12  and  C_13 
REMARK       I    between atoms: C_13  and  N_14 
REMARK    5  A    between atoms: N_14  and  C_15 
ROOT
HETATM    1  N   UNL     1       4.404  26.426  51.708  1.00  0.00    -0.306 N 
HETATM    2  C   UNL     1       4.939  25.675  52.716  1.00  0.00     0.325 C 
HETATM    3  N   UNL     1       6.159  26.055  53.191  1.00  0.00    -0.305 N 
HETATM    4  O   UNL     1       4.311  24.673  53.051  1.00  0.00    -0.247 OA
HETATM    5  H   UNL     1       3.738  25.874  51.178  1.00  0.00     0.171 HD
HETATM    6  H   UNL     1       6.565  26.887  52.801  1.00  0.00     0.171 HD
ENDROOT
BRANCH   1   7
HETATM    7  C   UNL     1       4.717  27.688  51.170  1.00  0.00     0.069 A 
HETATM    8  C   UNL     1       5.103  27.739  49.823  1.00  0.00     0.096 A 
HETATM    9  C   UNL     1       5.528  28.933  49.237  1.00  0.00     0.046 A 
HETATM   10  C   UNL     1       5.490  30.121  49.974  1.00  0.00    -0.059 A 
HETATM   11  C   UNL     1       6.000  31.402  49.382  1.00  0.00     0.048 C 
HETATM   12  C   UNL     1       5.019  30.088  51.292  1.00  0.00     0.009 A 
HETATM   13  C   UNL     1       4.622  28.883  51.883  1.00  0.00     0.033 A 
BRANCH   8  14
HETATM   14  O   UNL     1       5.170  26.586  49.081  1.00  0.00    -0.340 OA
BRANCH  14  15
HETATM   15  C   UNL     1       4.393  26.705  47.873  1.00  0.00     0.293 C 
BRANCH  15  16
HETATM   16  C   UNL     1       3.129  25.865  47.944  1.00  0.00     0.408 C 
HETATM   17  F   UNL     1       2.068  26.586  48.368  1.00  0.00    -0.169 F 
HETATM   18  F   UNL     1       2.821  25.372  46.721  1.00  0.00    -0.169 F 
HETATM   19  F   UNL     1       3.279  24.811  48.777  1.00  0.00    -0.169 F 
ENDBRANCH  15  16
ENDBRANCH  14  15
ENDBRANCH   8  14
ENDBRANCH   1   7
BRANCH   3  20
HETATM   20  C   UNL     1       6.974  25.364  54.071  1.00  0.00     0.086 A 
HETATM   21  C   UNL     1       7.724  24.154  53.982  1.00  0.00     0.079 A 
HETATM   22  C   UNL     1       7.922  23.219  52.845  1.00  0.00     0.075 C 
HETATM   23  N   UNL     1       8.380  23.902  55.125  1.00  0.00    -0.177 NA
HETATM   24  N   UNL     1       8.069  24.929  55.919  1.00  0.00    -0.280 N 
HETATM   25  H   UNL     1       8.465  24.943  56.854  1.00  0.00     0.189 HD
HETATM   26  C   UNL     1       7.243  25.847  55.339  1.00  0.00     0.052 A 
HETATM   27  C   UNL     1       6.783  27.048  56.074  1.00  0.00     0.072 C 
ENDBRANCH   3  20
TORSDOF 5
ENDMDL
