MODEL 1
REMARK VINA RESULT:     -10.8      0.000      0.000
REMARK  3 active torsions:
REMARK  status: ('A' for Active; 'I' for Inactive)
REMARK    1  A    between atoms: C_6  and  C_7 
REMARK       I    between atoms: C_7  and  N_8 
REMARK    2  A    between atoms: N_8  and  C_9 
REMARK    3  A    between atoms: C_16  and  C_17 
REMARK       I    between atoms: C_17  and  N_18 
ROOT
HETATM    1  C   UNL     1       7.273  25.496  52.773  1.00  0.00     0.257 C 
HETATM    2  N   UNL     1       6.004  26.002  52.564  1.00  0.00    -0.323 N 
HETATM    3  O   UNL     1       8.227  25.565  52.008  1.00  0.00    -0.267 OA
HETATM    4  H   UNL     1       5.340  25.928  53.323  1.00  0.00     0.169 HD
ENDROOT
BRANCH   2   5
HETATM    5  C   UNL     1       5.527  26.627  51.393  1.00  0.00     0.036 A 
HETATM    6  C   UNL     1       4.875  25.934  50.364  1.00  0.00     0.046 A 
HETATM    7  C   UNL     1       4.374  26.650  49.255  1.00  0.00     0.030 A 
HETATM    8  C   UNL     1       4.586  28.022  49.189  1.00  0.00     0.063 A 
HETATM    9  C   UNL     1       3.615  26.339  48.086  1.00  0.00     0.156 A 
HETATM   10  N   UNL     1       4.023  28.420  48.009  1.00  0.00    -0.277 N 
HETATM   11  C   UNL     1       5.245  28.740  50.189  1.00  0.00     0.034 A 
HETATM   12  H   UNL     1       4.004  29.357  47.624  1.00  0.00     0.189 HD
HETATM   13  N   UNL     1       3.413  27.439  47.325  1.00  0.00    -0.168 NA
HETATM   14  C   UNL     1       5.688  28.016  51.303  1.00  0.00     0.032 A 
BRANCH   9  15
HETATM   15  C   UNL     1       3.053  25.036  47.702  1.00  0.00     0.270 C 
HETATM   16  N   UNL     1       2.639  24.968  46.400  1.00  0.00    -0.365 N 
HETATM   17  H   UNL     1       2.714  25.799  45.825  1.00  0.00     0.159 HD
HETATM   18  H   UNL     1       2.188  24.132  46.063  1.00  0.00     0.159 HD
HETATM   19  O   UNL     1       2.926  24.078  48.458  1.00  0.00    -0.266 OA
ENDBRANCH   9  15
ENDBRANCH   2   5
BRANCH   1  20
HETATM   20  C   UNL     1       7.457  24.753  54.049  1.00  0.00     0.046 A 
HETATM   21  C   UNL     1       7.723  23.364  54.132  1.00  0.00     0.009 A 
HETATM   22  C   UNL     1       7.995  22.866  55.425  1.00  0.00     0.071 A 
HETATM   23  C   UNL     1       7.714  22.453  53.041  1.00  0.00     0.018 A 
HETATM   24  N   UNL     1       7.949  23.628  56.529  1.00  0.00    -0.253 NA
HETATM   25  C   UNL     1       8.319  21.528  55.583  1.00  0.00     0.074 A 
HETATM   26  C   UNL     1       7.614  24.932  56.424  1.00  0.00     0.032 A 
HETATM   27  C   UNL     1       7.514  25.726  57.692  1.00  0.00     0.070 C 
HETATM   28  C   UNL     1       7.373  25.533  55.206  1.00  0.00     0.044 A 
HETATM   29  C   UNL     1       8.351  20.665  54.497  1.00  0.00     0.118 A 
HETATM   30  F   UNL     1       8.674  19.379  54.683  1.00  0.00    -0.206 F 
HETATM   31  C   UNL     1       8.040  21.111  53.225  1.00  0.00     0.043 A 
ENDBRANCH   1  20
TORSDOF 3
ENDMDL
MODEL 2
REMARK VINA RESULT:     -10.4      5.129      8.722
REMARK  3 active torsions:
REMARK  status: ('A' for Active; 'I' for Inactive)
REMARK    1  A    between atoms: C_6  and  C_7 
REMARK       I    between atoms: C_7  and  N_8 
REMARK    2  A    between atoms: N_8  and  C_9 
REMARK    3  A    between atoms: C_16  and  C_17 
REMARK       I    between atoms: C_17  and  N_18 
ROOT
HETATM    1  C   UNL     1       7.985  26.290  57.203  1.00  0.00     0.257 C 
HETATM    2  N   UNL     1       8.350  27.443  56.533  1.00  0.00    -0.323 N 
HETATM    3  O   UNL     1       7.938  26.129  58.417  1.00  0.00    -0.267 OA
HETATM    4  H   UNL     1       8.270  27.442  55.525  1.00  0.00     0.169 HD
ENDROOT
BRANCH   2   5
HETATM    5  C   UNL     1       8.823  28.640  57.109  1.00  0.00     0.036 A 
HETATM    6  C   UNL     1       8.043  29.451  57.944  1.00  0.00     0.046 A 
HETATM    7  C   UNL     1       8.617  30.601  58.528  1.00  0.00     0.030 A 
HETATM    8  C   UNL     1       9.933  30.925  58.219  1.00  0.00     0.063 A 
HETATM    9  C   UNL     1       8.200  31.602  59.456  1.00  0.00     0.156 A 
HETATM   10  N   UNL     1      10.191  32.082  58.899  1.00  0.00    -0.277 N 
HETATM   11  C   UNL     1      10.733  30.147  57.380  1.00  0.00     0.034 A 
HETATM   12  H   UNL     1      11.051  32.618  58.895  1.00  0.00     0.189 HD
HETATM   13  N   UNL     1       9.179  32.512  59.669  1.00  0.00    -0.168 NA
HETATM   14  C   UNL     1      10.157  28.985  56.853  1.00  0.00     0.032 A 
BRANCH   9  15
HETATM   15  C   UNL     1       6.915  31.689  60.165  1.00  0.00     0.270 C 
HETATM   16  N   UNL     1       6.951  31.216  61.448  1.00  0.00    -0.365 N 
HETATM   17  H   UNL     1       7.819  30.823  61.794  1.00  0.00     0.159 HD
HETATM   18  H   UNL     1       6.103  31.183  61.991  1.00  0.00     0.159 HD
HETATM   19  O   UNL     1       5.874  32.117  59.676  1.00  0.00    -0.266 OA
ENDBRANCH   9  15
ENDBRANCH   2   5
BRANCH   1  20
HETATM   20  C   UNL     1       7.666  25.125  56.335  1.00  0.00     0.046 A 
HETATM   21  C   UNL     1       6.894  25.202  55.149  1.00  0.00     0.009 A 
HETATM   22  C   UNL     1       6.809  24.012  54.393  1.00  0.00     0.071 A 
HETATM   23  C   UNL     1       6.198  26.351  54.688  1.00  0.00     0.018 A 
HETATM   24  N   UNL     1       7.364  22.853  54.783  1.00  0.00    -0.253 NA
HETATM   25  C   UNL     1       6.119  24.019  53.192  1.00  0.00     0.074 A 
HETATM   26  C   UNL     1       8.026  22.796  55.959  1.00  0.00     0.032 A 
HETATM   27  C   UNL     1       8.573  21.465  56.381  1.00  0.00     0.070 C 
HETATM   28  C   UNL     1       8.209  23.907  56.755  1.00  0.00     0.044 A 
HETATM   29  C   UNL     1       5.485  25.167  52.735  1.00  0.00     0.118 A 
HETATM   30  F   UNL     1       4.832  25.141  51.567  1.00  0.00    -0.206 F 
HETATM   31  C   UNL     1       5.507  26.334  53.478  1.00  0.00     0.043 A 
ENDBRANCH   1  20
TORSDOF 3
ENDMDL
MODEL 3
REMARK VINA RESULT:     -10.2      1.957      3.102
REMARK  3 active torsions:
REMARK  status: ('A' for Active; 'I' for Inactive)
REMARK    1  A    between atoms: C_6  and  C_7 
REMARK       I    between atoms: C_7  and  N_8 
REMARK    2  A    between atoms: N_8  and  C_9 
REMARK    3  A    between atoms: C_16  and  C_17 
REMARK       I    between atoms: C_17  and  N_18 
ROOT
HETATM    1  C   UNL     1       5.875  24.830  52.968  1.00  0.00     0.257 C 
HETATM    2  N   UNL     1       6.412  25.697  52.034  1.00  0.00    -0.323 N 
HETATM    3  O   UNL     1       4.705  24.767  53.324  1.00  0.00    -0.267 OA
HETATM    4  H   UNL     1       7.388  25.579  51.793  1.00  0.00     0.169 HD
ENDROOT
BRANCH   2   5
HETATM    5  C   UNL     1       5.738  26.739  51.364  1.00  0.00     0.036 A 
HETATM    6  C   UNL     1       4.948  26.535  50.224  1.00  0.00     0.046 A 
HETATM    7  C   UNL     1       4.259  27.627  49.653  1.00  0.00     0.030 A 
HETATM    8  C   UNL     1       4.421  28.889  50.212  1.00  0.00     0.063 A 
HETATM    9  C   UNL     1       3.331  27.814  48.584  1.00  0.00     0.156 A 
HETATM   10  N   UNL     1       3.667  29.727  49.439  1.00  0.00    -0.277 N 
HETATM   11  C   UNL     1       5.211  29.130  51.337  1.00  0.00     0.034 A 
HETATM   12  H   UNL     1       3.561  30.730  49.543  1.00  0.00     0.189 HD
HETATM   13  N   UNL     1       2.982  29.115  48.460  1.00  0.00    -0.168 NA
HETATM   14  C   UNL     1       5.845  28.023  51.915  1.00  0.00     0.032 A 
BRANCH   9  15
HETATM   15  C   UNL     1       2.751  26.784  47.710  1.00  0.00     0.270 C 
HETATM   16  N   UNL     1       1.433  26.514  47.963  1.00  0.00    -0.365 N 
HETATM   17  H   UNL     1       0.979  27.000  48.728  1.00  0.00     0.159 HD
HETATM   18  H   UNL     1       0.967  25.782  47.452  1.00  0.00     0.159 HD
HETATM   19  O   UNL     1       3.365  26.179  46.837  1.00  0.00    -0.266 OA
ENDBRANCH   9  15
ENDBRANCH   2   5
BRANCH   1  20
HETATM   20  C   UNL     1       6.853  23.924  53.627  1.00  0.00     0.046 A 
HETATM   21  C   UNL     1       7.442  24.170  54.892  1.00  0.00     0.009 A 
HETATM   22  C   UNL     1       8.247  23.130  55.409  1.00  0.00     0.071 A 
HETATM   23  C   UNL     1       7.305  25.363  55.650  1.00  0.00     0.018 A 
HETATM   24  N   UNL     1       8.503  21.998  54.736  1.00  0.00    -0.253 NA
HETATM   25  C   UNL     1       8.813  23.272  56.665  1.00  0.00     0.074 A 
HETATM   26  C   UNL     1       7.990  21.829  53.498  1.00  0.00     0.032 A 
HETATM   27  C   UNL     1       8.356  20.575  52.761  1.00  0.00     0.070 C 
HETATM   28  C   UNL     1       7.154  22.759  52.915  1.00  0.00     0.044 A 
HETATM   29  C   UNL     1       8.628  24.428  57.410  1.00  0.00     0.118 A 
HETATM   30  F   UNL     1       9.184  24.529  58.624  1.00  0.00    -0.206 F 
HETATM   31  C   UNL     1       7.887  25.484  56.910  1.00  0.00     0.043 A 
ENDBRANCH   1  20
TORSDOF 3
ENDMDL
MODEL 4
REMARK VINA RESULT:      -9.8      4.879      8.291
REMARK  3 active torsions:
REMARK  status: ('A' for Active; 'I' for Inactive)
REMARK    1  A    between atoms: C_6  and  C_7 
REMARK       I    between atoms: C_7  and  N_8 
REMARK    2  A    between atoms: N_8  and  C_9 
REMARK    3  A    between atoms: C_16  and  C_17 
REMARK       I    between atoms: C_17  and  N_18 
ROOT
HETATM    1  C   UNL     1       7.524  26.825  56.107  1.00  0.00     0.257 C 
HETATM    2  N   UNL     1       8.090  28.028  55.730  1.00  0.00    -0.323 N 
HETATM    3  O   UNL     1       7.288  26.450  57.249  1.00  0.00    -0.267 OA
HETATM    4  H   UNL     1       8.156  28.223  54.739  1.00  0.00     0.169 HD
ENDROOT
BRANCH   2   5
HETATM    5  C   UNL     1       8.589  29.032  56.586  1.00  0.00     0.036 A 
HETATM    6  C   UNL     1       7.764  29.881  57.336  1.00  0.00     0.046 A 
HETATM    7  C   UNL     1       8.349  30.818  58.215  1.00  0.00     0.030 A 
HETATM    8  C   UNL     1       9.735  30.905  58.278  1.00  0.00     0.063 A 
HETATM    9  C   UNL     1       7.877  31.768  59.171  1.00  0.00     0.156 A 
HETATM   10  N   UNL     1       9.995  31.901  59.177  1.00  0.00    -0.277 N 
HETATM   11  C   UNL     1      10.585  30.085  57.533  1.00  0.00     0.034 A 
HETATM   12  H   UNL     1      10.903  32.251  59.459  1.00  0.00     0.189 HD
HETATM   13  N   UNL     1       8.903  32.433  59.749  1.00  0.00    -0.168 NA
HETATM   14  C   UNL     1       9.981  29.131  56.705  1.00  0.00     0.032 A 
BRANCH   9  15
HETATM   15  C   UNL     1       6.485  32.028  59.565  1.00  0.00     0.270 C 
HETATM   16  N   UNL     1       6.245  31.872  60.903  1.00  0.00    -0.365 N 
HETATM   17  H   UNL     1       7.006  31.568  61.498  1.00  0.00     0.159 HD
HETATM   18  H   UNL     1       5.307  31.974  61.256  1.00  0.00     0.159 HD
HETATM   19  O   UNL     1       5.584  32.334  58.791  1.00  0.00    -0.266 OA
ENDBRANCH   9  15
ENDBRANCH   2   5
BRANCH   1  20
HETATM   20  C   UNL     1       7.222  25.888  54.992  1.00  0.00     0.046 A 
HETATM   21  C   UNL     1       7.664  24.543  54.939  1.00  0.00     0.009 A 
HETATM   22  C   UNL     1       7.168  23.775  53.862  1.00  0.00     0.071 A 
HETATM   23  C   UNL     1       8.563  23.931  55.853  1.00  0.00     0.018 A 
HETATM   24  N   UNL     1       6.377  24.281  52.903  1.00  0.00    -0.253 NA
HETATM   25  C   UNL     1       7.509  22.435  53.772  1.00  0.00     0.074 A 
HETATM   26  C   UNL     1       6.040  25.588  52.940  1.00  0.00     0.032 A 
HETATM   27  C   UNL     1       5.208  26.121  51.812  1.00  0.00     0.070 C 
HETATM   28  C   UNL     1       6.430  26.419  53.970  1.00  0.00     0.044 A 
HETATM   29  C   UNL     1       8.351  21.844  54.702  1.00  0.00     0.118 A 
HETATM   30  F   UNL     1       8.656  20.545  54.589  1.00  0.00    -0.206 F 
HETATM   31  C   UNL     1       8.894  22.582  55.739  1.00  0.00     0.043 A 
ENDBRANCH   1  20
TORSDOF 3
ENDMDL
MODEL 5
REMARK VINA RESULT:      -9.8      1.665      2.984
REMARK  3 active torsions:
REMARK  status: ('A' for Active; 'I' for Inactive)
REMARK    1  A    between atoms: C_6  and  C_7 
REMARK       I    between atoms: C_7  and  N_8 
REMARK    2  A    between atoms: N_8  and  C_9 
REMARK    3  A    between atoms: C_16  and  C_17 
REMARK       I    between atoms: C_17  and  N_18 
ROOT
HETATM    1  C   UNL     1       7.258  25.496  52.761  1.00  0.00     0.257 C 
HETATM    2  N   UNL     1       6.029  26.113  52.627  1.00  0.00    -0.323 N 
HETATM    3  O   UNL     1       8.147  25.439  51.920  1.00  0.00    -0.267 OA
HETATM    4  H   UNL     1       5.427  26.136  53.441  1.00  0.00     0.169 HD
ENDROOT
BRANCH   2   5
HETATM    5  C   UNL     1       5.514  26.728  51.467  1.00  0.00     0.036 A 
HETATM    6  C   UNL     1       5.573  28.109  51.239  1.00  0.00     0.046 A 
HETATM    7  C   UNL     1       5.089  28.633  50.021  1.00  0.00     0.030 A 
HETATM    8  C   UNL     1       4.520  27.766  49.097  1.00  0.00     0.063 A 
HETATM    9  C   UNL     1       5.042  29.917  49.399  1.00  0.00     0.156 A 
HETATM   10  N   UNL     1       4.125  28.556  48.054  1.00  0.00    -0.277 N 
HETATM   11  C   UNL     1       4.431  26.387  49.298  1.00  0.00     0.034 A 
HETATM   12  H   UNL     1       3.654  28.262  47.205  1.00  0.00     0.189 HD
HETATM   13  N   UNL     1       4.438  29.854  48.190  1.00  0.00    -0.168 NA
HETATM   14  C   UNL     1       4.963  25.885  50.493  1.00  0.00     0.032 A 
BRANCH   9  15
HETATM   15  C   UNL     1       5.585  31.183  49.912  1.00  0.00     0.270 C 
HETATM   16  N   UNL     1       4.702  31.905  50.668  1.00  0.00    -0.365 N 
HETATM   17  H   UNL     1       3.762  31.546  50.787  1.00  0.00     0.159 HD
HETATM   18  H   UNL     1       4.969  32.813  51.013  1.00  0.00     0.159 HD
HETATM   19  O   UNL     1       6.715  31.602  49.684  1.00  0.00    -0.266 OA
ENDBRANCH   9  15
ENDBRANCH   2   5
BRANCH   1  20
HETATM   20  C   UNL     1       7.481  24.797  54.055  1.00  0.00     0.046 A 
HETATM   21  C   UNL     1       7.749  23.411  54.177  1.00  0.00     0.009 A 
HETATM   22  C   UNL     1       8.059  22.956  55.478  1.00  0.00     0.071 A 
HETATM   23  C   UNL     1       7.708  22.464  53.118  1.00  0.00     0.018 A 
HETATM   24  N   UNL     1       8.046  23.755  56.556  1.00  0.00    -0.253 NA
HETATM   25  C   UNL     1       8.387  21.625  55.671  1.00  0.00     0.074 A 
HETATM   26  C   UNL     1       7.708  25.056  56.417  1.00  0.00     0.032 A 
HETATM   27  C   UNL     1       7.646  25.892  57.660  1.00  0.00     0.070 C 
HETATM   28  C   UNL     1       7.431  25.616  55.187  1.00  0.00     0.044 A 
HETATM   29  C   UNL     1       8.388  20.725  54.614  1.00  0.00     0.118 A 
HETATM   30  F   UNL     1       8.717  19.446  54.834  1.00  0.00    -0.206 F 
HETATM   31  C   UNL     1       8.039  21.129  53.337  1.00  0.00     0.043 A 
ENDBRANCH   1  20
TORSDOF 3
ENDMDL
MODEL 6
REMARK VINA RESULT:      -9.7      3.070      8.442
REMARK  3 active torsions:
REMARK  status: ('A' for Active; 'I' for Inactive)
REMARK    1  A    between atoms: C_6  and  C_7 
REMARK       I    between atoms: C_7  and  N_8 
REMARK    2  A    between atoms: N_8  and  C_9 
REMARK    3  A    between atoms: C_16  and  C_17 
REMARK       I    between atoms: C_17  and  N_18 
ROOT
HETATM    1  C   UNL     1       5.477  26.552  51.710  1.00  0.00     0.257 C 
HETATM    2  N   UNL     1       6.753  26.021  51.736  1.00  0.00    -0.323 N 
HETATM    3  O   UNL     1       4.598  26.394  52.550  1.00  0.00    -0.267 OA
HETATM    4  H   UNL     1       7.391  26.303  51.002  1.00  0.00     0.169 HD
ENDROOT
BRANCH   2   5
HETATM    5  C   UNL     1       7.274  25.122  52.689  1.00  0.00     0.036 A 
HETATM    6  C   UNL     1       7.308  25.394  54.064  1.00  0.00     0.046 A 
HETATM    7  C   UNL     1       7.791  24.411  54.954  1.00  0.00     0.030 A 
HETATM    8  C   UNL     1       8.268  23.213  54.436  1.00  0.00     0.063 A 
HETATM    9  C   UNL     1       7.912  24.274  56.370  1.00  0.00     0.156 A 
HETATM   10  N   UNL     1       8.686  22.491  55.518  1.00  0.00    -0.277 N 
HETATM   11  C   UNL     1       8.263  22.916  53.071  1.00  0.00     0.034 A 
HETATM   12  H   UNL     1       9.108  21.569  55.516  1.00  0.00     0.189 HD
HETATM   13  N   UNL     1       8.472  23.088  56.702  1.00  0.00    -0.168 NA
HETATM   14  C   UNL     1       7.733  23.887  52.213  1.00  0.00     0.032 A 
BRANCH   9  15
HETATM   15  C   UNL     1       7.478  25.225  57.403  1.00  0.00     0.270 C 
HETATM   16  N   UNL     1       6.120  25.317  57.542  1.00  0.00    -0.365 N 
HETATM   17  H   UNL     1       5.533  24.771  56.923  1.00  0.00     0.159 HD
HETATM   18  H   UNL     1       5.729  25.986  58.186  1.00  0.00     0.159 HD
HETATM   19  O   UNL     1       8.232  25.911  58.085  1.00  0.00    -0.266 OA
ENDBRANCH   9  15
ENDBRANCH   2   5
BRANCH   1  20
HETATM   20  C   UNL     1       5.148  27.357  50.503  1.00  0.00     0.046 A 
HETATM   21  C   UNL     1       4.394  26.876  49.405  1.00  0.00     0.009 A 
HETATM   22  C   UNL     1       4.077  27.829  48.411  1.00  0.00     0.071 A 
HETATM   23  C   UNL     1       3.962  25.535  49.222  1.00  0.00     0.018 A 
HETATM   24  N   UNL     1       4.505  29.100  48.452  1.00  0.00    -0.253 NA
HETATM   25  C   UNL     1       3.295  27.450  47.333  1.00  0.00     0.074 A 
HETATM   26  C   UNL     1       5.289  29.506  49.474  1.00  0.00     0.032 A 
HETATM   27  C   UNL     1       5.794  30.918  49.442  1.00  0.00     0.070 C 
HETATM   28  C   UNL     1       5.623  28.672  50.521  1.00  0.00     0.044 A 
HETATM   29  C   UNL     1       2.843  26.145  47.197  1.00  0.00     0.118 A 
HETATM   30  F   UNL     1       2.084  25.813  46.145  1.00  0.00    -0.206 F 
HETATM   31  C   UNL     1       3.180  25.176  48.126  1.00  0.00     0.043 A 
ENDBRANCH   1  20
TORSDOF 3
ENDMDL
MODEL 7
REMARK VINA RESULT:      -9.6      4.682      7.582
REMARK  3 active torsions:
REMARK  status: ('A' for Active; 'I' for Inactive)
REMARK    1  A    between atoms: C_6  and  C_7 
REMARK       I    between atoms: C_7  and  N_8 
REMARK    2  A    between atoms: N_8  and  C_9 
REMARK    3  A    between atoms: C_16  and  C_17 
REMARK       I    between atoms: C_17  and  N_18 
ROOT
HETATM    1  C   UNL     1       7.724  26.076  56.583  1.00  0.00     0.257 C 
HETATM    2  N   UNL     1       7.356  27.340  56.162  1.00  0.00    -0.323 N 
HETATM    3  O   UNL     1       8.051  25.745  57.717  1.00  0.00    -0.267 OA
HETATM    4  H   UNL     1       7.042  27.441  55.205  1.00  0.00     0.169 HD
ENDROOT
BRANCH   2   5
HETATM    5  C   UNL     1       7.365  28.522  56.931  1.00  0.00     0.036 A 
HETATM    6  C   UNL     1       6.212  29.273  57.199  1.00  0.00     0.046 A 
HETATM    7  C   UNL     1       6.302  30.410  58.031  1.00  0.00     0.030 A 
HETATM    8  C   UNL     1       7.547  30.784  58.524  1.00  0.00     0.063 A 
HETATM    9  C   UNL     1       5.388  31.355  58.586  1.00  0.00     0.156 A 
HETATM   10  N   UNL     1       7.321  31.915  59.257  1.00  0.00    -0.277 N 
HETATM   11  C   UNL     1       8.717  30.068  58.264  1.00  0.00     0.034 A 
HETATM   12  H   UNL     1       8.008  32.474  59.750  1.00  0.00     0.189 HD
HETATM   13  N   UNL     1       6.032  32.281  59.333  1.00  0.00    -0.168 NA
HETATM   14  C   UNL     1       8.594  28.916  57.478  1.00  0.00     0.032 A 
BRANCH   9  15
HETATM   15  C   UNL     1       3.924  31.373  58.449  1.00  0.00     0.270 C 
HETATM   16  N   UNL     1       3.274  30.502  59.280  1.00  0.00    -0.365 N 
HETATM   17  H   UNL     1       3.828  29.904  59.882  1.00  0.00     0.159 HD
HETATM   18  H   UNL     1       2.274  30.404  59.215  1.00  0.00     0.159 HD
HETATM   19  O   UNL     1       3.304  32.074  57.656  1.00  0.00    -0.266 OA
ENDBRANCH   9  15
ENDBRANCH   2   5
BRANCH   1  20
HETATM   20  C   UNL     1       7.762  25.038  55.518  1.00  0.00     0.046 A 
HETATM   21  C   UNL     1       7.950  23.655  55.759  1.00  0.00     0.009 A 
HETATM   22  C   UNL     1       7.827  22.812  54.632  1.00  0.00     0.071 A 
HETATM   23  C   UNL     1       8.266  23.069  57.014  1.00  0.00     0.018 A 
HETATM   24  N   UNL     1       7.609  23.274  53.391  1.00  0.00    -0.253 NA
HETATM   25  C   UNL     1       7.941  21.441  54.795  1.00  0.00     0.074 A 
HETATM   26  C   UNL     1       7.514  24.605  53.184  1.00  0.00     0.032 A 
HETATM   27  C   UNL     1       7.335  25.075  51.772  1.00  0.00     0.070 C 
HETATM   28  C   UNL     1       7.574  25.516  54.218  1.00  0.00     0.044 A 
HETATM   29  C   UNL     1       8.203  20.885  56.040  1.00  0.00     0.118 A 
HETATM   30  F   UNL     1       8.302  19.555  56.163  1.00  0.00    -0.206 F 
HETATM   31  C   UNL     1       8.380  21.687  57.153  1.00  0.00     0.043 A 
ENDBRANCH   1  20
TORSDOF 3
ENDMDL
MODEL 8
REMARK VINA RESULT:      -9.5      8.501     12.139
REMARK  3 active torsions:
REMARK  status: ('A' for Active; 'I' for Inactive)
REMARK    1  A    between atoms: C_6  and  C_7 
REMARK       I    between atoms: C_7  and  N_8 
REMARK    2  A    between atoms: N_8  and  C_9 
REMARK    3  A    between atoms: C_16  and  C_17 
REMARK       I    between atoms: C_17  and  N_18 
ROOT
HETATM    1  C   UNL     1       7.320  31.598  59.280  1.00  0.00     0.257 C 
HETATM    2  N   UNL     1       7.583  31.301  60.604  1.00  0.00    -0.323 N 
HETATM    3  O   UNL     1       6.694  32.561  58.853  1.00  0.00    -0.267 OA
HETATM    4  H   UNL     1       8.177  30.505  60.796  1.00  0.00     0.169 HD
ENDROOT
BRANCH   2   5
HETATM    5  C   UNL     1       7.111  31.998  61.736  1.00  0.00     0.036 A 
HETATM    6  C   UNL     1       5.810  32.512  61.834  1.00  0.00     0.046 A 
HETATM    7  C   UNL     1       5.403  33.142  63.030  1.00  0.00     0.030 A 
HETATM    8  C   UNL     1       6.321  33.281  64.063  1.00  0.00     0.063 A 
HETATM    9  C   UNL     1       4.192  33.704  63.536  1.00  0.00     0.156 A 
HETATM   10  N   UNL     1       5.654  33.944  65.055  1.00  0.00    -0.277 N 
HETATM   11  C   UNL     1       7.629  32.795  63.992  1.00  0.00     0.034 A 
HETATM   12  H   UNL     1       6.021  34.232  65.955  1.00  0.00     0.189 HD
HETATM   13  N   UNL     1       4.365  34.200  64.783  1.00  0.00    -0.168 NA
HETATM   14  C   UNL     1       7.994  32.129  62.815  1.00  0.00     0.032 A 
BRANCH   9  15
HETATM   15  C   UNL     1       2.878  33.745  62.878  1.00  0.00     0.270 C 
HETATM   16  N   UNL     1       1.820  33.789  63.745  1.00  0.00    -0.365 N 
HETATM   17  H   UNL     1       2.008  33.757  64.739  1.00  0.00     0.159 HD
HETATM   18  H   UNL     1       0.879  33.762  63.385  1.00  0.00     0.159 HD
HETATM   19  O   UNL     1       2.702  33.718  61.664  1.00  0.00    -0.266 OA
ENDBRANCH   9  15
ENDBRANCH   2   5
BRANCH   1  20
HETATM   20  C   UNL     1       7.823  30.604  58.295  1.00  0.00     0.046 A 
HETATM   21  C   UNL     1       6.991  29.771  57.507  1.00  0.00     0.009 A 
HETATM   22  C   UNL     1       7.650  28.984  56.537  1.00  0.00     0.071 A 
HETATM   23  C   UNL     1       5.581  29.654  57.632  1.00  0.00     0.018 A 
HETATM   24  N   UNL     1       8.984  28.963  56.393  1.00  0.00    -0.253 NA
HETATM   25  C   UNL     1       6.901  28.184  55.689  1.00  0.00     0.074 A 
HETATM   26  C   UNL     1       9.754  29.709  57.214  1.00  0.00     0.032 A 
HETATM   27  C   UNL     1      11.241  29.603  57.055  1.00  0.00     0.070 C 
HETATM   28  C   UNL     1       9.214  30.549  58.166  1.00  0.00     0.044 A 
HETATM   29  C   UNL     1       5.519  28.121  55.797  1.00  0.00     0.118 A 
HETATM   30  F   UNL     1       4.824  27.342  54.958  1.00  0.00    -0.206 F 
HETATM   31  C   UNL     1       4.848  28.840  56.771  1.00  0.00     0.043 A 
ENDBRANCH   1  20
TORSDOF 3
ENDMDL
MODEL 9
REMARK VINA RESULT:      -9.5      5.331      8.185
REMARK  3 active torsions:
REMARK  status: ('A' for Active; 'I' for Inactive)
REMARK    1  A    between atoms: C_6  and  C_7 
REMARK       I    between atoms: C_7  and  N_8 
REMARK    2  A    between atoms: N_8  and  C_9 
REMARK    3  A    between atoms: C_16  and  C_17 
REMARK       I    between atoms: C_17  and  N_18 
ROOT
HETATM    1  C   UNL     1       6.476  26.715  56.194  1.00  0.00     0.257 C 
HETATM    2  N   UNL     1       7.471  26.318  55.321  1.00  0.00    -0.323 N 
HETATM    3  O   UNL     1       5.559  26.026  56.627  1.00  0.00    -0.267 OA
HETATM    4  H   UNL     1       8.202  26.985  55.112  1.00  0.00     0.169 HD
ENDROOT
BRANCH   2   5
HETATM    5  C   UNL     1       7.585  25.064  54.685  1.00  0.00     0.036 A 
HETATM    6  C   UNL     1       8.057  23.914  55.332  1.00  0.00     0.046 A 
HETATM    7  C   UNL     1       8.079  22.686  54.636  1.00  0.00     0.030 A 
HETATM    8  C   UNL     1       7.676  22.661  53.307  1.00  0.00     0.063 A 
HETATM    9  C   UNL     1       8.400  21.331  54.950  1.00  0.00     0.156 A 
HETATM   10  N   UNL     1       7.834  21.364  52.905  1.00  0.00    -0.277 N 
HETATM   11  C   UNL     1       7.215  23.790  52.627  1.00  0.00     0.034 A 
HETATM   12  H   UNL     1       7.653  20.980  51.984  1.00  0.00     0.189 HD
HETATM   13  N   UNL     1       8.251  20.529  53.870  1.00  0.00    -0.168 NA
HETATM   14  C   UNL     1       7.155  24.986  53.354  1.00  0.00     0.032 A 
BRANCH   9  15
HETATM   15  C   UNL     1       8.807  20.784  56.252  1.00  0.00     0.270 C 
HETATM   16  N   UNL     1       9.838  19.887  56.184  1.00  0.00    -0.365 N 
HETATM   17  H   UNL     1      10.210  19.647  55.272  1.00  0.00     0.159 HD
HETATM   18  H   UNL     1      10.146  19.417  57.020  1.00  0.00     0.159 HD
HETATM   19  O   UNL     1       8.279  21.061  57.324  1.00  0.00    -0.266 OA
ENDBRANCH   9  15
ENDBRANCH   2   5
BRANCH   1  20
HETATM   20  C   UNL     1       6.520  28.146  56.598  1.00  0.00     0.046 A 
HETATM   21  C   UNL     1       5.742  29.168  56.000  1.00  0.00     0.009 A 
HETATM   22  C   UNL     1       5.827  30.441  56.607  1.00  0.00     0.071 A 
HETATM   23  C   UNL     1       4.920  29.017  54.851  1.00  0.00     0.018 A 
HETATM   24  N   UNL     1       6.634  30.705  57.646  1.00  0.00    -0.253 NA
HETATM   25  C   UNL     1       5.054  31.479  56.115  1.00  0.00     0.074 A 
HETATM   26  C   UNL     1       7.423  29.727  58.142  1.00  0.00     0.032 A 
HETATM   27  C   UNL     1       8.353  30.088  59.261  1.00  0.00     0.070 C 
HETATM   28  C   UNL     1       7.387  28.436  57.656  1.00  0.00     0.044 A 
HETATM   29  C   UNL     1       4.221  31.299  55.020  1.00  0.00     0.118 A 
HETATM   30  F   UNL     1       3.483  32.322  54.573  1.00  0.00    -0.206 F 
HETATM   31  C   UNL     1       4.155  30.078  54.372  1.00  0.00     0.043 A 
ENDBRANCH   1  20
TORSDOF 3
ENDMDL
MODEL 10
REMARK VINA RESULT:      -9.5     14.128     17.903
REMARK  3 active torsions:
REMARK  status: ('A' for Active; 'I' for Inactive)
REMARK    1  A    between atoms: C_6  and  C_7 
REMARK       I    between atoms: C_7  and  N_8 
REMARK    2  A    between atoms: N_8  and  C_9 
REMARK    3  A    between atoms: C_16  and  C_17 
REMARK       I    between atoms: C_17  and  N_18 
ROOT
HETATM    1  C   UNL     1       6.178  34.208  68.160  1.00  0.00     0.257 C 
HETATM    2  N   UNL     1       7.003  34.109  67.056  1.00  0.00    -0.323 N 
HETATM    3  O   UNL     1       4.964  34.042  68.188  1.00  0.00    -0.267 OA
HETATM    4  H   UNL     1       7.999  34.204  67.207  1.00  0.00     0.169 HD
ENDROOT
BRANCH   2   5
HETATM    5  C   UNL     1       6.605  33.881  65.722  1.00  0.00     0.036 A 
HETATM    6  C   UNL     1       7.404  33.210  64.786  1.00  0.00     0.046 A 
HETATM    7  C   UNL     1       6.900  32.970  63.489  1.00  0.00     0.030 A 
HETATM    8  C   UNL     1       5.640  33.453  63.159  1.00  0.00     0.063 A 
HETATM    9  C   UNL     1       7.349  32.283  62.321  1.00  0.00     0.156 A 
HETATM   10  N   UNL     1       5.446  33.097  61.854  1.00  0.00    -0.277 N 
HETATM   11  C   UNL     1       4.825  34.138  64.062  1.00  0.00     0.034 A 
HETATM   12  H   UNL     1       4.639  33.300  61.276  1.00  0.00     0.189 HD
HETATM   13  N   UNL     1       6.445  32.377  61.319  1.00  0.00    -0.168 NA
HETATM   14  C   UNL     1       5.326  34.319  65.357  1.00  0.00     0.032 A 
BRANCH   9  15
HETATM   15  C   UNL     1       8.593  31.518  62.153  1.00  0.00     0.270 C 
HETATM   16  N   UNL     1       8.521  30.228  62.606  1.00  0.00    -0.365 N 
HETATM   17  H   UNL     1       7.660  29.916  63.040  1.00  0.00     0.159 HD
HETATM   18  H   UNL     1       9.342  29.646  62.585  1.00  0.00     0.159 HD
HETATM   19  O   UNL     1       9.631  31.965  61.677  1.00  0.00    -0.266 OA
ENDBRANCH   9  15
ENDBRANCH   2   5
BRANCH   1  20
HETATM   20  C   UNL     1       6.854  34.603  69.425  1.00  0.00     0.046 A 
HETATM   21  C   UNL     1       7.168  33.707  70.476  1.00  0.00     0.009 A 
HETATM   22  C   UNL     1       7.925  34.246  71.539  1.00  0.00     0.071 A 
HETATM   23  C   UNL     1       6.768  32.346  70.549  1.00  0.00     0.018 A 
HETATM   24  N   UNL     1       8.284  35.538  71.602  1.00  0.00    -0.253 NA
HETATM   25  C   UNL     1       8.320  33.420  72.578  1.00  0.00     0.074 A 
HETATM   26  C   UNL     1       7.900  36.384  70.622  1.00  0.00     0.032 A 
HETATM   27  C   UNL     1       8.270  37.829  70.770  1.00  0.00     0.070 C 
HETATM   28  C   UNL     1       7.197  35.956  69.515  1.00  0.00     0.044 A 
HETATM   29  C   UNL     1       7.959  32.080  72.607  1.00  0.00     0.118 A 
HETATM   30  F   UNL     1       8.362  31.308  73.624  1.00  0.00    -0.206 F 
HETATM   31  C   UNL     1       7.174  31.534  71.607  1.00  0.00     0.043 A 
ENDBRANCH   1  20
TORSDOF 3
ENDMDL
