MODEL 1
REMARK VINA RESULT:      -9.1      0.000      0.000
REMARK  5 active torsions:
REMARK  status: ('A' for Active; 'I' for Inactive)
REMARK    1  A    between atoms: C_9  and  C_10 
REMARK    2  A    between atoms: C_10  and  N_11 
REMARK    3  A    between atoms: N_11  and  C_14 
REMARK    4  A    between atoms: C_14  and  C_15 
REMARK    5  A    between atoms: C_16  and  C_17 
ROOT
HETATM    1  C   UNL     1       8.128  28.839  55.885  1.00  0.00    -0.036 A 
HETATM    2  C   UNL     1       7.132  28.899  56.869  1.00  0.00     0.013 A 
HETATM    3  C   UNL     1       7.411  29.447  58.125  1.00  0.00     0.023 A 
HETATM    4  C   UNL     1       8.690  29.938  58.410  1.00  0.00     0.044 A 
HETATM    5  C   UNL     1       8.975  30.507  59.695  1.00  0.00     0.099 C 
HETATM    6  N   UNL     1       9.205  30.973  60.732  1.00  0.00    -0.191 NA
HETATM    7  C   UNL     1       9.687  29.871  57.433  1.00  0.00     0.023 A 
HETATM    8  C   UNL     1       9.409  29.319  56.179  1.00  0.00     0.013 A 
ENDROOT
BRANCH   1   9
HETATM    9  C   UNL     1       7.859  28.264  54.565  1.00  0.00     0.009 C 
HETATM   10  C   UNL     1       6.627  27.867  54.204  1.00  0.00     0.001 C 
BRANCH  10  11
HETATM   11  C   UNL     1       6.293  27.271  52.880  1.00  0.00     0.259 C 
BRANCH  11  12
HETATM   12  N   UNL     1       7.143  26.077  52.621  1.00  0.00    -0.071 N 
HETATM   13  H   UNL     1       8.107  26.309  52.899  1.00  0.00     0.277 HD
HETATM   14  H   UNL     1       7.181  25.929  51.605  1.00  0.00     0.277 HD
BRANCH  12  15
HETATM   15  C   UNL     1       6.690  24.827  53.319  1.00  0.00     0.242 C 
BRANCH  15  16
HETATM   16  C   UNL     1       7.761  24.284  54.289  1.00  0.00     0.055 C 
HETATM   17  C   UNL     1       8.003  22.786  54.213  1.00  0.00    -0.025 A 
HETATM   18  C   UNL     1       7.896  22.056  53.018  1.00  0.00     0.010 A 
HETATM   19  C   UNL     1       8.485  22.121  55.354  1.00  0.00     0.041 A 
HETATM   20  C   UNL     1       8.199  20.692  52.986  1.00  0.00     0.001 A 
HETATM   21  C   UNL     1       8.642  20.045  54.135  1.00  0.00     0.002 A 
HETATM   22  C   UNL     1       8.801  20.762  55.318  1.00  0.00     0.030 A 
HETATM   23  N   UNL     1       8.715  22.829  56.535  1.00  0.00    -0.327 N 
HETATM   24  C   UNL     1       8.359  24.128  56.744  1.00  0.00     0.222 C 
HETATM   25  H   UNL     1       9.224  22.389  57.296  1.00  0.00     0.169 HD
HETATM   26  O   UNL     1       8.663  24.728  57.769  1.00  0.00    -0.273 OA
HETATM   27  C   UNL     1       7.433  24.726  55.719  1.00  0.00     0.114 C 
ENDBRANCH  15  16
ENDBRANCH  12  15
ENDBRANCH  11  12
ENDBRANCH  10  11
ENDBRANCH   1   9
TORSDOF 5
ENDMDL
MODEL 2
REMARK VINA RESULT:      -9.0      1.592      2.991
REMARK  5 active torsions:
REMARK  status: ('A' for Active; 'I' for Inactive)
REMARK    1  A    between atoms: C_9  and  C_10 
REMARK    2  A    between atoms: C_10  and  N_11 
REMARK    3  A    between atoms: N_11  and  C_14 
REMARK    4  A    between atoms: C_14  and  C_15 
REMARK    5  A    between atoms: C_16  and  C_17 
ROOT
HETATM    1  C   UNL     1       7.804  28.722  55.562  1.00  0.00    -0.036 A 
HETATM    2  C   UNL     1       9.088  28.800  56.117  1.00  0.00     0.013 A 
HETATM    3  C   UNL     1       9.272  29.317  57.403  1.00  0.00     0.023 A 
HETATM    4  C   UNL     1       8.174  29.764  58.145  1.00  0.00     0.044 A 
HETATM    5  C   UNL     1       8.362  30.287  59.467  1.00  0.00     0.099 C 
HETATM    6  N   UNL     1       8.511  30.705  60.539  1.00  0.00    -0.191 NA
HETATM    7  C   UNL     1       6.893  29.697  57.590  1.00  0.00     0.023 A 
HETATM    8  C   UNL     1       6.709  29.184  56.302  1.00  0.00     0.013 A 
ENDROOT
BRANCH   1   9
HETATM    9  C   UNL     1       7.588  28.190  54.213  1.00  0.00     0.009 C 
HETATM   10  C   UNL     1       6.378  27.779  53.800  1.00  0.00     0.001 C 
BRANCH  10  11
HETATM   11  C   UNL     1       6.098  27.225  52.446  1.00  0.00     0.259 C 
BRANCH  11  12
HETATM   12  N   UNL     1       6.481  25.788  52.386  1.00  0.00    -0.071 N 
HETATM   13  H   UNL     1       7.483  25.718  52.618  1.00  0.00     0.277 HD
HETATM   14  H   UNL     1       6.405  25.480  51.409  1.00  0.00     0.277 HD
BRANCH  12  15
HETATM   15  C   UNL     1       5.678  24.892  53.285  1.00  0.00     0.242 C 
BRANCH  15  16
HETATM   16  C   UNL     1       6.571  23.896  54.058  1.00  0.00     0.055 C 
HETATM   17  C   UNL     1       7.153  24.424  55.358  1.00  0.00    -0.025 A 
HETATM   18  C   UNL     1       6.475  25.337  56.182  1.00  0.00     0.010 A 
HETATM   19  C   UNL     1       8.359  23.877  55.828  1.00  0.00     0.041 A 
HETATM   20  C   UNL     1       7.022  25.737  57.404  1.00  0.00     0.001 A 
HETATM   21  C   UNL     1       8.234  25.209  57.836  1.00  0.00     0.002 A 
HETATM   22  C   UNL     1       8.898  24.266  57.056  1.00  0.00     0.030 A 
HETATM   23  N   UNL     1       9.012  22.883  55.098  1.00  0.00    -0.327 N 
HETATM   24  C   UNL     1       8.659  22.481  53.844  1.00  0.00     0.222 C 
HETATM   25  H   UNL     1       9.781  22.369  55.519  1.00  0.00     0.169 HD
HETATM   26  O   UNL     1       9.213  21.543  53.282  1.00  0.00    -0.273 OA
HETATM   27  C   UNL     1       7.666  23.360  53.131  1.00  0.00     0.114 C 
ENDBRANCH  15  16
ENDBRANCH  12  15
ENDBRANCH  11  12
ENDBRANCH  10  11
ENDBRANCH   1   9
TORSDOF 5
ENDMDL
MODEL 3
REMARK VINA RESULT:      -9.0      4.286      7.662
REMARK  5 active torsions:
REMARK  status: ('A' for Active; 'I' for Inactive)
REMARK    1  A    between atoms: C_9  and  C_10 
REMARK    2  A    between atoms: C_10  and  N_11 
REMARK    3  A    between atoms: N_11  and  C_14 
REMARK    4  A    between atoms: C_14  and  C_15 
REMARK    5  A    between atoms: C_16  and  C_17 
ROOT
HETATM    1  C   UNL     1       3.845  26.812  48.890  1.00  0.00    -0.036 A 
HETATM    2  C   UNL     1       3.098  27.997  48.930  1.00  0.00     0.013 A 
HETATM    3  C   UNL     1       2.002  28.171  48.079  1.00  0.00     0.023 A 
HETATM    4  C   UNL     1       1.645  27.162  47.177  1.00  0.00     0.044 A 
HETATM    5  C   UNL     1       0.517  27.336  46.309  1.00  0.00     0.099 C 
HETATM    6  N   UNL     1      -0.399  27.474  45.611  1.00  0.00    -0.191 NA
HETATM    7  C   UNL     1       2.395  25.983  47.128  1.00  0.00     0.023 A 
HETATM    8  C   UNL     1       3.494  25.812  47.977  1.00  0.00     0.013 A 
ENDROOT
BRANCH   1   9
HETATM    9  C   UNL     1       5.001  26.612  49.769  1.00  0.00     0.009 C 
HETATM   10  C   UNL     1       4.969  26.952  51.068  1.00  0.00     0.001 C 
BRANCH  10  11
HETATM   11  C   UNL     1       6.111  26.778  52.008  1.00  0.00     0.259 C 
BRANCH  11  12
HETATM   12  N   UNL     1       6.798  25.482  51.754  1.00  0.00    -0.071 N 
HETATM   13  H   UNL     1       7.806  25.622  51.911  1.00  0.00     0.277 HD
HETATM   14  H   UNL     1       6.705  25.265  50.754  1.00  0.00     0.277 HD
BRANCH  12  15
HETATM   15  C   UNL     1       6.299  24.339  52.591  1.00  0.00     0.242 C 
BRANCH  15  16
HETATM   16  C   UNL     1       7.171  24.114  53.845  1.00  0.00     0.055 C 
HETATM   17  C   UNL     1       7.625  22.681  54.068  1.00  0.00    -0.025 A 
HETATM   18  C   UNL     1       7.908  21.798  53.013  1.00  0.00     0.010 A 
HETATM   19  C   UNL     1       7.907  22.259  55.378  1.00  0.00     0.041 A 
HETATM   20  C   UNL     1       8.392  20.512  53.270  1.00  0.00     0.001 A 
HETATM   21  C   UNL     1       8.632  20.102  54.578  1.00  0.00     0.002 A 
HETATM   22  C   UNL     1       8.405  20.980  55.634  1.00  0.00     0.030 A 
HETATM   23  N   UNL     1       7.750  23.140  56.450  1.00  0.00    -0.327 N 
HETATM   24  C   UNL     1       7.180  24.376  56.363  1.00  0.00     0.222 C 
HETATM   25  H   UNL     1       8.118  22.894  57.364  1.00  0.00     0.169 HD
HETATM   26  O   UNL     1       7.147  25.144  57.317  1.00  0.00    -0.273 OA
HETATM   27  C   UNL     1       6.454  24.672  55.078  1.00  0.00     0.114 C 
ENDBRANCH  15  16
ENDBRANCH  12  15
ENDBRANCH  11  12
ENDBRANCH  10  11
ENDBRANCH   1   9
TORSDOF 5
ENDMDL
MODEL 4
REMARK VINA RESULT:      -8.7      2.264      8.433
REMARK  5 active torsions:
REMARK  status: ('A' for Active; 'I' for Inactive)
REMARK    1  A    between atoms: C_9  and  C_10 
REMARK    2  A    between atoms: C_10  and  N_11 
REMARK    3  A    between atoms: N_11  and  C_14 
REMARK    4  A    between atoms: C_14  and  C_15 
REMARK    5  A    between atoms: C_16  and  C_17 
ROOT
HETATM    1  C   UNL     1       7.204  24.891  54.550  1.00  0.00    -0.036 A 
HETATM    2  C   UNL     1       7.460  23.893  55.499  1.00  0.00     0.013 A 
HETATM    3  C   UNL     1       7.814  22.603  55.091  1.00  0.00     0.023 A 
HETATM    4  C   UNL     1       7.912  22.299  53.729  1.00  0.00     0.044 A 
HETATM    5  C   UNL     1       8.282  20.978  53.308  1.00  0.00     0.099 C 
HETATM    6  N   UNL     1       8.587  19.912  52.967  1.00  0.00    -0.191 NA
HETATM    7  C   UNL     1       7.647  23.290  52.779  1.00  0.00     0.023 A 
HETATM    8  C   UNL     1       7.289  24.579  53.188  1.00  0.00     0.013 A 
ENDROOT
BRANCH   1   9
HETATM    9  C   UNL     1       6.826  26.248  54.956  1.00  0.00     0.009 C 
HETATM   10  C   UNL     1       5.544  26.648  54.976  1.00  0.00     0.001 C 
BRANCH  10  11
HETATM   11  C   UNL     1       5.098  28.013  55.374  1.00  0.00     0.259 C 
BRANCH  11  12
HETATM   12  N   UNL     1       5.801  28.447  56.612  1.00  0.00    -0.071 N 
HETATM   13  H   UNL     1       6.422  27.680  56.908  1.00  0.00     0.277 HD
HETATM   14  H   UNL     1       5.101  28.535  57.359  1.00  0.00     0.277 HD
BRANCH  12  15
HETATM   15  C   UNL     1       6.584  29.720  56.470  1.00  0.00     0.242 C 
BRANCH  15  16
HETATM   16  C   UNL     1       7.886  29.696  57.300  1.00  0.00     0.055 C 
HETATM   17  C   UNL     1       7.983  30.760  58.381  1.00  0.00    -0.025 A 
HETATM   18  C   UNL     1       6.866  31.232  59.089  1.00  0.00     0.010 A 
HETATM   19  C   UNL     1       9.256  31.194  58.787  1.00  0.00     0.041 A 
HETATM   20  C   UNL     1       7.017  32.158  60.125  1.00  0.00     0.001 A 
HETATM   21  C   UNL     1       8.284  32.602  60.488  1.00  0.00     0.002 A 
HETATM   22  C   UNL     1       9.408  32.109  59.830  1.00  0.00     0.030 A 
HETATM   23  N   UNL     1      10.403  30.668  58.189  1.00  0.00    -0.327 N 
HETATM   24  C   UNL     1      10.404  29.851  57.097  1.00  0.00     0.222 C 
HETATM   25  H   UNL     1      11.314  30.849  58.598  1.00  0.00     0.169 HD
HETATM   26  O   UNL     1      11.434  29.347  56.665  1.00  0.00    -0.273 OA
HETATM   27  C   UNL     1       9.095  29.740  56.361  1.00  0.00     0.114 C 
ENDBRANCH  15  16
ENDBRANCH  12  15
ENDBRANCH  11  12
ENDBRANCH  10  11
ENDBRANCH   1   9
TORSDOF 5
ENDMDL
MODEL 5
REMARK VINA RESULT:      -8.6      2.914      9.089
REMARK  5 active torsions:
REMARK  status: ('A' for Active; 'I' for Inactive)
REMARK    1  A    between atoms: C_9  and  C_10 
REMARK    2  A    between atoms: C_10  and  N_11 
REMARK    3  A    between atoms: N_11  and  C_14 
REMARK    4  A    between atoms: C_14  and  C_15 
REMARK    5  A    between atoms: C_16  and  C_17 
ROOT
HETATM    1  C   UNL     1       7.212  24.864  54.787  1.00  0.00    -0.036 A 
HETATM    2  C   UNL     1       7.214  23.738  55.621  1.00  0.00     0.013 A 
HETATM    3  C   UNL     1       7.548  22.480  55.111  1.00  0.00     0.023 A 
HETATM    4  C   UNL     1       7.880  22.336  53.759  1.00  0.00     0.044 A 
HETATM    5  C   UNL     1       8.230  21.047  53.236  1.00  0.00     0.099 C 
HETATM    6  N   UNL     1       8.520  20.006  52.813  1.00  0.00    -0.191 NA
HETATM    7  C   UNL     1       7.869  23.455  52.922  1.00  0.00     0.023 A 
HETATM    8  C   UNL     1       7.530  24.713  53.433  1.00  0.00     0.013 A 
ENDROOT
BRANCH   1   9
HETATM    9  C   UNL     1       6.859  26.190  55.300  1.00  0.00     0.009 C 
HETATM   10  C   UNL     1       7.624  27.268  55.062  1.00  0.00     0.001 C 
BRANCH  10  11
HETATM   11  C   UNL     1       7.322  28.639  55.560  1.00  0.00     0.259 C 
BRANCH  11  12
HETATM   12  N   UNL     1       6.768  28.577  56.940  1.00  0.00    -0.071 N 
HETATM   13  H   UNL     1       6.522  27.596  57.138  1.00  0.00     0.277 HD
HETATM   14  H   UNL     1       5.877  29.088  56.947  1.00  0.00     0.277 HD
BRANCH  12  15
HETATM   15  C   UNL     1       7.687  29.104  58.004  1.00  0.00     0.242 C 
BRANCH  15  16
HETATM   16  C   UNL     1       7.406  30.587  58.329  1.00  0.00     0.055 C 
HETATM   17  C   UNL     1       7.833  31.037  59.717  1.00  0.00    -0.025 A 
HETATM   18  C   UNL     1       8.957  30.514  60.376  1.00  0.00     0.010 A 
HETATM   19  C   UNL     1       7.159  32.117  60.313  1.00  0.00     0.041 A 
HETATM   20  C   UNL     1       9.350  31.013  61.621  1.00  0.00     0.001 A 
HETATM   21  C   UNL     1       8.649  32.059  62.210  1.00  0.00     0.002 A 
HETATM   22  C   UNL     1       7.561  32.624  61.550  1.00  0.00     0.030 A 
HETATM   23  N   UNL     1       6.106  32.744  59.645  1.00  0.00    -0.327 N 
HETATM   24  C   UNL     1       5.544  32.295  58.486  1.00  0.00     0.222 C 
HETATM   25  H   UNL     1       5.739  33.624  59.994  1.00  0.00     0.169 HD
HETATM   26  O   UNL     1       4.680  32.932  57.895  1.00  0.00    -0.273 OA
HETATM   27  C   UNL     1       5.929  30.901  58.069  1.00  0.00     0.114 C 
ENDBRANCH  15  16
ENDBRANCH  12  15
ENDBRANCH  11  12
ENDBRANCH  10  11
ENDBRANCH   1   9
TORSDOF 5
ENDMDL
MODEL 6
REMARK VINA RESULT:      -8.5      3.413      7.239
REMARK  5 active torsions:
REMARK  status: ('A' for Active; 'I' for Inactive)
REMARK    1  A    between atoms: C_9  and  C_10 
REMARK    2  A    between atoms: C_10  and  N_11 
REMARK    3  A    between atoms: N_11  and  C_14 
REMARK    4  A    between atoms: C_14  and  C_15 
REMARK    5  A    between atoms: C_16  and  C_17 
ROOT
HETATM    1  C   UNL     1       7.606  24.989  54.711  1.00  0.00    -0.036 A 
HETATM    2  C   UNL     1       7.993  24.785  53.380  1.00  0.00     0.013 A 
HETATM    3  C   UNL     1       8.207  23.491  52.896  1.00  0.00     0.023 A 
HETATM    4  C   UNL     1       8.039  22.388  53.740  1.00  0.00     0.044 A 
HETATM    5  C   UNL     1       8.250  21.059  53.242  1.00  0.00     0.099 C 
HETATM    6  N   UNL     1       8.415  19.984  52.839  1.00  0.00    -0.191 NA
HETATM    7  C   UNL     1       7.662  22.589  55.071  1.00  0.00     0.023 A 
HETATM    8  C   UNL     1       7.453  23.884  55.556  1.00  0.00     0.013 A 
ENDROOT
BRANCH   1   9
HETATM    9  C   UNL     1       7.383  26.337  55.240  1.00  0.00     0.009 C 
HETATM   10  C   UNL     1       6.539  26.566  56.260  1.00  0.00     0.001 C 
BRANCH  10  11
HETATM   11  C   UNL     1       6.266  27.912  56.837  1.00  0.00     0.259 C 
BRANCH  11  12
HETATM   12  N   UNL     1       5.617  28.788  55.823  1.00  0.00    -0.071 N 
HETATM   13  H   UNL     1       6.227  28.815  54.993  1.00  0.00     0.277 HD
HETATM   14  H   UNL     1       5.614  29.748  56.189  1.00  0.00     0.277 HD
BRANCH  12  15
HETATM   15  C   UNL     1       4.230  28.367  55.433  1.00  0.00     0.242 C 
BRANCH  15  16
HETATM   16  C   UNL     1       3.982  28.523  53.917  1.00  0.00     0.055 C 
HETATM   17  C   UNL     1       4.407  27.336  53.067  1.00  0.00    -0.025 A 
HETATM   18  C   UNL     1       4.337  26.009  53.522  1.00  0.00     0.010 A 
HETATM   19  C   UNL     1       4.755  27.559  51.725  1.00  0.00     0.041 A 
HETATM   20  C   UNL     1       4.671  24.948  52.676  1.00  0.00     0.001 A 
HETATM   21  C   UNL     1       5.047  25.192  51.360  1.00  0.00     0.002 A 
HETATM   22  C   UNL     1       5.075  26.497  50.877  1.00  0.00     0.030 A 
HETATM   23  N   UNL     1       4.729  28.851  51.196  1.00  0.00    -0.327 N 
HETATM   24  C   UNL     1       4.536  29.985  51.927  1.00  0.00     0.222 C 
HETATM   25  H   UNL     1       4.809  28.987  50.193  1.00  0.00     0.169 HD
HETATM   26  O   UNL     1       4.435  31.087  51.400  1.00  0.00    -0.273 OA
HETATM   27  C   UNL     1       4.621  29.823  53.421  1.00  0.00     0.114 C 
ENDBRANCH  15  16
ENDBRANCH  12  15
ENDBRANCH  11  12
ENDBRANCH  10  11
ENDBRANCH   1   9
TORSDOF 5
ENDMDL
MODEL 7
REMARK VINA RESULT:      -8.5      3.020      5.452
REMARK  5 active torsions:
REMARK  status: ('A' for Active; 'I' for Inactive)
REMARK    1  A    between atoms: C_9  and  C_10 
REMARK    2  A    between atoms: C_10  and  N_11 
REMARK    3  A    between atoms: N_11  and  C_14 
REMARK    4  A    between atoms: C_14  and  C_15 
REMARK    5  A    between atoms: C_16  and  C_17 
ROOT
HETATM    1  C   UNL     1       8.381  32.035  60.752  1.00  0.00    -0.036 A 
HETATM    2  C   UNL     1       8.823  32.020  62.081  1.00  0.00     0.013 A 
HETATM    3  C   UNL     1       7.933  32.283  63.126  1.00  0.00     0.023 A 
HETATM    4  C   UNL     1       6.590  32.567  62.851  1.00  0.00     0.044 A 
HETATM    5  C   UNL     1       5.674  32.830  63.923  1.00  0.00     0.099 C 
HETATM    6  N   UNL     1       4.930  33.036  64.789  1.00  0.00    -0.191 NA
HETATM    7  C   UNL     1       6.148  32.592  61.526  1.00  0.00     0.023 A 
HETATM    8  C   UNL     1       7.041  32.334  60.480  1.00  0.00     0.013 A 
ENDROOT
BRANCH   1   9
HETATM    9  C   UNL     1       9.299  31.768  59.641  1.00  0.00     0.009 C 
HETATM   10  C   UNL     1       9.224  30.640  58.917  1.00  0.00     0.001 C 
BRANCH  10  11
HETATM   11  C   UNL     1      10.131  30.309  57.782  1.00  0.00     0.259 C 
BRANCH  11  12
HETATM   12  N   UNL     1       9.630  29.114  57.051  1.00  0.00    -0.071 N 
HETATM   13  H   UNL     1      10.379  28.406  57.052  1.00  0.00     0.277 HD
HETATM   14  H   UNL     1       9.504  29.375  56.065  1.00  0.00     0.277 HD
BRANCH  12  15
HETATM   15  C   UNL     1       8.365  28.528  57.608  1.00  0.00     0.242 C 
BRANCH  15  16
HETATM   16  C   UNL     1       7.551  27.777  56.532  1.00  0.00     0.055 C 
HETATM   17  C   UNL     1       7.890  26.303  56.377  1.00  0.00    -0.025 A 
HETATM   18  C   UNL     1       8.291  25.496  57.454  1.00  0.00     0.010 A 
HETATM   19  C   UNL     1       7.664  25.686  55.135  1.00  0.00     0.041 A 
HETATM   20  C   UNL     1       8.521  24.129  57.273  1.00  0.00     0.001 A 
HETATM   21  C   UNL     1       8.325  23.544  56.027  1.00  0.00     0.002 A 
HETATM   22  C   UNL     1       7.880  24.319  54.959  1.00  0.00     0.030 A 
HETATM   23  N   UNL     1       7.157  26.425  54.065  1.00  0.00    -0.327 N 
HETATM   24  C   UNL     1       6.997  27.779  54.062  1.00  0.00     0.222 C 
HETATM   25  H   UNL     1       6.832  25.947  53.230  1.00  0.00     0.169 HD
HETATM   26  O   UNL     1       6.465  28.368  53.128  1.00  0.00    -0.273 OA
HETATM   27  C   UNL     1       7.656  28.518  55.196  1.00  0.00     0.114 C 
ENDBRANCH  15  16
ENDBRANCH  12  15
ENDBRANCH  11  12
ENDBRANCH  10  11
ENDBRANCH   1   9
TORSDOF 5
ENDMDL
MODEL 8
REMARK VINA RESULT:      -8.3      2.771      7.852
REMARK  5 active torsions:
REMARK  status: ('A' for Active; 'I' for Inactive)
REMARK    1  A    between atoms: C_9  and  C_10 
REMARK    2  A    between atoms: C_10  and  N_11 
REMARK    3  A    between atoms: N_11  and  C_14 
REMARK    4  A    between atoms: C_14  and  C_15 
REMARK    5  A    between atoms: C_16  and  C_17 
ROOT
HETATM    1  C   UNL     1       7.205  24.751  54.094  1.00  0.00    -0.036 A 
HETATM    2  C   UNL     1       7.183  23.976  55.260  1.00  0.00     0.013 A 
HETATM    3  C   UNL     1       7.609  22.644  55.232  1.00  0.00     0.023 A 
HETATM    4  C   UNL     1       8.057  22.074  54.036  1.00  0.00     0.044 A 
HETATM    5  C   UNL     1       8.501  20.710  54.007  1.00  0.00     0.099 C 
HETATM    6  N   UNL     1       8.865  19.609  53.984  1.00  0.00    -0.191 NA
HETATM    7  C   UNL     1       8.071  22.843  52.868  1.00  0.00     0.023 A 
HETATM    8  C   UNL     1       7.641  24.174  52.896  1.00  0.00     0.013 A 
ENDROOT
BRANCH   1   9
HETATM    9  C   UNL     1       6.759  26.147  54.099  1.00  0.00     0.009 C 
HETATM   10  C   UNL     1       5.466  26.477  53.943  1.00  0.00     0.001 C 
BRANCH  10  11
HETATM   11  C   UNL     1       4.952  27.875  53.934  1.00  0.00     0.259 C 
BRANCH  11  12
HETATM   12  N   UNL     1       4.019  28.090  55.074  1.00  0.00    -0.071 N 
HETATM   13  H   UNL     1       3.318  27.335  55.055  1.00  0.00     0.277 HD
HETATM   14  H   UNL     1       3.493  28.955  54.894  1.00  0.00     0.277 HD
BRANCH  12  15
HETATM   15  C   UNL     1       4.683  28.147  56.419  1.00  0.00     0.242 C 
BRANCH  15  16
HETATM   16  C   UNL     1       5.254  29.548  56.725  1.00  0.00     0.055 C 
HETATM   17  C   UNL     1       6.696  29.569  57.205  1.00  0.00    -0.025 A 
HETATM   18  C   UNL     1       7.659  28.646  56.765  1.00  0.00     0.010 A 
HETATM   19  C   UNL     1       7.122  30.633  58.017  1.00  0.00     0.041 A 
HETATM   20  C   UNL     1       8.989  28.751  57.180  1.00  0.00     0.001 A 
HETATM   21  C   UNL     1       9.383  29.793  58.013  1.00  0.00     0.002 A 
HETATM   22  C   UNL     1       8.453  30.746  58.420  1.00  0.00     0.030 A 
HETATM   23  N   UNL     1       6.225  31.637  58.388  1.00  0.00    -0.327 N 
HETATM   24  C   UNL     1       4.882  31.604  58.155  1.00  0.00     0.222 C 
HETATM   25  H   UNL     1       6.571  32.488  58.822  1.00  0.00     0.169 HD
HETATM   26  O   UNL     1       4.153  32.553  58.423  1.00  0.00    -0.273 OA
HETATM   27  C   UNL     1       4.329  30.279  57.703  1.00  0.00     0.114 C 
ENDBRANCH  15  16
ENDBRANCH  12  15
ENDBRANCH  11  12
ENDBRANCH  10  11
ENDBRANCH   1   9
TORSDOF 5
ENDMDL
MODEL 9
REMARK VINA RESULT:      -8.2      8.659     12.811
REMARK  5 active torsions:
REMARK  status: ('A' for Active; 'I' for Inactive)
REMARK    1  A    between atoms: C_9  and  C_10 
REMARK    2  A    between atoms: C_10  and  N_11 
REMARK    3  A    between atoms: N_11  and  C_14 
REMARK    4  A    between atoms: C_14  and  C_15 
REMARK    5  A    between atoms: C_16  and  C_17 
ROOT
HETATM    1  C   UNL     1       7.447  32.479  62.494  1.00  0.00    -0.036 A 
HETATM    2  C   UNL     1       8.754  31.994  62.634  1.00  0.00     0.013 A 
HETATM    3  C   UNL     1       9.557  31.792  61.508  1.00  0.00     0.023 A 
HETATM    4  C   UNL     1       9.060  32.070  60.230  1.00  0.00     0.044 A 
HETATM    5  C   UNL     1       9.886  31.871  59.075  1.00  0.00     0.099 C 
HETATM    6  N   UNL     1      10.555  31.715  58.140  1.00  0.00    -0.191 NA
HETATM    7  C   UNL     1       7.753  32.546  60.087  1.00  0.00     0.023 A 
HETATM    8  C   UNL     1       6.948  32.743  61.214  1.00  0.00     0.013 A 
ENDROOT
BRANCH   1   9
HETATM    9  C   UNL     1       6.586  32.692  63.661  1.00  0.00     0.009 C 
HETATM   10  C   UNL     1       6.920  33.550  64.640  1.00  0.00     0.001 C 
BRANCH  10  11
HETATM   11  C   UNL     1       6.090  33.805  65.851  1.00  0.00     0.259 C 
BRANCH  11  12
HETATM   12  N   UNL     1       4.647  33.621  65.537  1.00  0.00    -0.071 N 
HETATM   13  H   UNL     1       4.303  32.822  66.088  1.00  0.00     0.277 HD
HETATM   14  H   UNL     1       4.571  33.327  64.555  1.00  0.00     0.277 HD
BRANCH  12  15
HETATM   15  C   UNL     1       3.796  34.832  65.792  1.00  0.00     0.242 C 
BRANCH  15  16
HETATM   16  C   UNL     1       3.812  35.813  64.600  1.00  0.00     0.055 C 
HETATM   17  C   UNL     1       3.803  35.163  63.226  1.00  0.00    -0.025 A 
HETATM   18  C   UNL     1       3.139  33.955  62.959  1.00  0.00     0.010 A 
HETATM   19  C   UNL     1       4.366  35.862  62.145  1.00  0.00     0.041 A 
HETATM   20  C   UNL     1       3.099  33.435  61.662  1.00  0.00     0.001 A 
HETATM   21  C   UNL     1       3.693  34.126  60.611  1.00  0.00     0.002 A 
HETATM   22  C   UNL     1       4.314  35.349  60.848  1.00  0.00     0.030 A 
HETATM   23  N   UNL     1       4.938  37.120  62.343  1.00  0.00    -0.327 N 
HETATM   24  C   UNL     1       5.149  37.695  63.561  1.00  0.00     0.222 C 
HETATM   25  H   UNL     1       5.183  37.695  61.542  1.00  0.00     0.169 HD
HETATM   26  O   UNL     1       5.574  38.839  63.674  1.00  0.00    -0.273 OA
HETATM   27  C   UNL     1       4.985  36.787  64.750  1.00  0.00     0.114 C 
ENDBRANCH  15  16
ENDBRANCH  12  15
ENDBRANCH  11  12
ENDBRANCH  10  11
ENDBRANCH   1   9
TORSDOF 5
ENDMDL
MODEL 10
REMARK VINA RESULT:      -8.2      2.605      8.416
REMARK  5 active torsions:
REMARK  status: ('A' for Active; 'I' for Inactive)
REMARK    1  A    between atoms: C_9  and  C_10 
REMARK    2  A    between atoms: C_10  and  N_11 
REMARK    3  A    between atoms: N_11  and  C_14 
REMARK    4  A    between atoms: C_14  and  C_15 
REMARK    5  A    between atoms: C_16  and  C_17 
ROOT
HETATM    1  C   UNL     1       7.294  24.725  53.914  1.00  0.00    -0.036 A 
HETATM    2  C   UNL     1       7.693  24.047  52.755  1.00  0.00     0.013 A 
HETATM    3  C   UNL     1       8.093  22.710  52.821  1.00  0.00     0.023 A 
HETATM    4  C   UNL     1       8.102  22.038  54.048  1.00  0.00     0.044 A 
HETATM    5  C   UNL     1       8.505  20.663  54.116  1.00  0.00     0.099 C 
HETATM    6  N   UNL     1       8.826  19.549  54.171  1.00  0.00    -0.191 NA
HETATM    7  C   UNL     1       7.713  22.714  55.208  1.00  0.00     0.023 A 
HETATM    8  C   UNL     1       7.317  24.054  55.142  1.00  0.00     0.013 A 
ENDROOT
BRANCH   1   9
HETATM    9  C   UNL     1       6.876  26.130  53.869  1.00  0.00     0.009 C 
HETATM   10  C   UNL     1       7.524  27.083  54.557  1.00  0.00     0.001 C 
BRANCH  10  11
HETATM   11  C   UNL     1       7.145  28.524  54.556  1.00  0.00     0.259 C 
BRANCH  11  12
HETATM   12  N   UNL     1       7.990  29.282  55.517  1.00  0.00    -0.071 N 
HETATM   13  H   UNL     1       7.555  30.206  55.660  1.00  0.00     0.277 HD
HETATM   14  H   UNL     1       8.892  29.474  55.064  1.00  0.00     0.277 HD
BRANCH  12  15
HETATM   15  C   UNL     1       8.198  28.598  56.838  1.00  0.00     0.242 C 
BRANCH  15  16
HETATM   16  C   UNL     1       8.037  29.570  58.026  1.00  0.00     0.055 C 
HETATM   17  C   UNL     1       6.710  30.310  58.081  1.00  0.00    -0.025 A 
HETATM   18  C   UNL     1       5.503  29.742  57.642  1.00  0.00     0.010 A 
HETATM   19  C   UNL     1       6.661  31.560  58.721  1.00  0.00     0.041 A 
HETATM   20  C   UNL     1       4.297  30.436  57.781  1.00  0.00     0.001 A 
HETATM   21  C   UNL     1       4.275  31.688  58.386  1.00  0.00     0.002 A 
HETATM   22  C   UNL     1       5.454  32.246  58.872  1.00  0.00     0.030 A 
HETATM   23  N   UNL     1       7.817  32.113  59.274  1.00  0.00    -0.327 N 
HETATM   24  C   UNL     1       9.073  31.608  59.114  1.00  0.00     0.222 C 
HETATM   25  H   UNL     1       7.748  32.923  59.883  1.00  0.00     0.169 HD
HETATM   26  O   UNL     1      10.043  32.083  59.694  1.00  0.00    -0.273 OA
HETATM   27  C   UNL     1       9.221  30.542  58.061  1.00  0.00     0.114 C 
ENDBRANCH  15  16
ENDBRANCH  12  15
ENDBRANCH  11  12
ENDBRANCH  10  11
ENDBRANCH   1   9
TORSDOF 5
ENDMDL
