MODEL 1
REMARK VINA RESULT:      -9.0      0.000      0.000
REMARK  4 active torsions:
REMARK  status: ('A' for Active; 'I' for Inactive)
REMARK    1  A    between atoms: C_9  and  C_10 
REMARK    2  A    between atoms: C_18  and  C_19 
REMARK       I    between atoms: C_19  and  N_20 
REMARK    3  A    between atoms: N_20  and  C_21 
REMARK    4  A    between atoms: C_24  and  O_25 
ROOT
HETATM    1  C   UNL     1       3.764  30.112  55.659  1.00  0.00     0.070 C 
HETATM    2  C   UNL     1       5.142  29.499  55.704  1.00  0.00     0.037 C 
HETATM    3  N   UNL     1       5.944  29.910  56.766  1.00  0.00    -0.192 N 
HETATM    4  C   UNL     1       7.276  29.705  56.796  1.00  0.00     0.725 A 
HETATM    5  N   UNL     1       7.852  28.898  55.854  1.00  0.00    -0.084 N 
HETATM    6  N   UNL     1       9.194  28.865  55.987  1.00  0.00    -0.149 NA
HETATM    7  C   UNL     1       9.354  29.656  57.055  1.00  0.00     0.275 A 
HETATM    8  N   UNL     1       8.203  30.183  57.585  1.00  0.00    -0.054 NA
HETATM    9  C   UNL     1       7.100  28.183  54.816  1.00  0.00     0.202 C 
HETATM   10  C   UNL     1       5.652  28.665  54.762  1.00  0.00     0.062 C 
HETATM   11  H   UNL     1       5.563  30.613  57.395  1.00  0.00     0.184 HD
ENDROOT
BRANCH  10  12
HETATM   12  C   UNL     1       4.938  28.256  53.522  1.00  0.00     0.256 C 
HETATM   13  N   UNL     1       5.678  28.400  52.370  1.00  0.00    -0.323 N 
HETATM   14  H   UNL     1       6.601  28.803  52.459  1.00  0.00     0.169 HD
HETATM   15  O   UNL     1       3.772  27.892  53.619  1.00  0.00    -0.267 OA
BRANCH  13  16
HETATM   16  C   UNL     1       5.293  28.026  51.064  1.00  0.00     0.035 A 
HETATM   17  C   UNL     1       4.957  26.724  50.692  1.00  0.00     0.032 A 
HETATM   18  C   UNL     1       4.601  26.434  49.370  1.00  0.00     0.039 A 
HETATM   19  C   UNL     1       4.572  27.434  48.399  1.00  0.00     0.068 A 
HETATM   20  C   UNL     1       4.917  28.734  48.759  1.00  0.00     0.039 A 
HETATM   21  C   UNL     1       5.272  29.027  50.085  1.00  0.00     0.032 A 
BRANCH  19  22
HETATM   22  O   UNL     1       4.207  27.012  47.152  1.00  0.00    -0.356 OA
HETATM   23  C   UNL     1       3.015  26.243  47.058  1.00  0.00     0.210 C 
ENDBRANCH  19  22
ENDBRANCH  13  16
ENDBRANCH  10  12
BRANCH   9  24
HETATM   24  C   UNL     1       7.188  26.672  55.040  1.00  0.00    -0.026 A 
HETATM   25  C   UNL     1       7.560  25.833  53.974  1.00  0.00     0.035 A 
HETATM   26  C   UNL     1       7.655  24.446  54.148  1.00  0.00     0.056 A 
HETATM   27 CL   UNL     1       8.127  23.494  52.786  1.00  0.00    -0.083 Cl
HETATM   28  C   UNL     1       7.372  23.880  55.395  1.00  0.00     0.055 A 
HETATM   29 CL   UNL     1       7.476  22.181  55.691  1.00  0.00    -0.083 Cl
HETATM   30  C   UNL     1       6.985  24.701  56.457  1.00  0.00     0.026 A 
HETATM   31  C   UNL     1       6.886  26.084  56.281  1.00  0.00     0.011 A 
ENDBRANCH   9  24
TORSDOF 4
ENDMDL
MODEL 2
REMARK VINA RESULT:      -8.7      5.390      7.170
REMARK  4 active torsions:
REMARK  status: ('A' for Active; 'I' for Inactive)
REMARK    1  A    between atoms: C_9  and  C_10 
REMARK    2  A    between atoms: C_18  and  C_19 
REMARK       I    between atoms: C_19  and  N_20 
REMARK    3  A    between atoms: N_20  and  C_21 
REMARK    4  A    between atoms: C_24  and  O_25 
ROOT
HETATM    1  C   UNL     1      10.922  29.854  56.637  1.00  0.00     0.070 C 
HETATM    2  C   UNL     1       9.722  30.214  57.477  1.00  0.00     0.037 C 
HETATM    3  N   UNL     1       9.902  31.286  58.348  1.00  0.00    -0.192 N 
HETATM    4  C   UNL     1       9.059  31.548  59.366  1.00  0.00     0.725 A 
HETATM    5  N   UNL     1       7.874  30.870  59.448  1.00  0.00    -0.084 N 
HETATM    6  N   UNL     1       7.192  31.201  60.563  1.00  0.00    -0.149 NA
HETATM    7  C   UNL     1       8.016  32.113  61.093  1.00  0.00     0.275 A 
HETATM    8  N   UNL     1       9.167  32.361  60.386  1.00  0.00    -0.054 NA
HETATM    9  C   UNL     1       7.423  29.886  58.457  1.00  0.00     0.202 C 
HETATM   10  C   UNL     1       8.549  29.531  57.488  1.00  0.00     0.062 C 
HETATM   11  H   UNL     1      10.827  31.709  58.384  1.00  0.00     0.184 HD
ENDROOT
BRANCH  10  12
HETATM   12  C   UNL     1       8.282  28.299  56.698  1.00  0.00     0.256 C 
HETATM   13  N   UNL     1       8.365  27.132  57.423  1.00  0.00    -0.323 N 
HETATM   14  H   UNL     1       8.639  27.207  58.393  1.00  0.00     0.169 HD
HETATM   15  O   UNL     1       8.074  28.417  55.496  1.00  0.00    -0.267 OA
BRANCH  13  16
HETATM   16  C   UNL     1       8.091  25.826  56.961  1.00  0.00     0.035 A 
HETATM   17  C   UNL     1       7.032  25.505  56.111  1.00  0.00     0.032 A 
HETATM   18  C   UNL     1       6.820  24.180  55.712  1.00  0.00     0.039 A 
HETATM   19  C   UNL     1       7.660  23.157  56.149  1.00  0.00     0.068 A 
HETATM   20  C   UNL     1       8.712  23.467  57.006  1.00  0.00     0.039 A 
HETATM   21  C   UNL     1       8.928  24.795  57.406  1.00  0.00     0.032 A 
BRANCH  19  22
HETATM   22  O   UNL     1       7.338  21.913  55.682  1.00  0.00    -0.356 OA
HETATM   23  C   UNL     1       8.024  20.812  56.263  1.00  0.00     0.210 C 
ENDBRANCH  19  22
ENDBRANCH  13  16
ENDBRANCH  10  12
BRANCH   9  24
HETATM   24  C   UNL     1       6.182  30.401  57.723  1.00  0.00    -0.026 A 
HETATM   25  C   UNL     1       6.091  31.764  57.386  1.00  0.00     0.035 A 
HETATM   26  C   UNL     1       4.972  32.265  56.709  1.00  0.00     0.056 A 
HETATM   27 CL   UNL     1       4.949  33.949  56.328  1.00  0.00    -0.083 Cl
HETATM   28  C   UNL     1       3.924  31.406  56.366  1.00  0.00     0.055 A 
HETATM   29 CL   UNL     1       2.515  31.946  55.523  1.00  0.00    -0.083 Cl
HETATM   30  C   UNL     1       3.995  30.054  56.710  1.00  0.00     0.026 A 
HETATM   31  C   UNL     1       5.110  29.556  57.389  1.00  0.00     0.011 A 
ENDBRANCH   9  24
TORSDOF 4
ENDMDL
MODEL 3
REMARK VINA RESULT:      -8.5      3.217      6.072
REMARK  4 active torsions:
REMARK  status: ('A' for Active; 'I' for Inactive)
REMARK    1  A    between atoms: C_9  and  C_10 
REMARK    2  A    between atoms: C_18  and  C_19 
REMARK       I    between atoms: C_19  and  N_20 
REMARK    3  A    between atoms: N_20  and  C_21 
REMARK    4  A    between atoms: C_24  and  O_25 
ROOT
HETATM    1  C   UNL     1       8.002  28.330  56.720  1.00  0.00     0.070 C 
HETATM    2  C   UNL     1       6.826  28.763  55.879  1.00  0.00     0.037 C 
HETATM    3  N   UNL     1       6.527  30.123  55.926  1.00  0.00    -0.192 N 
HETATM    4  C   UNL     1       5.356  30.628  55.489  1.00  0.00     0.725 A 
HETATM    5  N   UNL     1       4.496  29.822  54.795  1.00  0.00    -0.084 N 
HETATM    6  N   UNL     1       3.346  30.465  54.503  1.00  0.00    -0.149 NA
HETATM    7  C   UNL     1       3.599  31.670  55.027  1.00  0.00     0.275 A 
HETATM    8  N   UNL     1       4.822  31.813  55.633  1.00  0.00    -0.054 NA
HETATM    9  C   UNL     1       4.783  28.427  54.442  1.00  0.00     0.202 C 
HETATM   10  C   UNL     1       6.027  27.924  55.171  1.00  0.00     0.062 C 
HETATM   11  H   UNL     1       7.086  30.704  56.546  1.00  0.00     0.184 HD
ENDROOT
BRANCH  10  12
HETATM   12  C   UNL     1       6.170  26.444  55.146  1.00  0.00     0.256 C 
HETATM   13  N   UNL     1       7.238  25.991  54.405  1.00  0.00    -0.323 N 
HETATM   14  H   UNL     1       7.790  26.682  53.917  1.00  0.00     0.169 HD
HETATM   15  O   UNL     1       5.321  25.771  55.720  1.00  0.00    -0.267 OA
BRANCH  13  16
HETATM   16  C   UNL     1       7.662  24.652  54.263  1.00  0.00     0.035 A 
HETATM   17  C   UNL     1       8.266  23.912  55.280  1.00  0.00     0.032 A 
HETATM   18  C   UNL     1       8.673  22.592  55.051  1.00  0.00     0.039 A 
HETATM   19  C   UNL     1       8.484  21.989  53.809  1.00  0.00     0.068 A 
HETATM   20  C   UNL     1       7.891  22.724  52.785  1.00  0.00     0.039 A 
HETATM   21  C   UNL     1       7.480  24.046  53.013  1.00  0.00     0.032 A 
BRANCH  19  22
HETATM   22  O   UNL     1       8.926  20.699  53.725  1.00  0.00    -0.356 OA
HETATM   23  C   UNL     1       8.936  19.944  54.930  1.00  0.00     0.210 C 
ENDBRANCH  19  22
ENDBRANCH  13  16
ENDBRANCH  10  12
BRANCH   9  24
HETATM   24  C   UNL     1       4.914  28.278  52.924  1.00  0.00    -0.026 A 
HETATM   25  C   UNL     1       5.311  29.384  52.151  1.00  0.00     0.035 A 
HETATM   26  C   UNL     1       5.446  29.278  50.760  1.00  0.00     0.056 A 
HETATM   27 CL   UNL     1       5.947  30.685  49.891  1.00  0.00    -0.083 Cl
HETATM   28  C   UNL     1       5.177  28.062  50.125  1.00  0.00     0.055 A 
HETATM   29 CL   UNL     1       5.330  27.851  48.417  1.00  0.00    -0.083 Cl
HETATM   30  C   UNL     1       4.766  26.962  50.881  1.00  0.00     0.026 A 
HETATM   31  C   UNL     1       4.628  27.069  52.268  1.00  0.00     0.011 A 
ENDBRANCH   9  24
TORSDOF 4
ENDMDL
MODEL 4
REMARK VINA RESULT:      -8.5      3.444      6.946
REMARK  4 active torsions:
REMARK  status: ('A' for Active; 'I' for Inactive)
REMARK    1  A    between atoms: C_9  and  C_10 
REMARK    2  A    between atoms: C_18  and  C_19 
REMARK       I    between atoms: C_19  and  N_20 
REMARK    3  A    between atoms: N_20  and  C_21 
REMARK    4  A    between atoms: C_24  and  O_25 
ROOT
HETATM    1  C   UNL     1       3.861  25.577  49.143  1.00  0.00     0.070 C 
HETATM    2  C   UNL     1       4.399  26.866  49.715  1.00  0.00     0.037 C 
HETATM    3  N   UNL     1       4.228  27.992  48.914  1.00  0.00    -0.192 N 
HETATM    4  C   UNL     1       4.898  29.144  49.122  1.00  0.00     0.725 A 
HETATM    5  N   UNL     1       5.630  29.297  50.266  1.00  0.00    -0.084 N 
HETATM    6  N   UNL     1       6.292  30.472  50.274  1.00  0.00    -0.149 NA
HETATM    7  C   UNL     1       5.884  30.991  49.110  1.00  0.00     0.275 A 
HETATM    8  N   UNL     1       5.023  30.213  48.378  1.00  0.00    -0.054 NA
HETATM    9  C   UNL     1       5.703  28.292  51.333  1.00  0.00     0.202 C 
HETATM   10  C   UNL     1       5.084  26.971  50.882  1.00  0.00     0.062 C 
HETATM   11  H   UNL     1       3.799  27.857  48.001  1.00  0.00     0.184 HD
ENDROOT
BRANCH  10  12
HETATM   12  C   UNL     1       5.439  25.822  51.759  1.00  0.00     0.256 C 
HETATM   13  N   UNL     1       6.779  25.730  52.057  1.00  0.00    -0.323 N 
HETATM   14  H   UNL     1       7.397  26.406  51.629  1.00  0.00     0.169 HD
HETATM   15  O   UNL     1       4.547  25.047  52.085  1.00  0.00    -0.267 OA
BRANCH  13  16
HETATM   16  C   UNL     1       7.392  24.796  52.920  1.00  0.00     0.035 A 
HETATM   17  C   UNL     1       7.866  23.549  52.511  1.00  0.00     0.032 A 
HETATM   18  C   UNL     1       8.448  22.673  53.435  1.00  0.00     0.039 A 
HETATM   19  C   UNL     1       8.569  23.025  54.778  1.00  0.00     0.068 A 
HETATM   20  C   UNL     1       8.089  24.263  55.197  1.00  0.00     0.039 A 
HETATM   21  C   UNL     1       7.508  25.144  54.272  1.00  0.00     0.032 A 
BRANCH  19  22
HETATM   22  O   UNL     1       9.157  22.078  55.568  1.00  0.00    -0.356 OA
HETATM   23  C   UNL     1       8.294  21.127  56.180  1.00  0.00     0.210 C 
ENDBRANCH  19  22
ENDBRANCH  13  16
ENDBRANCH  10  12
BRANCH   9  24
HETATM   24  C   UNL     1       5.045  28.822  52.609  1.00  0.00    -0.026 A 
HETATM   25  C   UNL     1       5.613  28.518  53.860  1.00  0.00     0.035 A 
HETATM   26  C   UNL     1       5.038  28.993  55.046  1.00  0.00     0.056 A 
HETATM   27 CL   UNL     1       5.808  28.578  56.536  1.00  0.00    -0.083 Cl
HETATM   28  C   UNL     1       3.880  29.775  54.994  1.00  0.00     0.055 A 
HETATM   29 CL   UNL     1       3.118  30.405  56.411  1.00  0.00    -0.083 Cl
HETATM   30  C   UNL     1       3.298  30.069  53.759  1.00  0.00     0.026 A 
HETATM   31  C   UNL     1       3.870  29.591  52.577  1.00  0.00     0.011 A 
ENDBRANCH   9  24
TORSDOF 4
ENDMDL
MODEL 5
REMARK VINA RESULT:      -8.1      4.241      6.750
REMARK  4 active torsions:
REMARK  status: ('A' for Active; 'I' for Inactive)
REMARK    1  A    between atoms: C_9  and  C_10 
REMARK    2  A    between atoms: C_18  and  C_19 
REMARK       I    between atoms: C_19  and  N_20 
REMARK    3  A    between atoms: N_20  and  C_21 
REMARK    4  A    between atoms: C_24  and  O_25 
ROOT
HETATM    1  C   UNL     1       8.923  30.587  58.489  1.00  0.00     0.070 C 
HETATM    2  C   UNL     1       7.440  30.741  58.261  1.00  0.00     0.037 C 
HETATM    3  N   UNL     1       6.828  31.764  58.981  1.00  0.00    -0.192 N 
HETATM    4  C   UNL     1       5.491  31.852  59.131  1.00  0.00     0.725 A 
HETATM    5  N   UNL     1       4.678  31.031  58.400  1.00  0.00    -0.084 N 
HETATM    6  N   UNL     1       3.381  31.200  58.730  1.00  0.00    -0.149 NA
HETATM    7  C   UNL     1       3.486  32.167  59.649  1.00  0.00     0.275 A 
HETATM    8  N   UNL     1       4.761  32.600  59.918  1.00  0.00    -0.054 NA
HETATM    9  C   UNL     1       5.166  30.069  57.405  1.00  0.00     0.202 C 
HETATM   10  C   UNL     1       6.684  29.920  57.488  1.00  0.00     0.062 C 
HETATM   11  H   UNL     1       7.409  32.294  59.627  1.00  0.00     0.184 HD
ENDROOT
BRANCH  10  12
HETATM   12  C   UNL     1       7.201  28.722  56.773  1.00  0.00     0.256 C 
HETATM   13  N   UNL     1       6.911  27.526  57.391  1.00  0.00    -0.323 N 
HETATM   14  H   UNL     1       6.426  27.567  58.277  1.00  0.00     0.169 HD
HETATM   15  O   UNL     1       7.867  28.895  55.760  1.00  0.00    -0.267 OA
BRANCH  13  16
HETATM   16  C   UNL     1       7.205  26.231  56.910  1.00  0.00     0.035 A 
HETATM   17  C   UNL     1       6.407  25.536  56.002  1.00  0.00     0.032 A 
HETATM   18  C   UNL     1       6.763  24.247  55.587  1.00  0.00     0.039 A 
HETATM   19  C   UNL     1       7.918  23.632  56.069  1.00  0.00     0.068 A 
HETATM   20  C   UNL     1       8.714  24.316  56.984  1.00  0.00     0.039 A 
HETATM   21  C   UNL     1       8.361  25.608  57.399  1.00  0.00     0.032 A 
BRANCH  19  22
HETATM   22  O   UNL     1       8.144  22.376  55.581  1.00  0.00    -0.356 OA
HETATM   23  C   UNL     1       8.300  22.253  54.173  1.00  0.00     0.210 C 
ENDBRANCH  19  22
ENDBRANCH  13  16
ENDBRANCH  10  12
BRANCH   9  24
HETATM   24  C   UNL     1       4.711  30.478  56.002  1.00  0.00    -0.026 A 
HETATM   25  C   UNL     1       4.221  29.498  55.119  1.00  0.00     0.035 A 
HETATM   26  C   UNL     1       3.791  29.841  53.831  1.00  0.00     0.056 A 
HETATM   27 CL   UNL     1       3.197  28.575  52.817  1.00  0.00    -0.083 Cl
HETATM   28  C   UNL     1       3.853  31.172  53.407  1.00  0.00     0.055 A 
HETATM   29 CL   UNL     1       3.333  31.674  51.838  1.00  0.00    -0.083 Cl
HETATM   30  C   UNL     1       4.353  32.150  54.269  1.00  0.00     0.026 A 
HETATM   31  C   UNL     1       4.786  31.807  55.553  1.00  0.00     0.011 A 
ENDBRANCH   9  24
TORSDOF 4
ENDMDL
MODEL 6
REMARK VINA RESULT:      -8.0      8.582     11.725
REMARK  4 active torsions:
REMARK  status: ('A' for Active; 'I' for Inactive)
REMARK    1  A    between atoms: C_9  and  C_10 
REMARK    2  A    between atoms: C_18  and  C_19 
REMARK       I    between atoms: C_19  and  N_20 
REMARK    3  A    between atoms: N_20  and  C_21 
REMARK    4  A    between atoms: C_24  and  O_25 
ROOT
HETATM    1  C   UNL     1       7.986  33.076  64.149  1.00  0.00     0.070 C 
HETATM    2  C   UNL     1       6.615  33.693  64.282  1.00  0.00     0.037 C 
HETATM    3  N   UNL     1       6.440  34.525  65.385  1.00  0.00    -0.192 N 
HETATM    4  C   UNL     1       5.224  34.911  65.821  1.00  0.00     0.725 A 
HETATM    5  N   UNL     1       4.122  34.648  65.056  1.00  0.00    -0.084 N 
HETATM    6  N   UNL     1       2.987  35.034  65.675  1.00  0.00    -0.149 NA
HETATM    7  C   UNL     1       3.488  35.553  66.803  1.00  0.00     0.275 A 
HETATM    8  N   UNL     1       4.854  35.505  66.927  1.00  0.00    -0.054 NA
HETATM    9  C   UNL     1       4.173  34.002  63.739  1.00  0.00     0.202 C 
HETATM   10  C   UNL     1       5.563  33.430  63.466  1.00  0.00     0.062 C 
HETATM   11  H   UNL     1       7.221  34.618  66.030  1.00  0.00     0.184 HD
ENDROOT
BRANCH  10  12
HETATM   12  C   UNL     1       5.593  32.465  62.334  1.00  0.00     0.256 C 
HETATM   13  N   UNL     1       6.554  32.735  61.386  1.00  0.00    -0.323 N 
HETATM   14  H   UNL     1       7.111  33.569  61.514  1.00  0.00     0.169 HD
HETATM   15  O   UNL     1       4.752  31.574  62.310  1.00  0.00    -0.267 OA
BRANCH  13  16
HETATM   16  C   UNL     1       6.865  31.956  60.250  1.00  0.00     0.035 A 
HETATM   17  C   UNL     1       6.108  31.949  59.078  1.00  0.00     0.032 A 
HETATM   18  C   UNL     1       6.477  31.134  58.001  1.00  0.00     0.039 A 
HETATM   19  C   UNL     1       7.605  30.317  58.073  1.00  0.00     0.068 A 
HETATM   20  C   UNL     1       8.360  30.311  59.243  1.00  0.00     0.039 A 
HETATM   21  C   UNL     1       7.993  31.129  60.323  1.00  0.00     0.032 A 
BRANCH  19  22
HETATM   22  O   UNL     1       7.848  29.577  56.951  1.00  0.00    -0.356 OA
HETATM   23  C   UNL     1       8.902  28.626  57.025  1.00  0.00     0.210 C 
ENDBRANCH  19  22
ENDBRANCH  13  16
ENDBRANCH  10  12
BRANCH   9  24
HETATM   24  C   UNL     1       3.736  34.981  62.648  1.00  0.00    -0.026 A 
HETATM   25  C   UNL     1       2.577  34.710  61.897  1.00  0.00     0.035 A 
HETATM   26  C   UNL     1       2.147  35.590  60.895  1.00  0.00     0.056 A 
HETATM   27 CL   UNL     1       0.709  35.182  60.029  1.00  0.00    -0.083 Cl
HETATM   28  C   UNL     1       2.878  36.751  60.627  1.00  0.00     0.055 A 
HETATM   29 CL   UNL     1       2.407  37.889  59.414  1.00  0.00    -0.083 Cl
HETATM   30  C   UNL     1       4.039  37.022  61.355  1.00  0.00     0.026 A 
HETATM   31  C   UNL     1       4.470  36.142  62.351  1.00  0.00     0.011 A 
ENDBRANCH   9  24
TORSDOF 4
ENDMDL
MODEL 7
REMARK VINA RESULT:      -7.9      8.953     11.804
REMARK  4 active torsions:
REMARK  status: ('A' for Active; 'I' for Inactive)
REMARK    1  A    between atoms: C_9  and  C_10 
REMARK    2  A    between atoms: C_18  and  C_19 
REMARK       I    between atoms: C_19  and  N_20 
REMARK    3  A    between atoms: N_20  and  C_21 
REMARK    4  A    between atoms: C_24  and  O_25 
ROOT
HETATM    1  C   UNL     1       8.094  31.987  63.028  1.00  0.00     0.070 C 
HETATM    2  C   UNL     1       7.100  32.878  63.733  1.00  0.00     0.037 C 
HETATM    3  N   UNL     1       7.488  33.325  64.993  1.00  0.00    -0.192 N 
HETATM    4  C   UNL     1       6.622  33.868  65.873  1.00  0.00     0.725 A 
HETATM    5  N   UNL     1       5.355  34.176  65.463  1.00  0.00    -0.084 N 
HETATM    6  N   UNL     1       4.605  34.637  66.485  1.00  0.00    -0.149 NA
HETATM    7  C   UNL     1       5.500  34.608  67.480  1.00  0.00     0.275 A 
HETATM    8  N   UNL     1       6.751  34.151  67.144  1.00  0.00    -0.054 NA
HETATM    9  C   UNL     1       4.872  34.000  64.089  1.00  0.00     0.202 C 
HETATM   10  C   UNL     1       5.867  33.190  63.260  1.00  0.00     0.062 C 
HETATM   11  H   UNL     1       8.377  32.989  65.357  1.00  0.00     0.184 HD
ENDROOT
BRANCH  10  12
HETATM   12  C   UNL     1       5.294  32.671  61.989  1.00  0.00     0.256 C 
HETATM   13  N   UNL     1       5.916  33.140  60.855  1.00  0.00    -0.323 N 
HETATM   14  H   UNL     1       6.659  33.815  60.978  1.00  0.00     0.169 HD
HETATM   15  O   UNL     1       4.313  31.940  62.053  1.00  0.00    -0.267 OA
BRANCH  13  16
HETATM   16  C   UNL     1       5.641  32.766  59.521  1.00  0.00     0.035 A 
HETATM   17  C   UNL     1       4.633  33.336  58.743  1.00  0.00     0.032 A 
HETATM   18  C   UNL     1       4.414  32.896  57.432  1.00  0.00     0.039 A 
HETATM   19  C   UNL     1       5.197  31.885  56.876  1.00  0.00     0.068 A 
HETATM   20  C   UNL     1       6.198  31.303  57.650  1.00  0.00     0.039 A 
HETATM   21  C   UNL     1       6.420  31.745  58.963  1.00  0.00     0.032 A 
BRANCH  19  22
HETATM   22  O   UNL     1       4.876  31.554  55.590  1.00  0.00    -0.356 OA
HETATM   23  C   UNL     1       3.552  31.848  55.162  1.00  0.00     0.210 C 
ENDBRANCH  19  22
ENDBRANCH  13  16
ENDBRANCH  10  12
BRANCH   9  24
HETATM   24  C   UNL     1       4.573  35.359  63.451  1.00  0.00    -0.026 A 
HETATM   25  C   UNL     1       5.558  36.363  63.464  1.00  0.00     0.035 A 
HETATM   26  C   UNL     1       5.317  37.615  62.883  1.00  0.00     0.056 A 
HETATM   27 CL   UNL     1       6.587  38.785  62.938  1.00  0.00    -0.083 Cl
HETATM   28  C   UNL     1       4.081  37.880  62.287  1.00  0.00     0.055 A 
HETATM   29 CL   UNL     1       3.712  39.395  61.543  1.00  0.00    -0.083 Cl
HETATM   30  C   UNL     1       3.089  36.896  62.283  1.00  0.00     0.026 A 
HETATM   31  C   UNL     1       3.329  35.649  62.866  1.00  0.00     0.011 A 
ENDBRANCH   9  24
TORSDOF 4
ENDMDL
MODEL 8
REMARK VINA RESULT:      -7.7      4.008      6.114
REMARK  4 active torsions:
REMARK  status: ('A' for Active; 'I' for Inactive)
REMARK    1  A    between atoms: C_9  and  C_10 
REMARK    2  A    between atoms: C_18  and  C_19 
REMARK       I    between atoms: C_19  and  N_20 
REMARK    3  A    between atoms: N_20  and  C_21 
REMARK    4  A    between atoms: C_24  and  O_25 
ROOT
HETATM    1  C   UNL     1      10.402  29.967  56.608  1.00  0.00     0.070 C 
HETATM    2  C   UNL     1       9.293  30.451  57.511  1.00  0.00     0.037 C 
HETATM    3  N   UNL     1       9.642  31.472  58.391  1.00  0.00    -0.192 N 
HETATM    4  C   UNL     1       8.884  31.811  59.453  1.00  0.00     0.725 A 
HETATM    5  N   UNL     1       7.631  31.279  59.579  1.00  0.00    -0.084 N 
HETATM    6  N   UNL     1       7.046  31.664  60.731  1.00  0.00    -0.149 NA
HETATM    7  C   UNL     1       7.998  32.458  61.237  1.00  0.00     0.275 A 
HETATM    8  N   UNL     1       9.136  32.581  60.480  1.00  0.00    -0.054 NA
HETATM    9  C   UNL     1       7.019  30.380  58.594  1.00  0.00     0.202 C 
HETATM   10  C   UNL     1       8.048  29.913  57.566  1.00  0.00     0.062 C 
HETATM   11  H   UNL     1      10.612  31.780  58.389  1.00  0.00     0.184 HD
ENDROOT
BRANCH  10  12
HETATM   12  C   UNL     1       7.598  28.741  56.768  1.00  0.00     0.256 C 
HETATM   13  N   UNL     1       7.094  29.062  55.528  1.00  0.00    -0.323 N 
HETATM   14  H   UNL     1       7.032  30.042  55.291  1.00  0.00     0.169 HD
HETATM   15  O   UNL     1       7.657  27.632  57.285  1.00  0.00    -0.267 OA
BRANCH  13  16
HETATM   16  C   UNL     1       6.665  28.160  54.530  1.00  0.00     0.035 A 
HETATM   17  C   UNL     1       5.337  28.017  54.125  1.00  0.00     0.032 A 
HETATM   18  C   UNL     1       4.993  27.086  53.138  1.00  0.00     0.039 A 
HETATM   19  C   UNL     1       5.964  26.286  52.538  1.00  0.00     0.068 A 
HETATM   20  C   UNL     1       7.290  26.414  52.944  1.00  0.00     0.039 A 
HETATM   21  C   UNL     1       7.637  27.348  53.931  1.00  0.00     0.032 A 
BRANCH  19  22
HETATM   22  O   UNL     1       5.489  25.422  51.591  1.00  0.00    -0.356 OA
HETATM   23  C   UNL     1       4.945  26.000  50.411  1.00  0.00     0.210 C 
ENDBRANCH  19  22
ENDBRANCH  13  16
ENDBRANCH  10  12
BRANCH   9  24
HETATM   24  C   UNL     1       5.818  31.057  57.929  1.00  0.00    -0.026 A 
HETATM   25  C   UNL     1       5.882  32.427  57.611  1.00  0.00     0.035 A 
HETATM   26  C   UNL     1       4.802  33.074  56.997  1.00  0.00     0.056 A 
HETATM   27 CL   UNL     1       4.972  34.755  56.636  1.00  0.00    -0.083 Cl
HETATM   28  C   UNL     1       3.639  32.358  56.699  1.00  0.00     0.055 A 
HETATM   29 CL   UNL     1       2.270  33.084  55.934  1.00  0.00    -0.083 Cl
HETATM   30  C   UNL     1       3.558  31.003  57.025  1.00  0.00     0.026 A 
HETATM   31  C   UNL     1       4.634  30.358  57.641  1.00  0.00     0.011 A 
ENDBRANCH   9  24
TORSDOF 4
ENDMDL
MODEL 9
REMARK VINA RESULT:      -7.5      2.570      6.909
REMARK  4 active torsions:
REMARK  status: ('A' for Active; 'I' for Inactive)
REMARK    1  A    between atoms: C_9  and  C_10 
REMARK    2  A    between atoms: C_18  and  C_19 
REMARK       I    between atoms: C_19  and  N_20 
REMARK    3  A    between atoms: N_20  and  C_21 
REMARK    4  A    between atoms: C_24  and  O_25 
ROOT
HETATM    1  C   UNL     1       5.424  31.216  50.687  1.00  0.00     0.070 C 
HETATM    2  C   UNL     1       5.224  29.730  50.518  1.00  0.00     0.037 C 
HETATM    3  N   UNL     1       5.505  29.231  49.248  1.00  0.00    -0.192 N 
HETATM    4  C   UNL     1       5.103  28.011  48.839  1.00  0.00     0.725 A 
HETATM    5  N   UNL     1       4.570  27.140  49.749  1.00  0.00    -0.084 N 
HETATM    6  N   UNL     1       4.155  26.001  49.157  1.00  0.00    -0.149 NA
HETATM    7  C   UNL     1       4.500  26.245  47.887  1.00  0.00     0.275 A 
HETATM    8  N   UNL     1       5.091  27.462  47.651  1.00  0.00    -0.054 NA
HETATM    9  C   UNL     1       4.444  27.428  51.182  1.00  0.00     0.202 C 
HETATM   10  C   UNL     1       4.731  28.900  51.471  1.00  0.00     0.062 C 
HETATM   11  H   UNL     1       5.776  29.900  48.531  1.00  0.00     0.184 HD
ENDROOT
BRANCH  10  12
HETATM   12  C   UNL     1       4.279  29.337  52.820  1.00  0.00     0.256 C 
HETATM   13  N   UNL     1       5.302  29.586  53.706  1.00  0.00    -0.323 N 
HETATM   14  H   UNL     1       6.245  29.410  53.387  1.00  0.00     0.169 HD
HETATM   15  O   UNL     1       3.074  29.382  53.039  1.00  0.00    -0.267 OA
BRANCH  13  16
HETATM   16  C   UNL     1       5.180  30.082  55.022  1.00  0.00     0.035 A 
HETATM   17  C   UNL     1       4.860  31.405  55.331  1.00  0.00     0.032 A 
HETATM   18  C   UNL     1       4.774  31.820  56.666  1.00  0.00     0.039 A 
HETATM   19  C   UNL     1       5.003  30.926  57.711  1.00  0.00     0.068 A 
HETATM   20  C   UNL     1       5.333  29.607  57.411  1.00  0.00     0.039 A 
HETATM   21  C   UNL     1       5.417  29.188  56.074  1.00  0.00     0.032 A 
BRANCH  19  22
HETATM   22  O   UNL     1       4.885  31.465  58.961  1.00  0.00    -0.356 OA
HETATM   23  C   UNL     1       3.576  31.819  59.387  1.00  0.00     0.210 C 
ENDBRANCH  19  22
ENDBRANCH  13  16
ENDBRANCH  10  12
BRANCH   9  24
HETATM   24  C   UNL     1       5.353  26.501  51.993  1.00  0.00    -0.026 A 
HETATM   25  C   UNL     1       5.068  26.262  53.350  1.00  0.00     0.035 A 
HETATM   26  C   UNL     1       5.877  25.415  54.117  1.00  0.00     0.056 A 
HETATM   27 CL   UNL     1       5.446  25.172  55.772  1.00  0.00    -0.083 Cl
HETATM   28  C   UNL     1       6.990  24.800  53.536  1.00  0.00     0.055 A 
HETATM   29 CL   UNL     1       8.030  23.735  54.414  1.00  0.00    -0.083 Cl
HETATM   30  C   UNL     1       7.293  25.043  52.194  1.00  0.00     0.026 A 
HETATM   31  C   UNL     1       6.488  25.892  51.430  1.00  0.00     0.011 A 
ENDBRANCH   9  24
TORSDOF 4
ENDMDL
MODEL 10
REMARK VINA RESULT:      -7.1      7.467     10.442
REMARK  4 active torsions:
REMARK  status: ('A' for Active; 'I' for Inactive)
REMARK    1  A    between atoms: C_9  and  C_10 
REMARK    2  A    between atoms: C_18  and  C_19 
REMARK       I    between atoms: C_19  and  N_20 
REMARK    3  A    between atoms: N_20  and  C_21 
REMARK    4  A    between atoms: C_24  and  O_25 
ROOT
HETATM    1  C   UNL     1       7.694  33.109  63.717  1.00  0.00     0.070 C 
HETATM    2  C   UNL     1       6.335  33.412  63.135  1.00  0.00     0.037 C 
HETATM    3  N   UNL     1       5.388  33.879  64.042  1.00  0.00    -0.192 N 
HETATM    4  C   UNL     1       4.068  33.912  63.768  1.00  0.00     0.725 A 
HETATM    5  N   UNL     1       3.643  33.665  62.492  1.00  0.00    -0.084 N 
HETATM    6  N   UNL     1       2.296  33.664  62.413  1.00  0.00    -0.149 NA
HETATM    7  C   UNL     1       1.976  33.949  63.680  1.00  0.00     0.275 A 
HETATM    8  N   UNL     1       3.032  34.117  64.540  1.00  0.00    -0.054 NA
HETATM    9  C   UNL     1       4.543  33.408  61.362  1.00  0.00     0.202 C 
HETATM   10  C   UNL     1       5.975  33.188  61.845  1.00  0.00     0.062 C 
HETATM   11  H   UNL     1       5.665  33.938  65.020  1.00  0.00     0.184 HD
ENDROOT
BRANCH  10  12
HETATM   12  C   UNL     1       6.860  32.577  60.816  1.00  0.00     0.256 C 
HETATM   13  N   UNL     1       6.278  31.549  60.109  1.00  0.00    -0.323 N 
HETATM   14  H   UNL     1       5.342  31.276  60.374  1.00  0.00     0.169 HD
HETATM   15  O   UNL     1       8.011  32.986  60.726  1.00  0.00    -0.267 OA
BRANCH  13  16
HETATM   16  C   UNL     1       6.845  30.837  59.029  1.00  0.00     0.035 A 
HETATM   17  C   UNL     1       8.097  30.225  59.070  1.00  0.00     0.032 A 
HETATM   18  C   UNL     1       8.594  29.551  57.948  1.00  0.00     0.039 A 
HETATM   19  C   UNL     1       7.851  29.475  56.770  1.00  0.00     0.068 A 
HETATM   20  C   UNL     1       6.604  30.093  56.718  1.00  0.00     0.039 A 
HETATM   21  C   UNL     1       6.104  30.767  57.842  1.00  0.00     0.032 A 
BRANCH  19  22
HETATM   22  O   UNL     1       8.454  28.787  55.756  1.00  0.00    -0.356 OA
HETATM   23  C   UNL     1       7.604  28.236  54.758  1.00  0.00     0.210 C 
ENDBRANCH  19  22
ENDBRANCH  13  16
ENDBRANCH  10  12
BRANCH   9  24
HETATM   24  C   UNL     1       4.455  34.545  60.341  1.00  0.00    -0.026 A 
HETATM   25  C   UNL     1       4.514  35.880  60.782  1.00  0.00     0.035 A 
HETATM   26  C   UNL     1       4.442  36.942  59.872  1.00  0.00     0.056 A 
HETATM   27 CL   UNL     1       4.529  38.548  60.502  1.00  0.00    -0.083 Cl
HETATM   28  C   UNL     1       4.303  36.681  58.506  1.00  0.00     0.055 A 
HETATM   29 CL   UNL     1       4.217  37.936  57.322  1.00  0.00    -0.083 Cl
HETATM   30  C   UNL     1       4.227  35.360  58.058  1.00  0.00     0.026 A 
HETATM   31  C   UNL     1       4.295  34.301  58.967  1.00  0.00     0.011 A 
ENDBRANCH   9  24
TORSDOF 4
ENDMDL
