MODEL 1
REMARK VINA RESULT:      -8.1      0.000      0.000
REMARK  6 active torsions:
REMARK  status: ('A' for Active; 'I' for Inactive)
REMARK    1  A    between atoms: C_3  and  N_4 
REMARK    2  A    between atoms: N_4  and  C_5 
REMARK    3  A    between atoms: C_5  and  C_6 
REMARK    4  A    between atoms: N_8  and  C_10 
REMARK    5  A    between atoms: C_10  and  C_11 
REMARK    6  A    between atoms: C_12  and  O_13 
ROOT
HETATM    1  C   UNL     1       6.350  27.781  53.799  1.00  0.00     0.031 C 
HETATM    2  C   UNL     1       7.355  26.658  53.533  1.00  0.00     0.241 C 
HETATM    3  N   UNL     1       6.911  25.514  54.408  1.00  0.00    -0.067 N 
HETATM    4  H   UNL     1       6.844  24.662  53.817  1.00  0.00     0.280 HD
HETATM    5  C   UNL     1       5.520  25.810  54.913  1.00  0.00     0.235 C 
HETATM    6  C   UNL     1       5.069  26.998  54.081  1.00  0.00     0.035 C 
ENDROOT
BRANCH   3   7
HETATM    7  C   UNL     1       7.904  25.098  55.466  1.00  0.00     0.276 C 
BRANCH   7   8
HETATM    8  C   UNL     1       8.105  23.612  55.542  1.00  0.00     0.002 A 
HETATM    9  C   UNL     1       8.273  22.973  56.777  1.00  0.00     0.073 A 
HETATM   10  C   UNL     1       8.439  21.593  56.862  1.00  0.00     0.038 A 
HETATM   11  C   UNL     1       8.444  20.828  55.694  1.00  0.00     0.022 A 
HETATM   12  C   UNL     1       8.280  21.449  54.458  1.00  0.00     0.011 A 
HETATM   13 BR   UNL     1       8.303  20.419  52.875  1.00  0.00    -0.051 Br
HETATM   14  C   UNL     1       8.105  22.831  54.376  1.00  0.00     0.030 A 
BRANCH   9  15
HETATM   15  O   UNL     1       8.299  23.750  57.904  1.00  0.00    -0.360 OA
HETATM   16  H   UNL     1       7.981  24.643  57.656  1.00  0.00     0.217 HD
ENDBRANCH   9  15
ENDBRANCH   7   8
ENDBRANCH   3   7
BRANCH   1  17
HETATM   17  C   UNL     1       6.793  28.688  54.962  1.00  0.00     0.127 C 
BRANCH  17  18
HETATM   18  N   UNL     1       8.254  28.811  55.000  1.00  0.00    -0.376 N 
HETATM   19  H   UNL     1       8.675  28.957  54.087  1.00  0.00     0.161 HD
BRANCH  18  20
HETATM   20  C   UNL     1       8.899  29.376  56.089  1.00  0.00     0.100 A 
HETATM   21  C   UNL     1      10.269  29.671  56.124  1.00  0.00     0.048 A 
HETATM   22  C   UNL     1      10.840  30.235  57.265  1.00  0.00     0.005 A 
HETATM   23  C   UNL     1      10.039  30.518  58.362  1.00  0.00     0.017 A 
HETATM   24  C   UNL     1       8.684  30.246  58.284  1.00  0.00     0.089 A 
HETATM   25  N   UNL     1       8.168  29.704  57.170  1.00  0.00    -0.353 N 
HETATM   26  H   UNL     1       7.167  29.532  57.146  1.00  0.00     0.166 HD
ENDBRANCH  18  20
ENDBRANCH  17  18
ENDBRANCH   1  17
TORSDOF 6
ENDMDL
MODEL 2
REMARK VINA RESULT:      -8.1      2.288      3.048
REMARK  6 active torsions:
REMARK  status: ('A' for Active; 'I' for Inactive)
REMARK    1  A    between atoms: C_3  and  N_4 
REMARK    2  A    between atoms: N_4  and  C_5 
REMARK    3  A    between atoms: C_5  and  C_6 
REMARK    4  A    between atoms: N_8  and  C_10 
REMARK    5  A    between atoms: C_10  and  C_11 
REMARK    6  A    between atoms: C_12  and  O_13 
ROOT
HETATM    1  C   UNL     1       6.176  28.856  56.462  1.00  0.00     0.031 C 
HETATM    2  C   UNL     1       6.888  28.153  55.304  1.00  0.00     0.241 C 
HETATM    3  N   UNL     1       6.609  26.685  55.499  1.00  0.00    -0.067 N 
HETATM    4  H   UNL     1       6.245  26.304  54.604  1.00  0.00     0.280 HD
HETATM    5  C   UNL     1       5.506  26.540  56.519  1.00  0.00     0.235 C 
HETATM    6  C   UNL     1       4.966  27.950  56.685  1.00  0.00     0.035 C 
ENDROOT
BRANCH   3   7
HETATM    7  C   UNL     1       7.828  25.832  55.745  1.00  0.00     0.276 C 
BRANCH   7   8
HETATM    8  C   UNL     1       7.819  24.544  54.973  1.00  0.00     0.002 A 
HETATM    9  C   UNL     1       7.853  24.546  53.573  1.00  0.00     0.073 A 
HETATM   10  C   UNL     1       7.866  23.358  52.847  1.00  0.00     0.038 A 
HETATM   11  C   UNL     1       7.839  22.138  53.525  1.00  0.00     0.022 A 
HETATM   12  C   UNL     1       7.802  22.119  54.917  1.00  0.00     0.011 A 
HETATM   13 BR   UNL     1       7.749  20.470  55.837  1.00  0.00    -0.051 Br
HETATM   14  C   UNL     1       7.798  23.311  55.643  1.00  0.00     0.030 A 
BRANCH   9  15
HETATM   15  O   UNL     1       7.844  25.756  52.932  1.00  0.00    -0.360 OA
HETATM   16  H   UNL     1       7.037  26.235  53.214  1.00  0.00     0.217 HD
ENDBRANCH   9  15
ENDBRANCH   7   8
ENDBRANCH   3   7
BRANCH   1  17
HETATM   17  C   UNL     1       7.084  28.995  57.698  1.00  0.00     0.127 C 
BRANCH  17  18
HETATM   18  N   UNL     1       6.786  30.232  58.428  1.00  0.00    -0.376 N 
HETATM   19  H   UNL     1       5.807  30.330  58.680  1.00  0.00     0.161 HD
BRANCH  18  20
HETATM   20  C   UNL     1       7.717  30.805  59.279  1.00  0.00     0.100 A 
HETATM   21  C   UNL     1       8.922  31.379  58.854  1.00  0.00     0.048 A 
HETATM   22  C   UNL     1       9.807  31.931  59.781  1.00  0.00     0.005 A 
HETATM   23  C   UNL     1       9.479  31.923  61.128  1.00  0.00     0.017 A 
HETATM   24  C   UNL     1       8.266  31.379  61.514  1.00  0.00     0.089 A 
HETATM   25  N   UNL     1       7.438  30.858  60.595  1.00  0.00    -0.353 N 
HETATM   26  H   UNL     1       6.551  30.480  60.915  1.00  0.00     0.166 HD
ENDBRANCH  18  20
ENDBRANCH  17  18
ENDBRANCH   1  17
TORSDOF 6
ENDMDL
MODEL 3
REMARK VINA RESULT:      -8.1      3.698      7.805
REMARK  6 active torsions:
REMARK  status: ('A' for Active; 'I' for Inactive)
REMARK    1  A    between atoms: C_3  and  N_4 
REMARK    2  A    between atoms: N_4  and  C_5 
REMARK    3  A    between atoms: C_5  and  C_6 
REMARK    4  A    between atoms: N_8  and  C_10 
REMARK    5  A    between atoms: C_10  and  C_11 
REMARK    6  A    between atoms: C_12  and  O_13 
ROOT
HETATM    1  C   UNL     1       6.433  25.292  56.826  1.00  0.00     0.031 C 
HETATM    2  C   UNL     1       7.545  25.946  57.648  1.00  0.00     0.241 C 
HETATM    3  N   UNL     1       7.317  27.430  57.513  1.00  0.00    -0.067 N 
HETATM    4  H   UNL     1       7.311  27.843  58.466  1.00  0.00     0.280 HD
HETATM    5  C   UNL     1       5.945  27.652  56.927  1.00  0.00     0.235 C 
HETATM    6  C   UNL     1       5.285  26.285  57.002  1.00  0.00     0.035 C 
ENDROOT
BRANCH   3   7
HETATM    7  C   UNL     1       8.434  28.187  56.838  1.00  0.00     0.276 C 
BRANCH   7   8
HETATM    8  C   UNL     1       8.914  29.370  57.629  1.00  0.00     0.002 A 
HETATM    9  C   UNL     1      10.030  30.107  57.211  1.00  0.00     0.073 A 
HETATM   10  C   UNL     1      10.471  31.219  57.924  1.00  0.00     0.038 A 
HETATM   11  C   UNL     1       9.794  31.606  59.082  1.00  0.00     0.022 A 
HETATM   12  C   UNL     1       8.684  30.883  59.511  1.00  0.00     0.011 A 
HETATM   13 BR   UNL     1       7.776  31.394  61.086  1.00  0.00    -0.051 Br
HETATM   14  C   UNL     1       8.238  29.774  58.790  1.00  0.00     0.030 A 
BRANCH   9  15
HETATM   15  O   UNL     1      10.696  29.686  56.092  1.00  0.00    -0.360 OA
HETATM   16  H   UNL     1      11.656  29.733  56.283  1.00  0.00     0.217 HD
ENDBRANCH   9  15
ENDBRANCH   7   8
ENDBRANCH   3   7
BRANCH   1  17
HETATM   17  C   UNL     1       6.849  25.077  55.359  1.00  0.00     0.127 C 
BRANCH  17  18
HETATM   18  N   UNL     1       8.090  24.299  55.278  1.00  0.00    -0.376 N 
HETATM   19  H   UNL     1       8.755  24.515  56.015  1.00  0.00     0.161 HD
BRANCH  18  20
HETATM   20  C   UNL     1       8.095  23.005  54.785  1.00  0.00     0.100 A 
HETATM   21  C   UNL     1       8.116  22.684  53.420  1.00  0.00     0.048 A 
HETATM   22  C   UNL     1       8.114  21.351  53.009  1.00  0.00     0.005 A 
HETATM   23  C   UNL     1       8.108  20.341  53.960  1.00  0.00     0.017 A 
HETATM   24  C   UNL     1       8.122  20.690  55.300  1.00  0.00     0.089 A 
HETATM   25  N   UNL     1       8.125  21.983  55.660  1.00  0.00    -0.353 N 
HETATM   26  H   UNL     1       8.149  22.199  56.652  1.00  0.00     0.166 HD
ENDBRANCH  18  20
ENDBRANCH  17  18
ENDBRANCH   1  17
TORSDOF 6
ENDMDL
MODEL 4
REMARK VINA RESULT:      -8.0      3.167      6.927
REMARK  6 active torsions:
REMARK  status: ('A' for Active; 'I' for Inactive)
REMARK    1  A    between atoms: C_3  and  N_4 
REMARK    2  A    between atoms: N_4  and  C_5 
REMARK    3  A    between atoms: C_5  and  C_6 
REMARK    4  A    between atoms: N_8  and  C_10 
REMARK    5  A    between atoms: C_10  and  C_11 
REMARK    6  A    between atoms: C_12  and  O_13 
ROOT
HETATM    1  C   UNL     1       5.992  24.623  53.609  1.00  0.00     0.031 C 
HETATM    2  C   UNL     1       6.218  25.637  54.733  1.00  0.00     0.241 C 
HETATM    3  N   UNL     1       5.545  26.902  54.268  1.00  0.00    -0.067 N 
HETATM    4  H   UNL     1       4.918  27.232  55.028  1.00  0.00     0.280 HD
HETATM    5  C   UNL     1       4.667  26.570  53.087  1.00  0.00     0.235 C 
HETATM    6  C   UNL     1       4.627  25.051  53.069  1.00  0.00     0.035 C 
ENDROOT
BRANCH   3   7
HETATM    7  C   UNL     1       6.466  28.080  54.073  1.00  0.00     0.276 C 
BRANCH   7   8
HETATM    8  C   UNL     1       7.024  28.620  55.358  1.00  0.00     0.002 A 
HETATM    9  C   UNL     1       6.182  28.903  56.442  1.00  0.00     0.073 A 
HETATM   10  C   UNL     1       6.689  29.383  57.647  1.00  0.00     0.038 A 
HETATM   11  C   UNL     1       8.064  29.594  57.778  1.00  0.00     0.022 A 
HETATM   12  C   UNL     1       8.913  29.319  56.709  1.00  0.00     0.011 A 
HETATM   13 BR   UNL     1      10.770  29.618  56.879  1.00  0.00    -0.051 Br
HETATM   14  C   UNL     1       8.403  28.829  55.506  1.00  0.00     0.030 A 
BRANCH   9  15
HETATM   15  O   UNL     1       4.836  28.721  56.275  1.00  0.00    -0.360 OA
HETATM   16  H   UNL     1       4.471  29.543  55.886  1.00  0.00     0.217 HD
ENDBRANCH   9  15
ENDBRANCH   7   8
ENDBRANCH   3   7
BRANCH   1  17
HETATM   17  C   UNL     1       7.116  24.666  52.558  1.00  0.00     0.127 C 
BRANCH  17  18
HETATM   18  N   UNL     1       8.353  24.090  53.095  1.00  0.00    -0.376 N 
HETATM   19  H   UNL     1       8.980  24.778  53.503  1.00  0.00     0.161 HD
BRANCH  18  20
HETATM   20  C   UNL     1       8.375  22.816  53.641  1.00  0.00     0.100 A 
HETATM   21  C   UNL     1       7.966  21.662  52.959  1.00  0.00     0.048 A 
HETATM   22  C   UNL     1       8.015  20.418  53.586  1.00  0.00     0.005 A 
HETATM   23  C   UNL     1       8.487  20.325  54.888  1.00  0.00     0.017 A 
HETATM   24  C   UNL     1       8.914  21.478  55.523  1.00  0.00     0.089 A 
HETATM   25  N   UNL     1       8.854  22.660  54.888  1.00  0.00    -0.353 N 
HETATM   26  H   UNL     1       9.190  23.481  55.383  1.00  0.00     0.166 HD
ENDBRANCH  18  20
ENDBRANCH  17  18
ENDBRANCH   1  17
TORSDOF 6
ENDMDL
MODEL 5
REMARK VINA RESULT:      -7.9      3.751      6.472
REMARK  6 active torsions:
REMARK  status: ('A' for Active; 'I' for Inactive)
REMARK    1  A    between atoms: C_3  and  N_4 
REMARK    2  A    between atoms: N_4  and  C_5 
REMARK    3  A    between atoms: C_5  and  C_6 
REMARK    4  A    between atoms: N_8  and  C_10 
REMARK    5  A    between atoms: C_10  and  C_11 
REMARK    6  A    between atoms: C_12  and  O_13 
ROOT
HETATM    1  C   UNL     1       4.512  27.195  52.293  1.00  0.00     0.031 C 
HETATM    2  C   UNL     1       5.026  25.870  52.863  1.00  0.00     0.241 C 
HETATM    3  N   UNL     1       6.092  26.253  53.857  1.00  0.00    -0.067 N 
HETATM    4  H   UNL     1       5.887  25.768  54.753  1.00  0.00     0.280 HD
HETATM    5  C   UNL     1       5.987  27.734  54.124  1.00  0.00     0.235 C 
HETATM    6  C   UNL     1       4.665  28.133  53.490  1.00  0.00     0.035 C 
ENDROOT
BRANCH   3   7
HETATM    7  C   UNL     1       7.478  25.756  53.529  1.00  0.00     0.276 C 
BRANCH   7   8
HETATM    8  C   UNL     1       7.806  24.438  54.170  1.00  0.00     0.002 A 
HETATM    9  C   UNL     1       7.992  24.341  55.555  1.00  0.00     0.073 A 
HETATM   10  C   UNL     1       8.274  23.121  56.163  1.00  0.00     0.038 A 
HETATM   11  C   UNL     1       8.381  21.971  55.379  1.00  0.00     0.022 A 
HETATM   12  C   UNL     1       8.201  22.052  54.001  1.00  0.00     0.011 A 
HETATM   13 BR   UNL     1       8.362  20.500  52.936  1.00  0.00    -0.051 Br
HETATM   14  C   UNL     1       7.909  23.274  53.394  1.00  0.00     0.030 A 
BRANCH   9  15
HETATM   15  O   UNL     1       7.916  25.490  56.296  1.00  0.00    -0.360 OA
HETATM   16  H   UNL     1       7.549  26.191  55.718  1.00  0.00     0.217 HD
ENDBRANCH   9  15
ENDBRANCH   7   8
ENDBRANCH   3   7
BRANCH   1  17
HETATM   17  C   UNL     1       5.309  27.637  51.052  1.00  0.00     0.127 C 
BRANCH  17  18
HETATM   18  N   UNL     1       5.178  26.654  49.972  1.00  0.00    -0.376 N 
HETATM   19  H   UNL     1       5.608  25.758  50.182  1.00  0.00     0.161 HD
BRANCH  18  20
HETATM   20  C   UNL     1       4.068  26.641  49.143  1.00  0.00     0.100 A 
HETATM   21  C   UNL     1       3.830  25.669  48.162  1.00  0.00     0.048 A 
HETATM   22  C   UNL     1       2.687  25.734  47.366  1.00  0.00     0.005 A 
HETATM   23  C   UNL     1       1.775  26.761  47.561  1.00  0.00     0.017 A 
HETATM   24  C   UNL     1       2.020  27.687  48.560  1.00  0.00     0.089 A 
HETATM   25  N   UNL     1       3.131  27.593  49.309  1.00  0.00    -0.353 N 
HETATM   26  H   UNL     1       3.269  28.283  50.041  1.00  0.00     0.166 HD
ENDBRANCH  18  20
ENDBRANCH  17  18
ENDBRANCH   1  17
TORSDOF 6
ENDMDL
MODEL 6
REMARK VINA RESULT:      -7.8      2.811      4.414
REMARK  6 active torsions:
REMARK  status: ('A' for Active; 'I' for Inactive)
REMARK    1  A    between atoms: C_3  and  N_4 
REMARK    2  A    between atoms: N_4  and  C_5 
REMARK    3  A    between atoms: C_5  and  C_6 
REMARK    4  A    between atoms: N_8  and  C_10 
REMARK    5  A    between atoms: C_10  and  C_11 
REMARK    6  A    between atoms: C_12  and  O_13 
ROOT
HETATM    1  C   UNL     1       8.369  29.060  57.706  1.00  0.00     0.031 C 
HETATM    2  C   UNL     1       8.012  27.578  57.567  1.00  0.00     0.241 C 
HETATM    3  N   UNL     1       7.634  27.395  56.120  1.00  0.00    -0.067 N 
HETATM    4  H   UNL     1       8.177  26.594  55.743  1.00  0.00     0.280 HD
HETATM    5  C   UNL     1       8.068  28.620  55.354  1.00  0.00     0.235 C 
HETATM    6  C   UNL     1       8.956  29.373  56.331  1.00  0.00     0.035 C 
ENDROOT
BRANCH   3   7
HETATM    7  C   UNL     1       6.208  26.962  55.884  1.00  0.00     0.276 C 
BRANCH   7   8
HETATM    8  C   UNL     1       6.052  26.043  54.706  1.00  0.00     0.002 A 
HETATM    9  C   UNL     1       5.049  26.262  53.753  1.00  0.00     0.073 A 
HETATM   10  C   UNL     1       4.908  25.431  52.645  1.00  0.00     0.038 A 
HETATM   11  C   UNL     1       5.779  24.352  52.481  1.00  0.00     0.022 A 
HETATM   12  C   UNL     1       6.780  24.120  53.421  1.00  0.00     0.011 A 
HETATM   13 BR   UNL     1       7.950  22.651  53.210  1.00  0.00    -0.051 Br
HETATM   14  C   UNL     1       6.925  24.960  54.526  1.00  0.00     0.030 A 
BRANCH   9  15
HETATM   15  O   UNL     1       4.187  27.307  53.956  1.00  0.00    -0.360 OA
HETATM   16  H   UNL     1       3.276  26.969  53.826  1.00  0.00     0.217 HD
ENDBRANCH   9  15
ENDBRANCH   7   8
ENDBRANCH   3   7
BRANCH   1  17
HETATM   17  C   UNL     1       7.141  29.917  58.068  1.00  0.00     0.127 C 
BRANCH  17  18
HETATM   18  N   UNL     1       7.552  31.247  58.529  1.00  0.00    -0.376 N 
HETATM   19  H   UNL     1       7.080  32.008  58.050  1.00  0.00     0.161 HD
BRANCH  18  20
HETATM   20  C   UNL     1       7.927  31.466  59.845  1.00  0.00     0.100 A 
HETATM   21  C   UNL     1       9.234  31.768  60.250  1.00  0.00     0.048 A 
HETATM   22  C   UNL     1       9.526  31.969  61.599  1.00  0.00     0.005 A 
HETATM   23  C   UNL     1       8.510  31.885  62.539  1.00  0.00     0.017 A 
HETATM   24  C   UNL     1       7.222  31.619  62.105  1.00  0.00     0.089 A 
HETATM   25  N   UNL     1       6.977  31.432  60.798  1.00  0.00    -0.353 N 
HETATM   26  H   UNL     1       6.018  31.253  60.517  1.00  0.00     0.166 HD
ENDBRANCH  18  20
ENDBRANCH  17  18
ENDBRANCH   1  17
TORSDOF 6
ENDMDL
MODEL 7
REMARK VINA RESULT:      -7.7      2.486      3.451
REMARK  6 active torsions:
REMARK  status: ('A' for Active; 'I' for Inactive)
REMARK    1  A    between atoms: C_3  and  N_4 
REMARK    2  A    between atoms: N_4  and  C_5 
REMARK    3  A    between atoms: C_5  and  C_6 
REMARK    4  A    between atoms: N_8  and  C_10 
REMARK    5  A    between atoms: C_10  and  C_11 
REMARK    6  A    between atoms: C_12  and  O_13 
ROOT
HETATM    1  C   UNL     1       6.333  30.367  56.598  1.00  0.00     0.031 C 
HETATM    2  C   UNL     1       7.347  29.320  56.131  1.00  0.00     0.241 C 
HETATM    3  N   UNL     1       6.615  28.004  56.196  1.00  0.00    -0.067 N 
HETATM    4  H   UNL     1       6.731  27.525  55.281  1.00  0.00     0.280 HD
HETATM    5  C   UNL     1       5.142  28.283  56.362  1.00  0.00     0.235 C 
HETATM    6  C   UNL     1       5.015  29.775  56.100  1.00  0.00     0.035 C 
ENDROOT
BRANCH   3   7
HETATM    7  C   UNL     1       7.193  27.001  57.164  1.00  0.00     0.276 C 
BRANCH   7   8
HETATM    8  C   UNL     1       7.666  25.739  56.502  1.00  0.00     0.002 A 
HETATM    9  C   UNL     1       8.284  24.726  57.247  1.00  0.00     0.073 A 
HETATM   10  C   UNL     1       8.708  23.543  56.649  1.00  0.00     0.038 A 
HETATM   11  C   UNL     1       8.521  23.361  55.277  1.00  0.00     0.022 A 
HETATM   12  C   UNL     1       7.911  24.360  54.522  1.00  0.00     0.011 A 
HETATM   13 BR   UNL     1       7.672  24.124  52.663  1.00  0.00    -0.051 Br
HETATM   14  C   UNL     1       7.479  25.542  55.126  1.00  0.00     0.030 A 
BRANCH   9  15
HETATM   15  O   UNL     1       8.486  24.944  58.584  1.00  0.00    -0.360 OA
HETATM   16  H   UNL     1       9.161  24.303  58.890  1.00  0.00     0.217 HD
ENDBRANCH   9  15
ENDBRANCH   7   8
ENDBRANCH   3   7
BRANCH   1  17
HETATM   17  C   UNL     1       6.383  30.579  58.122  1.00  0.00     0.127 C 
BRANCH  17  18
HETATM   18  N   UNL     1       7.763  30.509  58.613  1.00  0.00    -0.376 N 
HETATM   19  H   UNL     1       8.461  30.588  57.879  1.00  0.00     0.161 HD
BRANCH  18  20
HETATM   20  C   UNL     1       8.106  30.998  59.863  1.00  0.00     0.100 A 
HETATM   21  C   UNL     1       9.381  31.474  60.198  1.00  0.00     0.048 A 
HETATM   22  C   UNL     1       9.643  31.944  61.485  1.00  0.00     0.005 A 
HETATM   23  C   UNL     1       8.628  31.953  62.430  1.00  0.00     0.017 A 
HETATM   24  C   UNL     1       7.371  31.507  62.060  1.00  0.00     0.089 A 
HETATM   25  N   UNL     1       7.154  31.063  60.812  1.00  0.00    -0.353 N 
HETATM   26  H   UNL     1       6.215  30.757  60.574  1.00  0.00     0.166 HD
ENDBRANCH  18  20
ENDBRANCH  17  18
ENDBRANCH   1  17
TORSDOF 6
ENDMDL
MODEL 8
REMARK VINA RESULT:      -7.7      3.833      6.421
REMARK  6 active torsions:
REMARK  status: ('A' for Active; 'I' for Inactive)
REMARK    1  A    between atoms: C_3  and  N_4 
REMARK    2  A    between atoms: N_4  and  C_5 
REMARK    3  A    between atoms: C_5  and  C_6 
REMARK    4  A    between atoms: N_8  and  C_10 
REMARK    5  A    between atoms: C_10  and  C_11 
REMARK    6  A    between atoms: C_12  and  O_13 
ROOT
HETATM    1  C   UNL     1       4.408  27.428  52.896  1.00  0.00     0.031 C 
HETATM    2  C   UNL     1       5.028  26.111  53.370  1.00  0.00     0.241 C 
HETATM    3  N   UNL     1       6.002  26.498  54.453  1.00  0.00    -0.067 N 
HETATM    4  H   UNL     1       5.806  25.911  55.288  1.00  0.00     0.280 HD
HETATM    5  C   UNL     1       5.733  27.929  54.848  1.00  0.00     0.235 C 
HETATM    6  C   UNL     1       4.408  28.256  54.181  1.00  0.00     0.035 C 
ENDROOT
BRANCH   3   7
HETATM    7  C   UNL     1       7.445  26.173  54.159  1.00  0.00     0.276 C 
BRANCH   7   8
HETATM    8  C   UNL     1       7.707  24.701  54.020  1.00  0.00     0.002 A 
HETATM    9  C   UNL     1       7.831  24.110  52.756  1.00  0.00     0.073 A 
HETATM   10  C   UNL     1       8.096  22.750  52.615  1.00  0.00     0.038 A 
HETATM   11  C   UNL     1       8.235  21.956  53.755  1.00  0.00     0.022 A 
HETATM   12  C   UNL     1       8.112  22.528  55.018  1.00  0.00     0.011 A 
HETATM   13 BR   UNL     1       8.284  21.452  56.562  1.00  0.00    -0.051 Br
HETATM   14  C   UNL     1       7.856  23.893  55.158  1.00  0.00     0.030 A 
BRANCH   9  15
HETATM   15  O   UNL     1       7.656  24.905  51.655  1.00  0.00    -0.360 OA
HETATM   16  H   UNL     1       8.480  25.418  51.526  1.00  0.00     0.217 HD
ENDBRANCH   9  15
ENDBRANCH   7   8
ENDBRANCH   3   7
BRANCH   1  17
HETATM   17  C   UNL     1       5.213  28.064  51.747  1.00  0.00     0.127 C 
BRANCH  17  18
HETATM   18  N   UNL     1       5.552  27.062  50.732  1.00  0.00    -0.376 N 
HETATM   19  H   UNL     1       5.978  26.222  51.114  1.00  0.00     0.161 HD
BRANCH  18  20
HETATM   20  C   UNL     1       4.788  26.915  49.585  1.00  0.00     0.100 A 
HETATM   21  C   UNL     1       4.061  25.760  49.268  1.00  0.00     0.048 A 
HETATM   22  C   UNL     1       3.322  25.694  48.087  1.00  0.00     0.005 A 
HETATM   23  C   UNL     1       3.297  26.786  47.233  1.00  0.00     0.017 A 
HETATM   24  C   UNL     1       3.998  27.925  47.590  1.00  0.00     0.089 A 
HETATM   25  N   UNL     1       4.698  27.954  48.735  1.00  0.00    -0.353 N 
HETATM   26  H   UNL     1       5.189  28.813  48.969  1.00  0.00     0.166 HD
ENDBRANCH  18  20
ENDBRANCH  17  18
ENDBRANCH   1  17
TORSDOF 6
ENDMDL
MODEL 9
REMARK VINA RESULT:      -7.6      4.990      8.204
REMARK  6 active torsions:
REMARK  status: ('A' for Active; 'I' for Inactive)
REMARK    1  A    between atoms: C_3  and  N_4 
REMARK    2  A    between atoms: N_4  and  C_5 
REMARK    3  A    between atoms: C_5  and  C_6 
REMARK    4  A    between atoms: N_8  and  C_10 
REMARK    5  A    between atoms: C_10  and  C_11 
REMARK    6  A    between atoms: C_12  and  O_13 
ROOT
HETATM    1  C   UNL     1       5.961  26.106  53.650  1.00  0.00     0.031 C 
HETATM    2  C   UNL     1       5.421  27.041  52.565  1.00  0.00     0.241 C 
HETATM    3  N   UNL     1       4.775  26.136  51.548  1.00  0.00    -0.067 N 
HETATM    4  H   UNL     1       3.815  26.490  51.365  1.00  0.00     0.280 HD
HETATM    5  C   UNL     1       4.631  24.762  52.153  1.00  0.00     0.235 C 
HETATM    6  C   UNL     1       4.938  24.971  53.626  1.00  0.00     0.035 C 
ENDROOT
BRANCH   3   7
HETATM    7  C   UNL     1       5.401  26.172  50.175  1.00  0.00     0.276 C 
BRANCH   7   8
HETATM    8  C   UNL     1       4.552  26.871  49.152  1.00  0.00     0.002 A 
HETATM    9  C   UNL     1       3.448  26.230  48.577  1.00  0.00     0.073 A 
HETATM   10  C   UNL     1       2.641  26.875  47.643  1.00  0.00     0.038 A 
HETATM   11  C   UNL     1       2.940  28.186  47.266  1.00  0.00     0.022 A 
HETATM   12  C   UNL     1       4.036  28.836  47.828  1.00  0.00     0.011 A 
HETATM   13 BR   UNL     1       4.452  30.604  47.307  1.00  0.00    -0.051 Br
HETATM   14  C   UNL     1       4.838  28.190  48.770  1.00  0.00     0.030 A 
BRANCH   9  15
HETATM   15  O   UNL     1       3.198  24.933  48.938  1.00  0.00    -0.360 OA
HETATM   16  H   UNL     1       3.567  24.354  48.239  1.00  0.00     0.217 HD
ENDBRANCH   9  15
ENDBRANCH   7   8
ENDBRANCH   3   7
BRANCH   1  17
HETATM   17  C   UNL     1       7.402  25.649  53.353  1.00  0.00     0.127 C 
BRANCH  17  18
HETATM   18  N   UNL     1       7.905  24.782  54.423  1.00  0.00    -0.376 N 
HETATM   19  H   UNL     1       7.755  25.157  55.356  1.00  0.00     0.161 HD
BRANCH  18  20
HETATM   20  C   UNL     1       7.903  23.403  54.290  1.00  0.00     0.100 A 
HETATM   21  C   UNL     1       8.009  22.731  53.065  1.00  0.00     0.048 A 
HETATM   22  C   UNL     1       7.992  21.338  53.021  1.00  0.00     0.005 A 
HETATM   23  C   UNL     1       7.887  20.617  54.201  1.00  0.00     0.017 A 
HETATM   24  C   UNL     1       7.818  21.308  55.399  1.00  0.00     0.089 A 
HETATM   25  N   UNL     1       7.838  22.650  55.404  1.00  0.00    -0.353 N 
HETATM   26  H   UNL     1       7.799  23.122  56.303  1.00  0.00     0.166 HD
ENDBRANCH  18  20
ENDBRANCH  17  18
ENDBRANCH   1  17
TORSDOF 6
ENDMDL
MODEL 10
REMARK VINA RESULT:      -7.5      3.866      8.075
REMARK  6 active torsions:
REMARK  status: ('A' for Active; 'I' for Inactive)
REMARK    1  A    between atoms: C_3  and  N_4 
REMARK    2  A    between atoms: N_4  and  C_5 
REMARK    3  A    between atoms: C_5  and  C_6 
REMARK    4  A    between atoms: N_8  and  C_10 
REMARK    5  A    between atoms: C_10  and  C_11 
REMARK    6  A    between atoms: C_12  and  O_13 
ROOT
HETATM    1  C   UNL     1       6.834  24.832  56.788  1.00  0.00     0.031 C 
HETATM    2  C   UNL     1       7.393  25.873  57.761  1.00  0.00     0.241 C 
HETATM    3  N   UNL     1       6.656  27.148  57.443  1.00  0.00    -0.067 N 
HETATM    4  H   UNL     1       6.274  27.530  58.330  1.00  0.00     0.280 HD
HETATM    5  C   UNL     1       5.477  26.813  56.563  1.00  0.00     0.235 C 
HETATM    6  C   UNL     1       5.388  25.297  56.625  1.00  0.00     0.035 C 
ENDROOT
BRANCH   3   7
HETATM    7  C   UNL     1       7.524  28.280  56.950  1.00  0.00     0.276 C 
BRANCH   7   8
HETATM    8  C   UNL     1       7.387  29.534  57.765  1.00  0.00     0.002 A 
HETATM    9  C   UNL     1       6.394  30.477  57.469  1.00  0.00     0.073 A 
HETATM   10  C   UNL     1       6.243  31.632  58.230  1.00  0.00     0.038 A 
HETATM   11  C   UNL     1       7.101  31.863  59.307  1.00  0.00     0.022 A 
HETATM   12  C   UNL     1       8.094  30.936  59.613  1.00  0.00     0.011 A 
HETATM   13 BR   UNL     1       9.267  31.253  61.060  1.00  0.00    -0.051 Br
HETATM   14  C   UNL     1       8.238  29.774  58.854  1.00  0.00     0.030 A 
BRANCH   9  15
HETATM   15  O   UNL     1       5.589  30.243  56.386  1.00  0.00    -0.360 OA
HETATM   16  H   UNL     1       6.163  30.200  55.593  1.00  0.00     0.217 HD
ENDBRANCH   9  15
ENDBRANCH   7   8
ENDBRANCH   3   7
BRANCH   1  17
HETATM   17  C   UNL     1       7.627  24.791  55.469  1.00  0.00     0.127 C 
BRANCH  17  18
HETATM   18  N   UNL     1       7.046  23.814  54.542  1.00  0.00    -0.376 N 
HETATM   19  H   UNL     1       6.650  24.233  53.705  1.00  0.00     0.161 HD
BRANCH  18  20
HETATM   20  C   UNL     1       7.572  22.539  54.420  1.00  0.00     0.100 A 
HETATM   21  C   UNL     1       7.871  21.705  55.506  1.00  0.00     0.048 A 
HETATM   22  C   UNL     1       8.405  20.434  55.294  1.00  0.00     0.005 A 
HETATM   23  C   UNL     1       8.625  19.992  53.998  1.00  0.00     0.017 A 
HETATM   24  C   UNL     1       8.288  20.825  52.945  1.00  0.00     0.089 A 
HETATM   25  N   UNL     1       7.775  22.042  53.186  1.00  0.00    -0.353 N 
HETATM   26  H   UNL     1       7.528  22.619  52.387  1.00  0.00     0.166 HD
ENDBRANCH  18  20
ENDBRANCH  17  18
ENDBRANCH   1  17
TORSDOF 6
ENDMDL
