MODEL 1
REMARK VINA RESULT:     -11.1      0.000      0.000
REMARK  8 active torsions:
REMARK  status: ('A' for Active; 'I' for Inactive)
REMARK    1  A    between atoms: C_4  and  N_5 
REMARK       I    between atoms: N_5  and  C_6 
REMARK       I    between atoms: C_6  and  N_7 
REMARK    2  A    between atoms: N_7  and  C_8 
REMARK    3  A    between atoms: C_8  and  C_9 
REMARK    4  A    between atoms: C_9  and  C_10 
REMARK    5  A    between atoms: C_14  and  O_15 
REMARK       I    between atoms: N_22  and  C_23 
REMARK    6  A    between atoms: C_23  and  C_24 
REMARK    7  A    between atoms: C_24  and  N_25 
REMARK    8  A    between atoms: N_29  and  C_30 
ROOT
HETATM    1  N   UNL     1       5.554  29.792  56.326  1.00  0.00    -0.017 N 
HETATM    2  C   UNL     1       6.837  29.406  56.576  1.00  0.00     0.718 C 
HETATM    3  N   UNL     1       7.244  28.369  55.774  1.00  0.00    -0.223 N 
HETATM    4  N   UNL     1       7.555  29.956  57.505  1.00  0.00    -0.026 NA
HETATM    5  C   UNL     1       8.832  29.565  57.772  1.00  0.00     0.286 C 
HETATM    6  O   UNL     1       9.462  28.640  57.258  1.00  0.00    -0.269 OA
HETATM    7  H   UNL     1       4.876  29.061  56.179  1.00  0.00     0.203 HD
HETATM    8  H   UNL     1       8.233  28.140  55.898  1.00  0.00     0.177 HD
ENDROOT
BRANCH   1   9
HETATM    9  C   UNL     1       4.915  30.912  56.846  1.00  0.00     0.741 A 
HETATM   10  N   UNL     1       4.369  30.897  58.075  1.00  0.00    -0.067 NA
HETATM   11  C   UNL     1       3.830  32.045  58.536  1.00  0.00     0.051 A 
HETATM   12  C   UNL     1       3.244  32.026  59.915  1.00  0.00     0.071 C 
HETATM   13  C   UNL     1       3.807  33.202  57.787  1.00  0.00     0.054 A 
HETATM   14  C   UNL     1       4.391  33.136  56.541  1.00  0.00     0.051 A 
HETATM   15  N   UNL     1       4.955  32.005  56.068  1.00  0.00    -0.067 NA
HETATM   16  C   UNL     1       4.398  34.338  55.643  1.00  0.00     0.071 C 
ENDBRANCH   1   9
BRANCH   3  17
HETATM   17  C   UNL     1       6.834  28.182  54.380  1.00  0.00     0.142 C 
BRANCH  17  18
HETATM   18  C   UNL     1       5.930  26.958  54.176  1.00  0.00     0.061 C 
BRANCH  18  19
HETATM   19  C   UNL     1       6.603  25.824  53.462  1.00  0.00    -0.029 A 
HETATM   20  C   UNL     1       7.016  24.575  54.029  1.00  0.00    -0.002 A 
HETATM   21  C   UNL     1       7.593  23.823  53.007  1.00  0.00     0.045 A 
HETATM   22  C   UNL     1       6.955  24.012  55.321  1.00  0.00     0.017 A 
HETATM   23  C   UNL     1       8.094  22.530  53.210  1.00  0.00     0.067 A 
HETATM   24  N   UNL     1       7.571  24.597  51.871  1.00  0.00    -0.365 N 
HETATM   25  C   UNL     1       8.020  21.991  54.499  1.00  0.00     0.070 A 
HETATM   26  C   UNL     1       7.460  22.723  55.545  1.00  0.00     0.038 A 
HETATM   27  H   UNL     1       7.960  24.323  50.977  1.00  0.00     0.165 HD
HETATM   28  C   UNL     1       6.969  25.798  52.130  1.00  0.00     0.096 A 
BRANCH  25  29
HETATM   29  O   UNL     1       8.461  20.697  54.602  1.00  0.00    -0.356 OA
HETATM   30  C   UNL     1       8.819  20.265  55.912  1.00  0.00     0.210 C 
ENDBRANCH  25  29
ENDBRANCH  18  19
ENDBRANCH  17  18
ENDBRANCH   3  17
BRANCH   5  31
HETATM   31  C   UNL     1       9.466  30.394  58.890  1.00  0.00     0.340 C 
BRANCH  31  32
HETATM   32  N   UNL     1       8.508  30.667  60.056  1.00  0.00    -0.060 N 
HETATM   33  H   UNL     1       7.879  29.851  60.101  1.00  0.00     0.280 HD
HETATM   34  C   UNL     1       9.252  30.706  61.389  1.00  0.00     0.255 C 
HETATM   35  C   UNL     1       8.296  31.016  62.558  1.00  0.00     0.150 C 
HETATM   36  N   UNL     1       7.521  32.248  62.274  1.00  0.00    -0.378 N 
HETATM   37  C   UNL     1       6.748  32.193  61.020  1.00  0.00     0.150 C 
HETATM   38  C   UNL     1       7.691  31.926  59.832  1.00  0.00     0.255 C 
BRANCH  36  39
HETATM   39  C   UNL     1       6.911  32.817  63.402  1.00  0.00     0.030 A 
HETATM   40  C   UNL     1       5.508  32.920  63.449  1.00  0.00     0.032 A 
HETATM   41  C   UNL     1       4.848  33.452  64.560  1.00  0.00     0.044 A 
HETATM   42  C   UNL     1       5.588  33.887  65.648  1.00  0.00     0.116 A 
HETATM   43  F   UNL     1       4.962  34.394  66.717  1.00  0.00    -0.206 F 
HETATM   44  C   UNL     1       6.972  33.796  65.642  1.00  0.00     0.044 A 
HETATM   45  C   UNL     1       7.627  33.261  64.527  1.00  0.00     0.032 A 
ENDBRANCH  36  39
ENDBRANCH  31  32
ENDBRANCH   5  31
TORSDOF 8
ENDMDL
MODEL 2
REMARK VINA RESULT:     -11.0      4.031     11.034
REMARK  8 active torsions:
REMARK  status: ('A' for Active; 'I' for Inactive)
REMARK    1  A    between atoms: C_4  and  N_5 
REMARK       I    between atoms: N_5  and  C_6 
REMARK       I    between atoms: C_6  and  N_7 
REMARK    2  A    between atoms: N_7  and  C_8 
REMARK    3  A    between atoms: C_8  and  C_9 
REMARK    4  A    between atoms: C_9  and  C_10 
REMARK    5  A    between atoms: C_14  and  O_15 
REMARK       I    between atoms: N_22  and  C_23 
REMARK    6  A    between atoms: C_23  and  C_24 
REMARK    7  A    between atoms: C_24  and  N_25 
REMARK    8  A    between atoms: N_29  and  C_30 
ROOT
HETATM    1  N   UNL     1       6.759  32.724  59.328  1.00  0.00    -0.017 N 
HETATM    2  C   UNL     1       7.281  31.481  59.125  1.00  0.00     0.718 C 
HETATM    3  N   UNL     1       8.487  31.303  59.758  1.00  0.00    -0.223 N 
HETATM    4  N   UNL     1       6.694  30.598  58.379  1.00  0.00    -0.026 NA
HETATM    5  C   UNL     1       7.217  29.361  58.158  1.00  0.00     0.286 C 
HETATM    6  O   UNL     1       8.298  28.917  58.549  1.00  0.00    -0.269 OA
HETATM    7  H   UNL     1       7.397  33.502  59.280  1.00  0.00     0.203 HD
HETATM    8  H   UNL     1       8.835  30.345  59.681  1.00  0.00     0.177 HD
ENDROOT
BRANCH   1   9
HETATM    9  C   UNL     1       5.485  33.151  58.967  1.00  0.00     0.741 A 
HETATM   10  N   UNL     1       4.515  33.306  59.887  1.00  0.00    -0.067 NA
HETATM   11  C   UNL     1       3.328  33.793  59.470  1.00  0.00     0.051 A 
HETATM   12  C   UNL     1       2.260  33.983  60.503  1.00  0.00     0.071 C 
HETATM   13  C   UNL     1       3.083  34.108  58.150  1.00  0.00     0.054 A 
HETATM   14  C   UNL     1       4.129  33.925  57.272  1.00  0.00     0.051 A 
HETATM   15  N   UNL     1       5.332  33.461  57.671  1.00  0.00    -0.067 NA
HETATM   16  C   UNL     1       3.953  34.221  55.813  1.00  0.00     0.071 C 
ENDBRANCH   1   9
BRANCH   3  17
HETATM   17  C   UNL     1       8.844  31.888  61.052  1.00  0.00     0.142 C 
BRANCH  17  18
HETATM   18  C   UNL     1       8.287  31.099  62.246  1.00  0.00     0.061 C 
BRANCH  18  19
HETATM   19  C   UNL     1       6.982  31.627  62.762  1.00  0.00    -0.029 A 
HETATM   20  C   UNL     1       6.794  32.567  63.826  1.00  0.00    -0.002 A 
HETATM   21  C   UNL     1       5.423  32.773  63.965  1.00  0.00     0.045 A 
HETATM   22  C   UNL     1       7.666  33.263  64.691  1.00  0.00     0.017 A 
HETATM   23  C   UNL     1       4.883  33.653  64.911  1.00  0.00     0.067 A 
HETATM   24  N   UNL     1       4.795  31.961  63.049  1.00  0.00    -0.365 N 
HETATM   25  C   UNL     1       5.765  34.335  65.756  1.00  0.00     0.070 A 
HETATM   26  C   UNL     1       7.142  34.140  65.651  1.00  0.00     0.038 A 
HETATM   27  H   UNL     1       3.792  31.872  62.947  1.00  0.00     0.165 HD
HETATM   28  C   UNL     1       5.723  31.276  62.313  1.00  0.00     0.096 A 
BRANCH  25  29
HETATM   29  O   UNL     1       5.167  35.232  66.602  1.00  0.00    -0.356 OA
HETATM   30  C   UNL     1       4.329  36.204  65.983  1.00  0.00     0.210 C 
ENDBRANCH  25  29
ENDBRANCH  18  19
ENDBRANCH  17  18
ENDBRANCH   3  17
BRANCH   5  31
HETATM   31  C   UNL     1       6.314  28.504  57.270  1.00  0.00     0.340 C 
BRANCH  31  32
HETATM   32  N   UNL     1       7.049  27.324  56.622  1.00  0.00    -0.060 N 
HETATM   33  H   UNL     1       8.051  27.565  56.656  1.00  0.00     0.280 HD
HETATM   34  C   UNL     1       6.887  26.049  57.446  1.00  0.00     0.255 C 
HETATM   35  C   UNL     1       7.595  24.853  56.777  1.00  0.00     0.150 C 
HETATM   36  N   UNL     1       7.148  24.714  55.370  1.00  0.00    -0.378 N 
HETATM   37  C   UNL     1       7.360  25.921  54.551  1.00  0.00     0.150 C 
HETATM   38  C   UNL     1       6.625  27.120  55.180  1.00  0.00     0.255 C 
BRANCH  36  39
HETATM   39  C   UNL     1       7.435  23.467  54.796  1.00  0.00     0.030 A 
HETATM   40  C   UNL     1       7.666  23.383  53.409  1.00  0.00     0.032 A 
HETATM   41  C   UNL     1       7.985  22.171  52.791  1.00  0.00     0.044 A 
HETATM   42  C   UNL     1       8.081  21.020  53.557  1.00  0.00     0.116 A 
HETATM   43  F   UNL     1       8.389  19.857  52.971  1.00  0.00    -0.206 F 
HETATM   44  C   UNL     1       7.866  21.064  54.926  1.00  0.00     0.044 A 
HETATM   45  C   UNL     1       7.549  22.281  55.541  1.00  0.00     0.032 A 
ENDBRANCH  36  39
ENDBRANCH  31  32
ENDBRANCH   5  31
TORSDOF 8
ENDMDL
MODEL 3
REMARK VINA RESULT:     -11.0      2.090      3.928
REMARK  8 active torsions:
REMARK  status: ('A' for Active; 'I' for Inactive)
REMARK    1  A    between atoms: C_4  and  N_5 
REMARK       I    between atoms: N_5  and  C_6 
REMARK       I    between atoms: C_6  and  N_7 
REMARK    2  A    between atoms: N_7  and  C_8 
REMARK    3  A    between atoms: C_8  and  C_9 
REMARK    4  A    between atoms: C_9  and  C_10 
REMARK    5  A    between atoms: C_14  and  O_15 
REMARK       I    between atoms: N_22  and  C_23 
REMARK    6  A    between atoms: C_23  and  C_24 
REMARK    7  A    between atoms: C_24  and  N_25 
REMARK    8  A    between atoms: N_29  and  C_30 
ROOT
HETATM    1  N   UNL     1       6.645  29.226  57.259  1.00  0.00    -0.017 N 
HETATM    2  C   UNL     1       5.346  29.623  57.372  1.00  0.00     0.718 C 
HETATM    3  N   UNL     1       4.466  28.718  56.831  1.00  0.00    -0.223 N 
HETATM    4  N   UNL     1       5.015  30.757  57.904  1.00  0.00    -0.026 NA
HETATM    5  C   UNL     1       3.721  31.170  58.006  1.00  0.00     0.286 C 
HETATM    6  O   UNL     1       2.712  30.605  57.579  1.00  0.00    -0.269 OA
HETATM    7  H   UNL     1       6.924  28.814  56.383  1.00  0.00     0.203 HD
HETATM    8  H   UNL     1       3.489  28.972  56.995  1.00  0.00     0.177 HD
ENDROOT
BRANCH   1   9
HETATM    9  C   UNL     1       7.746  29.832  57.853  1.00  0.00     0.741 A 
HETATM   10  N   UNL     1       7.619  30.567  58.973  1.00  0.00    -0.067 NA
HETATM   11  C   UNL     1       8.744  31.062  59.529  1.00  0.00     0.051 A 
HETATM   12  C   UNL     1       8.596  31.861  60.788  1.00  0.00     0.071 C 
HETATM   13  C   UNL     1       9.991  30.857  58.979  1.00  0.00     0.054 A 
HETATM   14  C   UNL     1      10.037  30.090  57.835  1.00  0.00     0.051 A 
HETATM   15  N   UNL     1       8.927  29.565  57.274  1.00  0.00    -0.067 NA
HETATM   16  C   UNL     1      11.345  29.828  57.151  1.00  0.00     0.071 C 
ENDBRANCH   1   9
BRANCH   3  17
HETATM   17  C   UNL     1       4.641  27.265  56.861  1.00  0.00     0.142 C 
BRANCH  17  18
HETATM   18  C   UNL     1       5.475  26.732  55.686  1.00  0.00     0.061 C 
BRANCH  18  19
HETATM   19  C   UNL     1       6.434  25.646  56.071  1.00  0.00    -0.029 A 
HETATM   20  C   UNL     1       6.946  24.611  55.224  1.00  0.00    -0.002 A 
HETATM   21  C   UNL     1       7.803  23.827  55.994  1.00  0.00     0.045 A 
HETATM   22  C   UNL     1       6.758  24.264  53.869  1.00  0.00     0.017 A 
HETATM   23  C   UNL     1       8.496  22.727  55.471  1.00  0.00     0.067 A 
HETATM   24  N   UNL     1       7.785  24.338  57.271  1.00  0.00    -0.365 N 
HETATM   25  C   UNL     1       8.296  22.402  54.125  1.00  0.00     0.070 A 
HETATM   26  C   UNL     1       7.435  23.160  53.332  1.00  0.00     0.038 A 
HETATM   27  H   UNL     1       8.286  23.946  58.058  1.00  0.00     0.165 HD
HETATM   28  C   UNL     1       6.973  25.438  57.326  1.00  0.00     0.096 A 
BRANCH  25  29
HETATM   29  O   UNL     1       9.064  21.362  53.669  1.00  0.00    -0.356 OA
HETATM   30  C   UNL     1       8.404  20.433  52.814  1.00  0.00     0.210 C 
ENDBRANCH  25  29
ENDBRANCH  18  19
ENDBRANCH  17  18
ENDBRANCH   3  17
BRANCH   5  31
HETATM   31  C   UNL     1       3.602  32.527  58.701  1.00  0.00     0.340 C 
BRANCH  31  32
HETATM   32  N   UNL     1       4.450  32.629  59.974  1.00  0.00    -0.060 N 
HETATM   33  H   UNL     1       5.387  32.281  59.717  1.00  0.00     0.280 HD
HETATM   34  C   UNL     1       4.638  34.083  60.401  1.00  0.00     0.255 C 
HETATM   35  C   UNL     1       5.460  34.186  61.701  1.00  0.00     0.150 C 
HETATM   36  N   UNL     1       4.864  33.329  62.754  1.00  0.00    -0.378 N 
HETATM   37  C   UNL     1       4.740  31.911  62.373  1.00  0.00     0.150 C 
HETATM   38  C   UNL     1       3.885  31.782  61.098  1.00  0.00     0.255 C 
BRANCH  36  39
HETATM   39  C   UNL     1       5.299  33.629  64.054  1.00  0.00     0.030 A 
HETATM   40  C   UNL     1       4.351  33.978  65.035  1.00  0.00     0.032 A 
HETATM   41  C   UNL     1       4.727  34.257  66.351  1.00  0.00     0.044 A 
HETATM   42  C   UNL     1       6.064  34.187  66.708  1.00  0.00     0.116 A 
HETATM   43  F   UNL     1       6.430  34.449  67.968  1.00  0.00    -0.206 F 
HETATM   44  C   UNL     1       7.027  33.840  65.771  1.00  0.00     0.044 A 
HETATM   45  C   UNL     1       6.644  33.559  64.454  1.00  0.00     0.032 A 
ENDBRANCH  36  39
ENDBRANCH  31  32
ENDBRANCH   5  31
TORSDOF 8
ENDMDL
MODEL 4
REMARK VINA RESULT:     -10.9      2.354      4.706
REMARK  8 active torsions:
REMARK  status: ('A' for Active; 'I' for Inactive)
REMARK    1  A    between atoms: C_4  and  N_5 
REMARK       I    between atoms: N_5  and  C_6 
REMARK       I    between atoms: C_6  and  N_7 
REMARK    2  A    between atoms: N_7  and  C_8 
REMARK    3  A    between atoms: C_8  and  C_9 
REMARK    4  A    between atoms: C_9  and  C_10 
REMARK    5  A    between atoms: C_14  and  O_15 
REMARK       I    between atoms: N_22  and  C_23 
REMARK    6  A    between atoms: C_23  and  C_24 
REMARK    7  A    between atoms: C_24  and  N_25 
REMARK    8  A    between atoms: N_29  and  C_30 
ROOT
HETATM    1  N   UNL     1       7.289  28.198  53.651  1.00  0.00    -0.017 N 
HETATM    2  C   UNL     1       6.025  28.653  53.422  1.00  0.00     0.718 C 
HETATM    3  N   UNL     1       5.565  28.333  52.168  1.00  0.00    -0.223 N 
HETATM    4  N   UNL     1       5.370  29.344  54.302  1.00  0.00    -0.026 NA
HETATM    5  C   UNL     1       4.114  29.817  54.075  1.00  0.00     0.286 C 
HETATM    6  O   UNL     1       3.450  29.734  53.040  1.00  0.00    -0.269 OA
HETATM    7  H   UNL     1       7.955  28.299  52.902  1.00  0.00     0.203 HD
HETATM    8  H   UNL     1       4.587  28.596  52.029  1.00  0.00     0.177 HD
ENDROOT
BRANCH   1   9
HETATM    9  C   UNL     1       7.961  28.210  54.868  1.00  0.00     0.741 A 
HETATM   10  N   UNL     1       8.858  29.170  55.159  1.00  0.00    -0.067 NA
HETATM   11  C   UNL     1       9.415  29.154  56.388  1.00  0.00     0.051 A 
HETATM   12  C   UNL     1      10.397  30.238  56.714  1.00  0.00     0.071 C 
HETATM   13  C   UNL     1       9.110  28.189  57.324  1.00  0.00     0.054 A 
HETATM   14  C   UNL     1       8.179  27.246  56.950  1.00  0.00     0.051 A 
HETATM   15  N   UNL     1       7.592  27.254  55.734  1.00  0.00    -0.067 NA
HETATM   16  C   UNL     1       7.797  26.143  57.892  1.00  0.00     0.071 C 
ENDBRANCH   1   9
BRANCH   3  17
HETATM   17  C   UNL     1       5.882  27.095  51.455  1.00  0.00     0.142 C 
BRANCH  17  18
HETATM   18  C   UNL     1       5.042  25.897  51.920  1.00  0.00     0.061 C 
BRANCH  18  19
HETATM   19  C   UNL     1       5.504  25.304  53.217  1.00  0.00    -0.029 A 
HETATM   20  C   UNL     1       6.547  24.340  53.400  1.00  0.00    -0.002 A 
HETATM   21  C   UNL     1       6.637  24.075  54.765  1.00  0.00     0.045 A 
HETATM   22  C   UNL     1       7.425  23.662  52.527  1.00  0.00     0.017 A 
HETATM   23  C   UNL     1       7.573  23.182  55.302  1.00  0.00     0.067 A 
HETATM   24  N   UNL     1       5.661  24.817  55.388  1.00  0.00    -0.365 N 
HETATM   25  C   UNL     1       8.436  22.523  54.419  1.00  0.00     0.070 A 
HETATM   26  C   UNL     1       8.362  22.757  53.046  1.00  0.00     0.038 A 
HETATM   27  H   UNL     1       5.464  24.796  56.381  1.00  0.00     0.165 HD
HETATM   28  C   UNL     1       4.981  25.568  54.468  1.00  0.00     0.096 A 
BRANCH  25  29
HETATM   29  O   UNL     1       9.371  21.725  55.024  1.00  0.00    -0.356 OA
HETATM   30  C   UNL     1       8.944  20.403  55.345  1.00  0.00     0.210 C 
ENDBRANCH  25  29
ENDBRANCH  18  19
ENDBRANCH  17  18
ENDBRANCH   3  17
BRANCH   5  31
HETATM   31  C   UNL     1       3.555  30.570  55.283  1.00  0.00     0.340 C 
BRANCH  31  32
HETATM   32  N   UNL     1       4.645  31.073  56.237  1.00  0.00    -0.060 N 
HETATM   33  H   UNL     1       5.388  31.463  55.636  1.00  0.00     0.280 HD
HETATM   34  C   UNL     1       4.141  32.231  57.096  1.00  0.00     0.255 C 
HETATM   35  C   UNL     1       5.224  32.715  58.081  1.00  0.00     0.150 C 
HETATM   36  N   UNL     1       5.746  31.573  58.870  1.00  0.00    -0.378 N 
HETATM   37  C   UNL     1       6.295  30.478  58.049  1.00  0.00     0.150 C 
HETATM   38  C   UNL     1       5.214  29.952  57.085  1.00  0.00     0.255 C 
BRANCH  36  39
HETATM   39  C   UNL     1       6.447  31.945  60.027  1.00  0.00     0.030 A 
HETATM   40  C   UNL     1       5.821  32.782  60.971  1.00  0.00     0.032 A 
HETATM   41  C   UNL     1       6.462  33.160  62.154  1.00  0.00     0.044 A 
HETATM   42  C   UNL     1       7.743  32.700  62.412  1.00  0.00     0.116 A 
HETATM   43  F   UNL     1       8.361  33.055  63.544  1.00  0.00    -0.206 F 
HETATM   44  C   UNL     1       8.390  31.869  61.509  1.00  0.00     0.044 A 
HETATM   45  C   UNL     1       7.742  31.492  60.326  1.00  0.00     0.032 A 
ENDBRANCH  36  39
ENDBRANCH  31  32
ENDBRANCH   5  31
TORSDOF 8
ENDMDL
MODEL 5
REMARK VINA RESULT:     -10.9      0.812      1.580
REMARK  8 active torsions:
REMARK  status: ('A' for Active; 'I' for Inactive)
REMARK    1  A    between atoms: C_4  and  N_5 
REMARK       I    between atoms: N_5  and  C_6 
REMARK       I    between atoms: C_6  and  N_7 
REMARK    2  A    between atoms: N_7  and  C_8 
REMARK    3  A    between atoms: C_8  and  C_9 
REMARK    4  A    between atoms: C_9  and  C_10 
REMARK    5  A    between atoms: C_14  and  O_15 
REMARK       I    between atoms: N_22  and  C_23 
REMARK    6  A    between atoms: C_23  and  C_24 
REMARK    7  A    between atoms: C_24  and  N_25 
REMARK    8  A    between atoms: N_29  and  C_30 
ROOT
HETATM    1  N   UNL     1       5.187  30.117  56.064  1.00  0.00    -0.017 N 
HETATM    2  C   UNL     1       6.254  29.497  56.640  1.00  0.00     0.718 C 
HETATM    3  N   UNL     1       6.422  28.209  56.194  1.00  0.00    -0.223 N 
HETATM    4  N   UNL     1       6.989  30.075  57.537  1.00  0.00    -0.026 NA
HETATM    5  C   UNL     1       8.047  29.456  58.129  1.00  0.00     0.286 C 
HETATM    6  O   UNL     1       8.426  28.294  57.975  1.00  0.00    -0.269 OA
HETATM    7  H   UNL     1       4.343  29.577  55.961  1.00  0.00     0.203 HD
HETATM    8  H   UNL     1       7.274  27.774  56.556  1.00  0.00     0.177 HD
ENDROOT
BRANCH   1   9
HETATM    9  C   UNL     1       4.858  31.464  56.177  1.00  0.00     0.741 A 
HETATM   10  N   UNL     1       4.943  32.293  55.120  1.00  0.00    -0.067 NA
HETATM   11  C   UNL     1       4.538  33.569  55.291  1.00  0.00     0.051 A 
HETATM   12  C   UNL     1       4.616  34.481  54.105  1.00  0.00     0.071 C 
HETATM   13  C   UNL     1       4.070  34.039  56.500  1.00  0.00     0.054 A 
HETATM   14  C   UNL     1       4.009  33.126  57.529  1.00  0.00     0.051 A 
HETATM   15  N   UNL     1       4.387  31.840  57.376  1.00  0.00    -0.067 NA
HETATM   16  C   UNL     1       3.532  33.547  58.887  1.00  0.00     0.071 C 
ENDBRANCH   1   9
BRANCH   3  17
HETATM   17  C   UNL     1       6.144  27.756  54.829  1.00  0.00     0.142 C 
BRANCH  17  18
HETATM   18  C   UNL     1       7.414  27.464  54.018  1.00  0.00     0.061 C 
BRANCH  18  19
HETATM   19  C   UNL     1       7.487  26.060  53.497  1.00  0.00    -0.029 A 
HETATM   20  C   UNL     1       7.581  24.859  54.271  1.00  0.00    -0.002 A 
HETATM   21  C   UNL     1       7.622  23.788  53.379  1.00  0.00     0.045 A 
HETATM   22  C   UNL     1       7.639  24.580  55.653  1.00  0.00     0.017 A 
HETATM   23  C   UNL     1       7.697  22.455  53.801  1.00  0.00     0.067 A 
HETATM   24  N   UNL     1       7.594  24.316  52.109  1.00  0.00    -0.365 N 
HETATM   25  C   UNL     1       7.751  22.202  55.176  1.00  0.00     0.070 A 
HETATM   26  C   UNL     1       7.725  23.252  56.094  1.00  0.00     0.038 A 
HETATM   27  H   UNL     1       7.651  23.774  51.256  1.00  0.00     0.165 HD
HETATM   28  C   UNL     1       7.502  25.680  52.168  1.00  0.00     0.096 A 
BRANCH  25  29
HETATM   29  O   UNL     1       7.748  20.873  55.512  1.00  0.00    -0.356 OA
HETATM   30  C   UNL     1       8.968  20.365  56.045  1.00  0.00     0.210 C 
ENDBRANCH  25  29
ENDBRANCH  18  19
ENDBRANCH  17  18
ENDBRANCH   3  17
BRANCH   5  31
HETATM   31  C   UNL     1       8.764  30.368  59.126  1.00  0.00     0.340 C 
BRANCH  31  32
HETATM   32  N   UNL     1       7.926  30.676  60.373  1.00  0.00    -0.060 N 
HETATM   33  H   UNL     1       7.322  29.852  60.517  1.00  0.00     0.280 HD
HETATM   34  C   UNL     1       8.802  30.785  61.619  1.00  0.00     0.255 C 
HETATM   35  C   UNL     1       7.965  31.131  62.867  1.00  0.00     0.150 C 
HETATM   36  N   UNL     1       7.139  32.336  62.613  1.00  0.00    -0.378 N 
HETATM   37  C   UNL     1       6.243  32.214  61.449  1.00  0.00     0.150 C 
HETATM   38  C   UNL     1       7.064  31.910  60.182  1.00  0.00     0.255 C 
BRANCH  36  39
HETATM   39  C   UNL     1       6.637  32.944  63.773  1.00  0.00     0.030 A 
HETATM   40  C   UNL     1       5.245  33.086  63.930  1.00  0.00     0.032 A 
HETATM   41  C   UNL     1       4.691  33.658  65.078  1.00  0.00     0.044 A 
HETATM   42  C   UNL     1       5.527  34.095  66.093  1.00  0.00     0.116 A 
HETATM   43  F   UNL     1       5.002  34.640  67.197  1.00  0.00    -0.206 F 
HETATM   44  C   UNL     1       6.903  33.967  65.978  1.00  0.00     0.044 A 
HETATM   45  C   UNL     1       7.452  33.392  64.826  1.00  0.00     0.032 A 
ENDBRANCH  36  39
ENDBRANCH  31  32
ENDBRANCH   5  31
TORSDOF 8
ENDMDL
MODEL 6
REMARK VINA RESULT:     -10.4      4.242     11.263
REMARK  8 active torsions:
REMARK  status: ('A' for Active; 'I' for Inactive)
REMARK    1  A    between atoms: C_4  and  N_5 
REMARK       I    between atoms: N_5  and  C_6 
REMARK       I    between atoms: C_6  and  N_7 
REMARK    2  A    between atoms: N_7  and  C_8 
REMARK    3  A    between atoms: C_8  and  C_9 
REMARK    4  A    between atoms: C_9  and  C_10 
REMARK    5  A    between atoms: C_14  and  O_15 
REMARK       I    between atoms: N_22  and  C_23 
REMARK    6  A    between atoms: C_23  and  C_24 
REMARK    7  A    between atoms: C_24  and  N_25 
REMARK    8  A    between atoms: N_29  and  C_30 
ROOT
HETATM    1  N   UNL     1       5.880  32.363  59.754  1.00  0.00    -0.017 N 
HETATM    2  C   UNL     1       6.004  31.684  58.580  1.00  0.00     0.718 C 
HETATM    3  N   UNL     1       5.183  32.175  57.595  1.00  0.00    -0.223 N 
HETATM    4  N   UNL     1       6.795  30.665  58.450  1.00  0.00    -0.026 NA
HETATM    5  C   UNL     1       6.912  29.971  57.285  1.00  0.00     0.286 C 
HETATM    6  O   UNL     1       6.281  30.137  56.239  1.00  0.00    -0.269 OA
HETATM    7  H   UNL     1       4.948  32.609  60.045  1.00  0.00     0.203 HD
HETATM    8  H   UNL     1       5.340  31.725  56.690  1.00  0.00     0.177 HD
ENDROOT
BRANCH   1   9
HETATM    9  C   UNL     1       6.689  32.221  60.877  1.00  0.00     0.741 A 
HETATM   10  N   UNL     1       7.711  31.346  60.894  1.00  0.00    -0.067 NA
HETATM   11  C   UNL     1       8.494  31.319  61.993  1.00  0.00     0.051 A 
HETATM   12  C   UNL     1       9.643  30.357  61.996  1.00  0.00     0.071 C 
HETATM   13  C   UNL     1       8.265  32.132  63.082  1.00  0.00     0.054 A 
HETATM   14  C   UNL     1       7.202  33.003  62.984  1.00  0.00     0.051 A 
HETATM   15  N   UNL     1       6.419  33.064  61.886  1.00  0.00    -0.067 NA
HETATM   16  C   UNL     1       6.861  33.913  64.125  1.00  0.00     0.071 C 
ENDBRANCH   1   9
BRANCH   3  17
HETATM   17  C   UNL     1       4.837  33.587  57.425  1.00  0.00     0.142 C 
BRANCH  17  18
HETATM   18  C   UNL     1       3.492  33.962  58.064  1.00  0.00     0.061 C 
BRANCH  18  19
HETATM   19  C   UNL     1       3.610  34.961  59.176  1.00  0.00    -0.029 A 
HETATM   20  C   UNL     1       3.423  34.718  60.575  1.00  0.00    -0.002 A 
HETATM   21  C   UNL     1       3.632  35.925  61.240  1.00  0.00     0.045 A 
HETATM   22  C   UNL     1       3.089  33.581  61.341  1.00  0.00     0.017 A 
HETATM   23  C   UNL     1       3.544  36.045  62.633  1.00  0.00     0.067 A 
HETATM   24  N   UNL     1       3.898  36.876  60.283  1.00  0.00    -0.365 N 
HETATM   25  C   UNL     1       3.215  34.904  63.373  1.00  0.00     0.070 A 
HETATM   26  C   UNL     1       2.986  33.685  62.735  1.00  0.00     0.038 A 
HETATM   27  H   UNL     1       4.053  37.859  60.471  1.00  0.00     0.165 HD
HETATM   28  C   UNL     1       3.898  36.305  59.039  1.00  0.00     0.096 A 
BRANCH  25  29
HETATM   29  O   UNL     1       3.222  35.084  64.731  1.00  0.00    -0.356 OA
HETATM   30  C   UNL     1       4.121  36.075  65.222  1.00  0.00     0.210 C 
ENDBRANCH  25  29
ENDBRANCH  18  19
ENDBRANCH  17  18
ENDBRANCH   3  17
BRANCH   5  31
HETATM   31  C   UNL     1       7.933  28.837  57.390  1.00  0.00     0.340 C 
BRANCH  31  32
HETATM   32  N   UNL     1       7.440  27.522  56.774  1.00  0.00    -0.060 N 
HETATM   33  H   UNL     1       6.410  27.578  56.781  1.00  0.00     0.280 HD
HETATM   34  C   UNL     1       7.852  27.406  55.308  1.00  0.00     0.255 C 
HETATM   35  C   UNL     1       7.388  26.068  54.698  1.00  0.00     0.150 C 
HETATM   36  N   UNL     1       7.847  24.935  55.536  1.00  0.00    -0.378 N 
HETATM   37  C   UNL     1       7.399  25.007  56.939  1.00  0.00     0.150 C 
HETATM   38  C   UNL     1       7.889  26.319  57.581  1.00  0.00     0.255 C 
BRANCH  36  39
HETATM   39  C   UNL     1       7.806  23.689  54.892  1.00  0.00     0.030 A 
HETATM   40  C   UNL     1       7.909  23.635  53.489  1.00  0.00     0.032 A 
HETATM   41  C   UNL     1       7.903  22.419  52.800  1.00  0.00     0.044 A 
HETATM   42  C   UNL     1       7.798  21.234  53.510  1.00  0.00     0.116 A 
HETATM   43  F   UNL     1       7.795  20.067  52.856  1.00  0.00    -0.206 F 
HETATM   44  C   UNL     1       7.701  21.247  54.893  1.00  0.00     0.044 A 
HETATM   45  C   UNL     1       7.709  22.467  55.579  1.00  0.00     0.032 A 
ENDBRANCH  36  39
ENDBRANCH  31  32
ENDBRANCH   5  31
TORSDOF 8
ENDMDL
MODEL 7
REMARK VINA RESULT:     -10.2      4.105     11.418
REMARK  8 active torsions:
REMARK  status: ('A' for Active; 'I' for Inactive)
REMARK    1  A    between atoms: C_4  and  N_5 
REMARK       I    between atoms: N_5  and  C_6 
REMARK       I    between atoms: C_6  and  N_7 
REMARK    2  A    between atoms: N_7  and  C_8 
REMARK    3  A    between atoms: C_8  and  C_9 
REMARK    4  A    between atoms: C_9  and  C_10 
REMARK    5  A    between atoms: C_14  and  O_15 
REMARK       I    between atoms: N_22  and  C_23 
REMARK    6  A    between atoms: C_23  and  C_24 
REMARK    7  A    between atoms: C_24  and  N_25 
REMARK    8  A    between atoms: N_29  and  C_30 
ROOT
HETATM    1  N   UNL     1       5.928  32.693  59.429  1.00  0.00    -0.017 N 
HETATM    2  C   UNL     1       6.945  31.863  59.793  1.00  0.00     0.718 C 
HETATM    3  N   UNL     1       7.246  31.948  61.130  1.00  0.00    -0.223 N 
HETATM    4  N   UNL     1       7.566  31.113  58.937  1.00  0.00    -0.026 NA
HETATM    5  C   UNL     1       8.594  30.294  59.290  1.00  0.00     0.286 C 
HETATM    6  O   UNL     1       9.122  30.178  60.397  1.00  0.00    -0.269 OA
HETATM    7  H   UNL     1       5.933  33.622  59.817  1.00  0.00     0.203 HD
HETATM    8  H   UNL     1       7.946  31.263  61.422  1.00  0.00     0.177 HD
ENDROOT
BRANCH   1   9
HETATM    9  C   UNL     1       5.283  32.713  58.197  1.00  0.00     0.741 A 
HETATM   10  N   UNL     1       5.413  33.758  57.359  1.00  0.00    -0.067 NA
HETATM   11  C   UNL     1       4.815  33.672  56.152  1.00  0.00     0.051 A 
HETATM   12  C   UNL     1       4.982  34.829  55.216  1.00  0.00     0.071 C 
HETATM   13  C   UNL     1       4.073  32.573  55.773  1.00  0.00     0.054 A 
HETATM   14  C   UNL     1       3.993  31.544  56.686  1.00  0.00     0.051 A 
HETATM   15  N   UNL     1       4.601  31.599  57.890  1.00  0.00    -0.067 NA
HETATM   16  C   UNL     1       3.192  30.315  56.373  1.00  0.00     0.071 C 
ENDBRANCH   1   9
BRANCH   3  17
HETATM   17  C   UNL     1       6.264  32.178  62.193  1.00  0.00     0.142 C 
BRANCH  17  18
HETATM   18  C   UNL     1       6.380  33.569  62.833  1.00  0.00     0.061 C 
BRANCH  18  19
HETATM   19  C   UNL     1       5.368  33.824  63.909  1.00  0.00    -0.029 A 
HETATM   20  C   UNL     1       5.621  33.976  65.310  1.00  0.00    -0.002 A 
HETATM   21  C   UNL     1       4.395  34.199  65.935  1.00  0.00     0.045 A 
HETATM   22  C   UNL     1       6.783  33.939  66.110  1.00  0.00     0.017 A 
HETATM   23  C   UNL     1       4.277  34.408  67.314  1.00  0.00     0.067 A 
HETATM   24  N   UNL     1       3.427  34.147  64.960  1.00  0.00    -0.365 N 
HETATM   25  C   UNL     1       5.442  34.371  68.088  1.00  0.00     0.070 A 
HETATM   26  C   UNL     1       6.682  34.136  67.495  1.00  0.00     0.038 A 
HETATM   27  H   UNL     1       2.432  34.237  65.126  1.00  0.00     0.165 HD
HETATM   28  C   UNL     1       4.001  33.933  63.736  1.00  0.00     0.096 A 
BRANCH  25  29
HETATM   29  O   UNL     1       5.255  34.658  69.415  1.00  0.00    -0.356 OA
HETATM   30  C   UNL     1       6.319  34.285  70.287  1.00  0.00     0.210 C 
ENDBRANCH  25  29
ENDBRANCH  18  19
ENDBRANCH  17  18
ENDBRANCH   3  17
BRANCH   5  31
HETATM   31  C   UNL     1       9.130  29.496  58.100  1.00  0.00     0.340 C 
BRANCH  31  32
HETATM   32  N   UNL     1       8.031  28.761  57.323  1.00  0.00    -0.060 N 
HETATM   33  H   UNL     1       7.178  28.842  57.897  1.00  0.00     0.280 HD
HETATM   34  C   UNL     1       7.723  29.462  56.001  1.00  0.00     0.255 C 
HETATM   35  C   UNL     1       6.644  28.705  55.201  1.00  0.00     0.150 C 
HETATM   36  N   UNL     1       7.026  27.281  55.045  1.00  0.00    -0.378 N 
HETATM   37  C   UNL     1       7.262  26.580  56.320  1.00  0.00     0.150 C 
HETATM   38  C   UNL     1       8.368  27.297  57.117  1.00  0.00     0.255 C 
BRANCH  36  39
HETATM   39  C   UNL     1       6.321  26.603  54.039  1.00  0.00     0.030 A 
HETATM   40  C   UNL     1       6.469  27.011  52.699  1.00  0.00     0.032 A 
HETATM   41  C   UNL     1       5.812  26.353  51.655  1.00  0.00     0.044 A 
HETATM   42  C   UNL     1       4.998  25.269  51.939  1.00  0.00     0.116 A 
HETATM   43  F   UNL     1       4.369  24.632  50.944  1.00  0.00    -0.206 F 
HETATM   44  C   UNL     1       4.832  24.834  53.246  1.00  0.00     0.044 A 
HETATM   45  C   UNL     1       5.493  25.496  54.287  1.00  0.00     0.032 A 
ENDBRANCH  36  39
ENDBRANCH  31  32
ENDBRANCH   5  31
TORSDOF 8
ENDMDL
MODEL 8
REMARK VINA RESULT:     -10.2      4.030     11.133
REMARK  8 active torsions:
REMARK  status: ('A' for Active; 'I' for Inactive)
REMARK    1  A    between atoms: C_4  and  N_5 
REMARK       I    between atoms: N_5  and  C_6 
REMARK       I    between atoms: C_6  and  N_7 
REMARK    2  A    between atoms: N_7  and  C_8 
REMARK    3  A    between atoms: C_8  and  C_9 
REMARK    4  A    between atoms: C_9  and  C_10 
REMARK    5  A    between atoms: C_14  and  O_15 
REMARK       I    between atoms: N_22  and  C_23 
REMARK    6  A    between atoms: C_23  and  C_24 
REMARK    7  A    between atoms: C_24  and  N_25 
REMARK    8  A    between atoms: N_29  and  C_30 
ROOT
HETATM    1  N   UNL     1       5.216  33.040  58.387  1.00  0.00    -0.017 N 
HETATM    2  C   UNL     1       6.081  32.040  58.716  1.00  0.00     0.718 C 
HETATM    3  N   UNL     1       6.165  31.835  60.071  1.00  0.00    -0.223 N 
HETATM    4  N   UNL     1       6.764  31.395  57.823  1.00  0.00    -0.026 NA
HETATM    5  C   UNL     1       7.643  30.406  58.144  1.00  0.00     0.286 C 
HETATM    6  O   UNL     1       7.969  30.021  59.267  1.00  0.00    -0.269 OA
HETATM    7  H   UNL     1       5.241  33.872  58.954  1.00  0.00     0.203 HD
HETATM    8  H   UNL     1       6.743  31.028  60.313  1.00  0.00     0.177 HD
ENDROOT
BRANCH   1   9
HETATM    9  C   UNL     1       4.787  33.370  57.106  1.00  0.00     0.741 A 
HETATM   10  N   UNL     1       3.808  32.675  56.498  1.00  0.00    -0.067 NA
HETATM   11  C   UNL     1       3.398  33.101  55.286  1.00  0.00     0.051 A 
HETATM   12  C   UNL     1       2.292  32.336  54.624  1.00  0.00     0.071 C 
HETATM   13  C   UNL     1       3.958  34.194  54.659  1.00  0.00     0.054 A 
HETATM   14  C   UNL     1       4.951  34.853  55.350  1.00  0.00     0.051 A 
HETATM   15  N   UNL     1       5.362  34.459  56.573  1.00  0.00    -0.067 NA
HETATM   16  C   UNL     1       5.636  36.041  54.742  1.00  0.00     0.071 C 
ENDBRANCH   1   9
BRANCH   3  17
HETATM   17  C   UNL     1       5.047  31.978  61.007  1.00  0.00     0.142 C 
BRANCH  17  18
HETATM   18  C   UNL     1       4.681  33.441  61.293  1.00  0.00     0.061 C 
BRANCH  18  19
HETATM   19  C   UNL     1       4.316  33.703  62.724  1.00  0.00    -0.029 A 
HETATM   20  C   UNL     1       5.207  33.750  63.844  1.00  0.00    -0.002 A 
HETATM   21  C   UNL     1       4.440  34.023  64.976  1.00  0.00     0.045 A 
HETATM   22  C   UNL     1       6.599  33.582  64.003  1.00  0.00     0.017 A 
HETATM   23  C   UNL     1       5.000  34.156  66.253  1.00  0.00     0.067 A 
HETATM   24  N   UNL     1       3.129  34.100  64.570  1.00  0.00    -0.365 N 
HETATM   25  C   UNL     1       6.382  33.988  66.387  1.00  0.00     0.070 A 
HETATM   26  C   UNL     1       7.174  33.701  65.276  1.00  0.00     0.038 A 
HETATM   27  H   UNL     1       2.340  34.252  65.186  1.00  0.00     0.165 HD
HETATM   28  C   UNL     1       3.044  33.920  63.216  1.00  0.00     0.096 A 
BRANCH  25  29
HETATM   29  O   UNL     1       6.863  34.207  67.652  1.00  0.00    -0.356 OA
HETATM   30  C   UNL     1       5.880  34.337  68.676  1.00  0.00     0.210 C 
ENDBRANCH  25  29
ENDBRANCH  18  19
ENDBRANCH  17  18
ENDBRANCH   3  17
BRANCH   5  31
HETATM   31  C   UNL     1       8.292  29.788  56.904  1.00  0.00     0.340 C 
BRANCH  31  32
HETATM   32  N   UNL     1       7.739  28.399  56.564  1.00  0.00    -0.060 N 
HETATM   33  H   UNL     1       6.758  28.400  56.882  1.00  0.00     0.280 HD
HETATM   34  C   UNL     1       7.697  28.173  55.054  1.00  0.00     0.255 C 
HETATM   35  C   UNL     1       7.176  26.763  54.710  1.00  0.00     0.150 C 
HETATM   36  N   UNL     1       7.954  25.736  55.443  1.00  0.00    -0.378 N 
HETATM   37  C   UNL     1       7.946  25.910  56.907  1.00  0.00     0.150 C 
HETATM   38  C   UNL     1       8.503  27.298  57.275  1.00  0.00     0.255 C 
BRANCH  36  39
HETATM   39  C   UNL     1       7.817  24.437  54.931  1.00  0.00     0.030 A 
HETATM   40  C   UNL     1       7.811  24.243  53.537  1.00  0.00     0.032 A 
HETATM   41  C   UNL     1       7.707  22.968  52.974  1.00  0.00     0.044 A 
HETATM   42  C   UNL     1       7.611  21.863  53.804  1.00  0.00     0.116 A 
HETATM   43  F   UNL     1       7.515  20.639  53.272  1.00  0.00    -0.206 F 
HETATM   44  C   UNL     1       7.621  22.013  55.183  1.00  0.00     0.044 A 
HETATM   45  C   UNL     1       7.727  23.292  55.741  1.00  0.00     0.032 A 
ENDBRANCH  36  39
ENDBRANCH  31  32
ENDBRANCH   5  31
TORSDOF 8
ENDMDL
MODEL 9
REMARK VINA RESULT:     -10.1      4.191     11.356
REMARK  8 active torsions:
REMARK  status: ('A' for Active; 'I' for Inactive)
REMARK    1  A    between atoms: C_4  and  N_5 
REMARK       I    between atoms: N_5  and  C_6 
REMARK       I    between atoms: C_6  and  N_7 
REMARK    2  A    between atoms: N_7  and  C_8 
REMARK    3  A    between atoms: C_8  and  C_9 
REMARK    4  A    between atoms: C_9  and  C_10 
REMARK    5  A    between atoms: C_14  and  O_15 
REMARK       I    between atoms: N_22  and  C_23 
REMARK    6  A    between atoms: C_23  and  C_24 
REMARK    7  A    between atoms: C_24  and  N_25 
REMARK    8  A    between atoms: N_29  and  C_30 
ROOT
HETATM    1  N   UNL     1       5.658  32.985  60.469  1.00  0.00    -0.017 N 
HETATM    2  C   UNL     1       5.710  32.458  59.214  1.00  0.00     0.718 C 
HETATM    3  N   UNL     1       4.777  33.007  58.369  1.00  0.00    -0.223 N 
HETATM    4  N   UNL     1       6.539  31.514  58.895  1.00  0.00    -0.026 NA
HETATM    5  C   UNL     1       6.586  30.969  57.648  1.00  0.00     0.286 C 
HETATM    6  O   UNL     1       5.854  31.216  56.687  1.00  0.00    -0.269 OA
HETATM    7  H   UNL     1       4.744  33.136  60.865  1.00  0.00     0.203 HD
HETATM    8  H   UNL     1       4.875  32.677  57.406  1.00  0.00     0.177 HD
ENDROOT
BRANCH   1   9
HETATM    9  C   UNL     1       6.572  32.765  61.493  1.00  0.00     0.741 A 
HETATM   10  N   UNL     1       6.507  33.455  62.647  1.00  0.00    -0.067 NA
HETATM   11  C   UNL     1       7.384  33.133  63.620  1.00  0.00     0.051 A 
HETATM   12  C   UNL     1       7.291  33.890  64.910  1.00  0.00     0.071 C 
HETATM   13  C   UNL     1       8.339  32.152  63.457  1.00  0.00     0.054 A 
HETATM   14  C   UNL     1       8.336  31.489  62.250  1.00  0.00     0.051 A 
HETATM   15  N   UNL     1       7.454  31.779  61.270  1.00  0.00    -0.067 NA
HETATM   16  C   UNL     1       9.350  30.420  61.970  1.00  0.00     0.071 C 
ENDBRANCH   1   9
BRANCH   3  17
HETATM   17  C   UNL     1       4.342  34.405  58.402  1.00  0.00     0.142 C 
BRANCH  17  18
HETATM   18  C   UNL     1       2.946  34.590  59.013  1.00  0.00     0.061 C 
BRANCH  18  19
HETATM   19  C   UNL     1       2.880  34.262  60.475  1.00  0.00    -0.029 A 
HETATM   20  C   UNL     1       3.400  35.043  61.556  1.00  0.00    -0.002 A 
HETATM   21  C   UNL     1       3.113  34.363  62.739  1.00  0.00     0.045 A 
HETATM   22  C   UNL     1       4.094  36.268  61.641  1.00  0.00     0.017 A 
HETATM   23  C   UNL     1       3.468  34.857  64.000  1.00  0.00     0.067 A 
HETATM   24  N   UNL     1       2.478  33.193  62.391  1.00  0.00    -0.365 N 
HETATM   25  C   UNL     1       4.153  36.075  64.061  1.00  0.00     0.070 A 
HETATM   26  C   UNL     1       4.467  36.773  62.895  1.00  0.00     0.038 A 
HETATM   27  H   UNL     1       2.184  32.478  63.045  1.00  0.00     0.165 HD
HETATM   28  C   UNL     1       2.323  33.127  61.033  1.00  0.00     0.096 A 
BRANCH  25  29
HETATM   29  O   UNL     1       4.399  36.528  65.331  1.00  0.00    -0.356 OA
HETATM   30  C   UNL     1       3.749  35.817  66.381  1.00  0.00     0.210 C 
ENDBRANCH  25  29
ENDBRANCH  18  19
ENDBRANCH  17  18
ENDBRANCH   3  17
BRANCH   5  31
HETATM   31  C   UNL     1       7.671  29.898  57.527  1.00  0.00     0.340 C 
BRANCH  31  32
HETATM   32  N   UNL     1       7.201  28.646  56.778  1.00  0.00    -0.060 N 
HETATM   33  H   UNL     1       6.195  28.785  56.600  1.00  0.00     0.280 HD
HETATM   34  C   UNL     1       7.865  28.537  55.407  1.00  0.00     0.255 C 
HETATM   35  C   UNL     1       7.422  27.259  54.666  1.00  0.00     0.150 C 
HETATM   36  N   UNL     1       7.634  26.069  55.526  1.00  0.00    -0.378 N 
HETATM   37  C   UNL     1       6.942  26.138  56.826  1.00  0.00     0.150 C 
HETATM   38  C   UNL     1       7.403  27.388  57.601  1.00  0.00     0.255 C 
BRANCH  36  39
HETATM   39  C   UNL     1       7.618  24.849  54.833  1.00  0.00     0.030 A 
HETATM   40  C   UNL     1       7.781  24.849  53.434  1.00  0.00     0.032 A 
HETATM   41  C   UNL     1       7.803  23.661  52.699  1.00  0.00     0.044 A 
HETATM   42  C   UNL     1       7.664  22.450  53.358  1.00  0.00     0.116 A 
HETATM   43  F   UNL     1       7.688  21.308  52.659  1.00  0.00    -0.206 F 
HETATM   44  C   UNL     1       7.508  22.409  54.735  1.00  0.00     0.044 A 
HETATM   45  C   UNL     1       7.489  23.602  55.467  1.00  0.00     0.032 A 
ENDBRANCH  36  39
ENDBRANCH  31  32
ENDBRANCH   5  31
TORSDOF 8
ENDMDL
MODEL 10
REMARK VINA RESULT:     -10.1      4.020     10.761
REMARK  8 active torsions:
REMARK  status: ('A' for Active; 'I' for Inactive)
REMARK    1  A    between atoms: C_4  and  N_5 
REMARK       I    between atoms: N_5  and  C_6 
REMARK       I    between atoms: C_6  and  N_7 
REMARK    2  A    between atoms: N_7  and  C_8 
REMARK    3  A    between atoms: C_8  and  C_9 
REMARK    4  A    between atoms: C_9  and  C_10 
REMARK    5  A    between atoms: C_14  and  O_15 
REMARK       I    between atoms: N_22  and  C_23 
REMARK    6  A    between atoms: C_23  and  C_24 
REMARK    7  A    between atoms: C_24  and  N_25 
REMARK    8  A    between atoms: N_29  and  C_30 
ROOT
HETATM    1  N   UNL     1       5.555  31.372  57.928  1.00  0.00    -0.017 N 
HETATM    2  C   UNL     1       4.714  31.447  56.858  1.00  0.00     0.718 C 
HETATM    3  N   UNL     1       3.714  32.372  57.035  1.00  0.00    -0.223 N 
HETATM    4  N   UNL     1       4.850  30.687  55.817  1.00  0.00    -0.026 NA
HETATM    5  C   UNL     1       4.004  30.744  54.752  1.00  0.00     0.286 C 
HETATM    6  O   UNL     1       2.992  31.435  54.627  1.00  0.00    -0.269 OA
HETATM    7  H   UNL     1       5.136  31.393  58.843  1.00  0.00     0.203 HD
HETATM    8  H   UNL     1       3.137  32.493  56.199  1.00  0.00     0.177 HD
ENDROOT
BRANCH   1   9
HETATM    9  C   UNL     1       6.751  30.665  57.986  1.00  0.00     0.741 A 
HETATM   10  N   UNL     1       6.797  29.348  57.714  1.00  0.00    -0.067 NA
HETATM   11  C   UNL     1       8.006  28.749  57.722  1.00  0.00     0.051 A 
HETATM   12  C   UNL     1       8.053  27.287  57.396  1.00  0.00     0.071 C 
HETATM   13  C   UNL     1       9.167  29.432  58.016  1.00  0.00     0.054 A 
HETATM   14  C   UNL     1       9.035  30.778  58.279  1.00  0.00     0.051 A 
HETATM   15  N   UNL     1       7.839  31.404  58.255  1.00  0.00    -0.067 NA
HETATM   16  C   UNL     1      10.237  31.603  58.630  1.00  0.00     0.071 C 
ENDBRANCH   1   9
BRANCH   3  17
HETATM   17  C   UNL     1       3.866  33.638  57.754  1.00  0.00     0.142 C 
BRANCH  17  18
HETATM   18  C   UNL     1       3.115  33.667  59.092  1.00  0.00     0.061 C 
BRANCH  18  19
HETATM   19  C   UNL     1       3.862  34.367  60.188  1.00  0.00    -0.029 A 
HETATM   20  C   UNL     1       4.734  33.768  61.154  1.00  0.00    -0.002 A 
HETATM   21  C   UNL     1       5.210  34.788  61.976  1.00  0.00     0.045 A 
HETATM   22  C   UNL     1       5.161  32.448  61.409  1.00  0.00     0.017 A 
HETATM   23  C   UNL     1       6.107  34.555  63.026  1.00  0.00     0.067 A 
HETATM   24  N   UNL     1       4.621  35.958  61.555  1.00  0.00    -0.365 N 
HETATM   25  C   UNL     1       6.520  33.239  63.260  1.00  0.00     0.070 A 
HETATM   26  C   UNL     1       6.051  32.195  62.463  1.00  0.00     0.038 A 
HETATM   27  H   UNL     1       4.752  36.861  61.993  1.00  0.00     0.165 HD
HETATM   28  C   UNL     1       3.817  35.718  60.474  1.00  0.00     0.096 A 
BRANCH  25  29
HETATM   29  O   UNL     1       7.454  33.102  64.254  1.00  0.00    -0.356 OA
HETATM   30  C   UNL     1       7.119  33.697  65.505  1.00  0.00     0.210 C 
ENDBRANCH  25  29
ENDBRANCH  18  19
ENDBRANCH  17  18
ENDBRANCH   3  17
BRANCH   5  31
HETATM   31  C   UNL     1       4.404  29.766  53.646  1.00  0.00     0.340 C 
BRANCH  31  32
HETATM   32  N   UNL     1       5.331  28.648  54.136  1.00  0.00    -0.060 N 
HETATM   33  H   UNL     1       5.705  28.969  55.042  1.00  0.00     0.280 HD
HETATM   34  C   UNL     1       4.551  27.367  54.426  1.00  0.00     0.255 C 
HETATM   35  C   UNL     1       5.487  26.230  54.884  1.00  0.00     0.150 C 
HETATM   36  N   UNL     1       6.589  26.048  53.908  1.00  0.00    -0.378 N 
HETATM   37  C   UNL     1       7.387  27.264  53.671  1.00  0.00     0.150 C 
HETATM   38  C   UNL     1       6.476  28.402  53.172  1.00  0.00     0.255 C 
BRANCH  36  39
HETATM   39  C   UNL     1       7.266  24.825  54.027  1.00  0.00     0.030 A 
HETATM   40  C   UNL     1       7.328  23.960  52.918  1.00  0.00     0.032 A 
HETATM   41  C   UNL     1       8.014  22.744  52.973  1.00  0.00     0.044 A 
HETATM   42  C   UNL     1       8.655  22.377  54.145  1.00  0.00     0.116 A 
HETATM   43  F   UNL     1       9.317  21.215  54.203  1.00  0.00    -0.206 F 
HETATM   44  C   UNL     1       8.622  23.205  55.257  1.00  0.00     0.044 A 
HETATM   45  C   UNL     1       7.934  24.422  55.196  1.00  0.00     0.032 A 
ENDBRANCH  36  39
ENDBRANCH  31  32
ENDBRANCH   5  31
TORSDOF 8
ENDMDL
