MODEL 1
REMARK VINA RESULT:      -8.0      0.000      0.000
REMARK  7 active torsions:
REMARK  status: ('A' for Active; 'I' for Inactive)
REMARK    1  A    between atoms: O_2  and  C_3 
REMARK    2  A    between atoms: C_4  and  C_5 
REMARK    3  A    between atoms: C_6  and  C_7 
REMARK       I    between atoms: C_7  and  N_8 
REMARK    4  A    between atoms: N_8  and  C_9 
REMARK    5  A    between atoms: C_9  and  C_10 
REMARK    6  A    between atoms: C_10  and  N_11 
REMARK    7  A    between atoms: C_10  and  C_18 
ROOT
HETATM    1  C   UNL     1       8.040  27.026  57.070  1.00  0.00     0.241 C 
HETATM    2  N   UNL     1       7.755  26.059  56.135  1.00  0.00    -0.355 N 
HETATM    3  O   UNL     1       7.858  26.864  58.266  1.00  0.00    -0.269 OA
HETATM    4  H   UNL     1       7.842  26.309  55.154  1.00  0.00     0.162 HD
ENDROOT
BRANCH   2   5
HETATM    5  C   UNL     1       6.933  24.909  56.491  1.00  0.00     0.163 C 
BRANCH   5   6
HETATM    6  C   UNL     1       6.605  23.915  55.348  1.00  0.00     0.262 C 
BRANCH   6   7
HETATM    7  N   UNL     1       7.282  22.546  55.479  1.00  0.00    -0.059 N 
HETATM    8  H   UNL     1       6.488  21.952  55.762  1.00  0.00     0.280 HD
HETATM    9  C   UNL     1       7.793  21.919  54.206  1.00  0.00     0.236 C 
HETATM   10  C   UNL     1       8.062  20.441  54.470  1.00  0.00     0.028 C 
HETATM   11  C   UNL     1       9.050  20.252  55.618  1.00  0.00     0.003 C 
HETATM   12  C   UNL     1       8.612  21.008  56.870  1.00  0.00     0.028 C 
HETATM   13  C   UNL     1       8.311  22.473  56.576  1.00  0.00     0.236 C 
ENDBRANCH   6   7
BRANCH   6  14
HETATM   14  C   UNL     1       6.799  24.501  53.979  1.00  0.00     0.085 A 
HETATM   15  O   UNL     1       8.089  24.825  53.650  1.00  0.00    -0.325 OA
HETATM   16  C   UNL     1       8.068  25.315  52.384  1.00  0.00     0.142 A 
HETATM   17  C   UNL     1       6.788  25.300  51.885  1.00  0.00     0.027 A 
HETATM   18  C   UNL     1       5.968  24.765  52.908  1.00  0.00     0.037 A 
ENDBRANCH   6  14
ENDBRANCH   5   6
ENDBRANCH   2   5
BRANCH   1  19
HETATM   19  C   UNL     1       8.633  28.244  56.472  1.00  0.00     0.075 C 
HETATM   20  C   UNL     1       7.922  29.324  56.117  1.00  0.00     0.020 C 
BRANCH  20  21
HETATM   21  C   UNL     1       6.462  29.453  56.199  1.00  0.00    -0.001 A 
HETATM   22  C   UNL     1       5.623  28.810  55.277  1.00  0.00     0.078 A 
HETATM   23  C   UNL     1       4.236  28.974  55.342  1.00  0.00     0.039 A 
HETATM   24  C   UNL     1       3.673  29.744  56.361  1.00  0.00     0.022 A 
HETATM   25  C   UNL     1       4.502  30.355  57.301  1.00  0.00     0.012 A 
HETATM   26  C   UNL     1       5.888  30.214  57.228  1.00  0.00     0.033 A 
HETATM   27 BR   UNL     1       3.743  31.398  58.683  1.00  0.00    -0.051 Br
BRANCH  22  28
HETATM   28  O   UNL     1       6.167  28.085  54.247  1.00  0.00    -0.355 OA
HETATM   29  C   UNL     1       5.674  28.552  52.991  1.00  0.00     0.210 C 
ENDBRANCH  22  28
ENDBRANCH  20  21
ENDBRANCH   1  19
TORSDOF 7
ENDMDL
MODEL 2
REMARK VINA RESULT:      -7.9      2.112      3.166
REMARK  7 active torsions:
REMARK  status: ('A' for Active; 'I' for Inactive)
REMARK    1  A    between atoms: O_2  and  C_3 
REMARK    2  A    between atoms: C_4  and  C_5 
REMARK    3  A    between atoms: C_6  and  C_7 
REMARK       I    between atoms: C_7  and  N_8 
REMARK    4  A    between atoms: N_8  and  C_9 
REMARK    5  A    between atoms: C_9  and  C_10 
REMARK    6  A    between atoms: C_10  and  N_11 
REMARK    7  A    between atoms: C_10  and  C_18 
ROOT
HETATM    1  C   UNL     1       6.925  26.908  57.268  1.00  0.00     0.241 C 
HETATM    2  N   UNL     1       7.075  26.327  56.032  1.00  0.00    -0.355 N 
HETATM    3  O   UNL     1       7.556  26.548  58.250  1.00  0.00    -0.269 OA
HETATM    4  H   UNL     1       6.442  26.617  55.292  1.00  0.00     0.162 HD
ENDROOT
BRANCH   2   5
HETATM    5  C   UNL     1       7.765  25.050  55.896  1.00  0.00     0.163 C 
BRANCH   5   6
HETATM    6  C   UNL     1       7.118  24.014  54.942  1.00  0.00     0.262 C 
BRANCH   6   7
HETATM    7  N   UNL     1       7.909  22.711  54.784  1.00  0.00    -0.059 N 
HETATM    8  H   UNL     1       8.870  23.067  54.673  1.00  0.00     0.280 HD
HETATM    9  C   UNL     1       7.973  21.807  55.990  1.00  0.00     0.236 C 
HETATM   10  C   UNL     1       9.094  20.795  55.776  1.00  0.00     0.028 C 
HETATM   11  C   UNL     1       8.884  19.995  54.493  1.00  0.00     0.003 C 
HETATM   12  C   UNL     1       8.670  20.907  53.288  1.00  0.00     0.028 C 
HETATM   13  C   UNL     1       7.573  21.936  53.537  1.00  0.00     0.236 C 
ENDBRANCH   6   7
BRANCH   6  14
HETATM   14  C   UNL     1       6.733  24.593  53.611  1.00  0.00     0.085 A 
HETATM   15  O   UNL     1       5.389  24.629  53.345  1.00  0.00    -0.325 OA
HETATM   16  C   UNL     1       5.239  25.196  52.121  1.00  0.00     0.142 A 
HETATM   17  C   UNL     1       6.462  25.537  51.597  1.00  0.00     0.027 A 
HETATM   18  C   UNL     1       7.428  25.160  52.561  1.00  0.00     0.037 A 
ENDBRANCH   6  14
ENDBRANCH   5   6
ENDBRANCH   2   5
BRANCH   1  19
HETATM   19  C   UNL     1       5.966  28.036  57.259  1.00  0.00     0.075 C 
HETATM   20  C   UNL     1       6.313  29.313  57.480  1.00  0.00     0.020 C 
BRANCH  20  21
HETATM   21  C   UNL     1       7.658  29.787  57.826  1.00  0.00    -0.001 A 
HETATM   22  C   UNL     1       8.723  29.679  56.919  1.00  0.00     0.078 A 
HETATM   23  C   UNL     1      10.007  30.096  57.276  1.00  0.00     0.039 A 
HETATM   24  C   UNL     1      10.229  30.672  58.528  1.00  0.00     0.022 A 
HETATM   25  C   UNL     1       9.167  30.814  59.419  1.00  0.00     0.012 A 
HETATM   26  C   UNL     1       7.886  30.378  59.077  1.00  0.00     0.033 A 
HETATM   27 BR   UNL     1       9.463  31.594  61.116  1.00  0.00    -0.051 Br
BRANCH  22  28
HETATM   28  O   UNL     1       8.525  29.077  55.702  1.00  0.00    -0.355 OA
HETATM   29  C   UNL     1       9.673  29.244  54.869  1.00  0.00     0.210 C 
ENDBRANCH  22  28
ENDBRANCH  20  21
ENDBRANCH   1  19
TORSDOF 7
ENDMDL
MODEL 3
REMARK VINA RESULT:      -7.9      1.581      2.407
REMARK  7 active torsions:
REMARK  status: ('A' for Active; 'I' for Inactive)
REMARK    1  A    between atoms: O_2  and  C_3 
REMARK    2  A    between atoms: C_4  and  C_5 
REMARK    3  A    between atoms: C_6  and  C_7 
REMARK       I    between atoms: C_7  and  N_8 
REMARK    4  A    between atoms: N_8  and  C_9 
REMARK    5  A    between atoms: C_9  and  C_10 
REMARK    6  A    between atoms: C_10  and  N_11 
REMARK    7  A    between atoms: C_10  and  C_18 
ROOT
HETATM    1  C   UNL     1       8.110  26.683  57.176  1.00  0.00     0.241 C 
HETATM    2  N   UNL     1       8.089  25.657  56.260  1.00  0.00    -0.355 N 
HETATM    3  O   UNL     1       7.632  26.581  58.295  1.00  0.00    -0.269 OA
HETATM    4  H   UNL     1       8.418  25.855  55.320  1.00  0.00     0.162 HD
ENDROOT
BRANCH   2   5
HETATM    5  C   UNL     1       7.221  24.504  56.466  1.00  0.00     0.163 C 
BRANCH   5   6
HETATM    6  C   UNL     1       6.926  23.632  55.219  1.00  0.00     0.262 C 
BRANCH   6   7
HETATM    7  N   UNL     1       7.824  22.397  55.078  1.00  0.00    -0.059 N 
HETATM    8  H   UNL     1       8.761  22.827  55.063  1.00  0.00     0.280 HD
HETATM    9  C   UNL     1       7.858  21.446  56.248  1.00  0.00     0.236 C 
HETATM   10  C   UNL     1       9.066  20.529  56.090  1.00  0.00     0.028 C 
HETATM   11  C   UNL     1       9.022  19.775  54.763  1.00  0.00     0.003 C 
HETATM   12  C   UNL     1       8.838  20.723  53.582  1.00  0.00     0.028 C 
HETATM   13  C   UNL     1       7.650  21.658  53.777  1.00  0.00     0.236 C 
ENDBRANCH   6   7
BRANCH   6  14
HETATM   14  C   UNL     1       6.865  24.421  53.943  1.00  0.00     0.085 A 
HETATM   15  O   UNL     1       8.069  24.862  53.460  1.00  0.00    -0.325 OA
HETATM   16  C   UNL     1       7.815  25.530  52.305  1.00  0.00     0.142 A 
HETATM   17  C   UNL     1       6.469  25.517  52.030  1.00  0.00     0.027 A 
HETATM   18  C   UNL     1       5.854  24.792  53.078  1.00  0.00     0.037 A 
ENDBRANCH   6  14
ENDBRANCH   5   6
ENDBRANCH   2   5
BRANCH   1  19
HETATM   19  C   UNL     1       8.817  27.883  56.674  1.00  0.00     0.075 C 
HETATM   20  C   UNL     1       8.195  28.980  56.217  1.00  0.00     0.020 C 
BRANCH  20  21
HETATM   21  C   UNL     1       6.744  29.145  56.078  1.00  0.00    -0.001 A 
HETATM   22  C   UNL     1       5.988  29.799  57.063  1.00  0.00     0.078 A 
HETATM   23  C   UNL     1       4.601  29.913  56.937  1.00  0.00     0.039 A 
HETATM   24  C   UNL     1       3.962  29.417  55.801  1.00  0.00     0.022 A 
HETATM   25  C   UNL     1       4.713  28.798  54.803  1.00  0.00     0.012 A 
HETATM   26  C   UNL     1       6.095  28.660  54.933  1.00  0.00     0.033 A 
HETATM   27 BR   UNL     1       3.850  28.124  53.261  1.00  0.00    -0.051 Br
BRANCH  22  28
HETATM   28  O   UNL     1       6.601  30.254  58.203  1.00  0.00    -0.355 OA
HETATM   29  C   UNL     1       6.222  31.605  58.470  1.00  0.00     0.210 C 
ENDBRANCH  22  28
ENDBRANCH  20  21
ENDBRANCH   1  19
TORSDOF 7
ENDMDL
MODEL 4
REMARK VINA RESULT:      -7.7      2.819      7.664
REMARK  7 active torsions:
REMARK  status: ('A' for Active; 'I' for Inactive)
REMARK    1  A    between atoms: O_2  and  C_3 
REMARK    2  A    between atoms: C_4  and  C_5 
REMARK    3  A    between atoms: C_6  and  C_7 
REMARK       I    between atoms: C_7  and  N_8 
REMARK    4  A    between atoms: N_8  and  C_9 
REMARK    5  A    between atoms: C_9  and  C_10 
REMARK    6  A    between atoms: C_10  and  N_11 
REMARK    7  A    between atoms: C_10  and  C_18 
ROOT
HETATM    1  C   UNL     1       7.423  25.583  57.285  1.00  0.00     0.241 C 
HETATM    2  N   UNL     1       7.692  26.884  56.930  1.00  0.00    -0.355 N 
HETATM    3  O   UNL     1       6.289  25.132  57.334  1.00  0.00    -0.269 OA
HETATM    4  H   UNL     1       8.652  27.207  57.010  1.00  0.00     0.162 HD
ENDROOT
BRANCH   2   5
HETATM    5  C   UNL     1       6.624  27.876  56.898  1.00  0.00     0.163 C 
BRANCH   5   6
HETATM    6  C   UNL     1       6.986  29.296  57.400  1.00  0.00     0.262 C 
BRANCH   6   7
HETATM    7  N   UNL     1       6.105  30.416  56.833  1.00  0.00    -0.059 N 
HETATM    8  H   UNL     1       6.770  30.907  56.217  1.00  0.00     0.280 HD
HETATM    9  C   UNL     1       4.977  29.997  55.924  1.00  0.00     0.236 C 
HETATM   10  C   UNL     1       4.483  31.226  55.169  1.00  0.00     0.028 C 
HETATM   11  C   UNL     1       4.041  32.328  56.129  1.00  0.00     0.003 C 
HETATM   12  C   UNL     1       5.128  32.655  57.150  1.00  0.00     0.028 C 
HETATM   13  C   UNL     1       5.636  31.409  57.865  1.00  0.00     0.236 C 
ENDBRANCH   6   7
BRANCH   6  14
HETATM   14  C   UNL     1       8.446  29.619  57.266  1.00  0.00     0.085 A 
HETATM   15  O   UNL     1       8.987  29.418  56.024  1.00  0.00    -0.325 OA
HETATM   16  C   UNL     1      10.294  29.779  56.094  1.00  0.00     0.142 A 
HETATM   17  C   UNL     1      10.602  30.221  57.358  1.00  0.00     0.027 A 
HETATM   18  C   UNL     1       9.409  30.130  58.114  1.00  0.00     0.037 A 
ENDBRANCH   6  14
ENDBRANCH   5   6
ENDBRANCH   2   5
BRANCH   1  19
HETATM   19  C   UNL     1       8.649  24.794  57.541  1.00  0.00     0.075 C 
HETATM   20  C   UNL     1       9.164  23.911  56.672  1.00  0.00     0.020 C 
BRANCH  20  21
HETATM   21  C   UNL     1       8.576  23.540  55.380  1.00  0.00    -0.001 A 
HETATM   22  C   UNL     1       8.447  22.197  54.999  1.00  0.00     0.078 A 
HETATM   23  C   UNL     1       7.923  21.858  53.748  1.00  0.00     0.039 A 
HETATM   24  C   UNL     1       7.477  22.861  52.886  1.00  0.00     0.022 A 
HETATM   25  C   UNL     1       7.571  24.196  53.275  1.00  0.00     0.012 A 
HETATM   26  C   UNL     1       8.114  24.541  54.513  1.00  0.00     0.033 A 
HETATM   27 BR   UNL     1       6.968  25.558  52.110  1.00  0.00    -0.051 Br
BRANCH  22  28
HETATM   28  O   UNL     1       8.919  21.205  55.821  1.00  0.00    -0.355 OA
HETATM   29  C   UNL     1       7.852  20.354  56.243  1.00  0.00     0.210 C 
ENDBRANCH  22  28
ENDBRANCH  20  21
ENDBRANCH   1  19
TORSDOF 7
ENDMDL
MODEL 5
REMARK VINA RESULT:      -7.7      2.248      4.293
REMARK  7 active torsions:
REMARK  status: ('A' for Active; 'I' for Inactive)
REMARK    1  A    between atoms: O_2  and  C_3 
REMARK    2  A    between atoms: C_4  and  C_5 
REMARK    3  A    between atoms: C_6  and  C_7 
REMARK       I    between atoms: C_7  and  N_8 
REMARK    4  A    between atoms: N_8  and  C_9 
REMARK    5  A    between atoms: C_9  and  C_10 
REMARK    6  A    between atoms: C_10  and  N_11 
REMARK    7  A    between atoms: C_10  and  C_18 
ROOT
HETATM    1  C   UNL     1       7.109  26.675  57.358  1.00  0.00     0.241 C 
HETATM    2  N   UNL     1       7.404  26.164  56.116  1.00  0.00    -0.355 N 
HETATM    3  O   UNL     1       7.676  26.309  58.376  1.00  0.00    -0.269 OA
HETATM    4  H   UNL     1       6.820  26.449  55.336  1.00  0.00     0.162 HD
ENDROOT
BRANCH   2   5
HETATM    5  C   UNL     1       8.185  24.939  55.990  1.00  0.00     0.163 C 
BRANCH   5   6
HETATM    6  C   UNL     1       8.167  24.249  54.603  1.00  0.00     0.262 C 
BRANCH   6   7
HETATM    7  N   UNL     1       7.146  24.827  53.616  1.00  0.00    -0.059 N 
HETATM    8  H   UNL     1       7.119  25.816  53.907  1.00  0.00     0.280 HD
HETATM    9  C   UNL     1       7.553  24.866  52.164  1.00  0.00     0.236 C 
HETATM   10  C   UNL     1       6.609  25.805  51.423  1.00  0.00     0.028 C 
HETATM   11  C   UNL     1       5.154  25.370  51.580  1.00  0.00     0.003 C 
HETATM   12  C   UNL     1       4.776  25.185  53.047  1.00  0.00     0.028 C 
HETATM   13  C   UNL     1       5.754  24.274  53.779  1.00  0.00     0.236 C 
ENDBRANCH   6   7
BRANCH   6  14
HETATM   14  C   UNL     1       8.071  22.753  54.685  1.00  0.00     0.085 A 
HETATM   15  O   UNL     1       7.834  22.241  55.934  1.00  0.00    -0.325 OA
HETATM   16  C   UNL     1       7.762  20.891  55.805  1.00  0.00     0.142 A 
HETATM   17  C   UNL     1       7.935  20.524  54.493  1.00  0.00     0.027 A 
HETATM   18  C   UNL     1       8.124  21.724  53.765  1.00  0.00     0.037 A 
ENDBRANCH   6  14
ENDBRANCH   5   6
ENDBRANCH   2   5
BRANCH   1  19
HETATM   19  C   UNL     1       6.084  27.742  57.309  1.00  0.00     0.075 C 
HETATM   20  C   UNL     1       6.353  29.045  57.473  1.00  0.00     0.020 C 
BRANCH  20  21
HETATM   21  C   UNL     1       7.669  29.614  57.787  1.00  0.00    -0.001 A 
HETATM   22  C   UNL     1       8.697  29.638  56.834  1.00  0.00     0.078 A 
HETATM   23  C   UNL     1       9.958  30.146  57.158  1.00  0.00     0.039 A 
HETATM   24  C   UNL     1      10.187  30.680  58.427  1.00  0.00     0.022 A 
HETATM   25  C   UNL     1       9.158  30.691  59.366  1.00  0.00     0.012 A 
HETATM   26  C   UNL     1       7.903  30.164  59.056  1.00  0.00     0.033 A 
HETATM   27 BR   UNL     1       9.464  31.414  61.086  1.00  0.00    -0.051 Br
BRANCH  22  28
HETATM   28  O   UNL     1       8.495  29.079  55.597  1.00  0.00    -0.355 OA
HETATM   29  C   UNL     1       9.688  29.148  54.815  1.00  0.00     0.210 C 
ENDBRANCH  22  28
ENDBRANCH  20  21
ENDBRANCH   1  19
TORSDOF 7
ENDMDL
MODEL 6
REMARK VINA RESULT:      -7.7      2.752      7.029
REMARK  7 active torsions:
REMARK  status: ('A' for Active; 'I' for Inactive)
REMARK    1  A    between atoms: O_2  and  C_3 
REMARK    2  A    between atoms: C_4  and  C_5 
REMARK    3  A    between atoms: C_6  and  C_7 
REMARK       I    between atoms: C_7  and  N_8 
REMARK    4  A    between atoms: N_8  and  C_9 
REMARK    5  A    between atoms: C_9  and  C_10 
REMARK    6  A    between atoms: C_10  and  N_11 
REMARK    7  A    between atoms: C_10  and  C_18 
ROOT
HETATM    1  C   UNL     1       7.760  25.714  57.122  1.00  0.00     0.241 C 
HETATM    2  N   UNL     1       7.577  27.073  57.223  1.00  0.00    -0.355 N 
HETATM    3  O   UNL     1       8.865  25.196  57.094  1.00  0.00    -0.269 OA
HETATM    4  H   UNL     1       6.630  27.431  57.139  1.00  0.00     0.162 HD
ENDROOT
BRANCH   2   5
HETATM    5  C   UNL     1       8.690  27.986  56.989  1.00  0.00     0.163 C 
BRANCH   5   6
HETATM    6  C   UNL     1       8.322  29.469  56.726  1.00  0.00     0.262 C 
BRANCH   6   7
HETATM    7  N   UNL     1       8.595  30.411  57.904  1.00  0.00    -0.059 N 
HETATM    8  H   UNL     1       8.071  31.252  57.619  1.00  0.00     0.280 HD
HETATM    9  C   UNL     1       8.000  30.022  59.235  1.00  0.00     0.236 C 
HETATM   10  C   UNL     1       8.038  31.238  60.154  1.00  0.00     0.028 C 
HETATM   11  C   UNL     1       9.460  31.769  60.316  1.00  0.00     0.003 C 
HETATM   12  C   UNL     1      10.123  32.025  58.966  1.00  0.00     0.028 C 
HETATM   13  C   UNL     1      10.040  30.811  58.047  1.00  0.00     0.236 C 
ENDBRANCH   6   7
BRANCH   6  14
HETATM   14  C   UNL     1       6.934  29.649  56.183  1.00  0.00     0.085 A 
HETATM   15  O   UNL     1       6.587  28.814  55.153  1.00  0.00    -0.325 OA
HETATM   16  C   UNL     1       5.306  29.110  54.814  1.00  0.00     0.142 A 
HETATM   17  C   UNL     1       4.817  30.113  55.615  1.00  0.00     0.027 A 
HETATM   18  C   UNL     1       5.861  30.455  56.508  1.00  0.00     0.037 A 
ENDBRANCH   6  14
ENDBRANCH   5   6
ENDBRANCH   2   5
BRANCH   1  19
HETATM   19  C   UNL     1       6.484  24.964  57.106  1.00  0.00     0.075 C 
HETATM   20  C   UNL     1       5.927  24.459  55.995  1.00  0.00     0.020 C 
BRANCH  20  21
HETATM   21  C   UNL     1       6.444  24.619  54.631  1.00  0.00    -0.001 A 
HETATM   22  C   UNL     1       7.446  23.774  54.130  1.00  0.00     0.078 A 
HETATM   23  C   UNL     1       7.958  23.963  52.844  1.00  0.00     0.039 A 
HETATM   24  C   UNL     1       7.438  24.968  52.028  1.00  0.00     0.022 A 
HETATM   25  C   UNL     1       6.417  25.787  52.509  1.00  0.00     0.012 A 
HETATM   26  C   UNL     1       5.917  25.618  53.801  1.00  0.00     0.033 A 
HETATM   27 BR   UNL     1       5.709  27.150  51.406  1.00  0.00    -0.051 Br
BRANCH  22  28
HETATM   28  O   UNL     1       7.993  22.809  54.938  1.00  0.00    -0.355 OA
HETATM   29  C   UNL     1       8.273  21.627  54.186  1.00  0.00     0.210 C 
ENDBRANCH  22  28
ENDBRANCH  20  21
ENDBRANCH   1  19
TORSDOF 7
ENDMDL
MODEL 7
REMARK VINA RESULT:      -7.7      3.491      7.609
REMARK  7 active torsions:
REMARK  status: ('A' for Active; 'I' for Inactive)
REMARK    1  A    between atoms: O_2  and  C_3 
REMARK    2  A    between atoms: C_4  and  C_5 
REMARK    3  A    between atoms: C_6  and  C_7 
REMARK       I    between atoms: C_7  and  N_8 
REMARK    4  A    between atoms: N_8  and  C_9 
REMARK    5  A    between atoms: C_9  and  C_10 
REMARK    6  A    between atoms: C_10  and  N_11 
REMARK    7  A    between atoms: C_10  and  C_18 
ROOT
HETATM    1  C   UNL     1       6.809  26.486  57.558  1.00  0.00     0.241 C 
HETATM    2  N   UNL     1       6.549  27.834  57.497  1.00  0.00    -0.355 N 
HETATM    3  O   UNL     1       7.913  26.036  57.824  1.00  0.00    -0.269 OA
HETATM    4  H   UNL     1       5.632  28.125  57.173  1.00  0.00     0.162 HD
ENDROOT
BRANCH   2   5
HETATM    5  C   UNL     1       7.645  28.794  57.440  1.00  0.00     0.163 C 
BRANCH   5   6
HETATM    6  C   UNL     1       7.286  30.270  57.749  1.00  0.00     0.262 C 
BRANCH   6   7
HETATM    7  N   UNL     1       7.574  30.707  59.190  1.00  0.00    -0.059 N 
HETATM    8  H   UNL     1       7.018  30.025  59.726  1.00  0.00     0.280 HD
HETATM    9  C   UNL     1       8.987  30.521  59.685  1.00  0.00     0.236 C 
HETATM   10  C   UNL     1       8.985  30.633  61.205  1.00  0.00     0.028 C 
HETATM   11  C   UNL     1       8.407  31.970  61.664  1.00  0.00     0.003 C 
HETATM   12  C   UNL     1       7.036  32.233  61.048  1.00  0.00     0.028 C 
HETATM   13  C   UNL     1       7.051  32.078  59.531  1.00  0.00     0.236 C 
ENDBRANCH   6   7
BRANCH   6  14
HETATM   14  C   UNL     1       5.896  30.644  57.325  1.00  0.00     0.085 A 
HETATM   15  O   UNL     1       4.880  30.042  58.020  1.00  0.00    -0.325 OA
HETATM   16  C   UNL     1       3.713  30.514  57.512  1.00  0.00     0.142 A 
HETATM   17  C   UNL     1       3.958  31.421  56.509  1.00  0.00     0.027 A 
HETATM   18  C   UNL     1       5.366  31.516  56.393  1.00  0.00     0.037 A 
ENDBRANCH   6  14
ENDBRANCH   5   6
ENDBRANCH   2   5
BRANCH   1  19
HETATM   19  C   UNL     1       5.604  25.659  57.323  1.00  0.00     0.075 C 
HETATM   20  C   UNL     1       5.429  24.884  56.243  1.00  0.00     0.020 C 
BRANCH  20  21
HETATM   21  C   UNL     1       6.351  24.779  55.107  1.00  0.00    -0.001 A 
HETATM   22  C   UNL     1       6.533  25.847  54.216  1.00  0.00     0.078 A 
HETATM   23  C   UNL     1       7.383  25.719  53.114  1.00  0.00     0.039 A 
HETATM   24  C   UNL     1       8.099  24.537  52.922  1.00  0.00     0.022 A 
HETATM   25  C   UNL     1       7.949  23.486  53.824  1.00  0.00     0.012 A 
HETATM   26  C   UNL     1       7.084  23.599  54.913  1.00  0.00     0.033 A 
HETATM   27 BR   UNL     1       8.918  21.883  53.567  1.00  0.00    -0.051 Br
BRANCH  22  28
HETATM   28  O   UNL     1       5.803  26.999  54.372  1.00  0.00    -0.355 OA
HETATM   29  C   UNL     1       6.517  28.119  53.848  1.00  0.00     0.210 C 
ENDBRANCH  22  28
ENDBRANCH  20  21
ENDBRANCH   1  19
TORSDOF 7
ENDMDL
MODEL 8
REMARK VINA RESULT:      -7.6      5.788     10.209
REMARK  7 active torsions:
REMARK  status: ('A' for Active; 'I' for Inactive)
REMARK    1  A    between atoms: O_2  and  C_3 
REMARK    2  A    between atoms: C_4  and  C_5 
REMARK    3  A    between atoms: C_6  and  C_7 
REMARK       I    between atoms: C_7  and  N_8 
REMARK    4  A    between atoms: N_8  and  C_9 
REMARK    5  A    between atoms: C_9  and  C_10 
REMARK    6  A    between atoms: C_10  and  N_11 
REMARK    7  A    between atoms: C_10  and  C_18 
ROOT
HETATM    1  C   UNL     1       8.832  31.036  61.003  1.00  0.00     0.241 C 
HETATM    2  N   UNL     1       7.703  31.680  61.454  1.00  0.00    -0.355 N 
HETATM    3  O   UNL     1       9.263  30.016  61.518  1.00  0.00    -0.269 OA
HETATM    4  H   UNL     1       7.469  32.574  61.034  1.00  0.00     0.162 HD
ENDROOT
BRANCH   2   5
HETATM    5  C   UNL     1       7.142  31.354  62.760  1.00  0.00     0.163 C 
BRANCH   5   6
HETATM    6  C   UNL     1       5.737  31.931  63.070  1.00  0.00     0.262 C 
BRANCH   6   7
HETATM    7  N   UNL     1       5.018  32.542  61.861  1.00  0.00    -0.059 N 
HETATM    8  H   UNL     1       5.601  32.201  61.083  1.00  0.00     0.280 HD
HETATM    9  C   UNL     1       3.635  32.021  61.562  1.00  0.00     0.236 C 
HETATM   10  C   UNL     1       3.257  32.441  60.145  1.00  0.00     0.028 C 
HETATM   11  C   UNL     1       3.328  33.957  59.977  1.00  0.00     0.003 C 
HETATM   12  C   UNL     1       4.679  34.511  60.420  1.00  0.00     0.028 C 
HETATM   13  C   UNL     1       5.056  34.048  61.822  1.00  0.00     0.236 C 
ENDBRANCH   6   7
BRANCH   6  14
HETATM   14  C   UNL     1       5.724  32.860  64.250  1.00  0.00     0.085 A 
HETATM   15  O   UNL     1       4.516  33.002  64.879  1.00  0.00    -0.325 OA
HETATM   16  C   UNL     1       4.706  33.854  65.920  1.00  0.00     0.142 A 
HETATM   17  C   UNL     1       6.019  34.254  65.979  1.00  0.00     0.027 A 
HETATM   18  C   UNL     1       6.682  33.605  64.910  1.00  0.00     0.037 A 
ENDBRANCH   6  14
ENDBRANCH   5   6
ENDBRANCH   2   5
BRANCH   1  19
HETATM   19  C   UNL     1       9.420  31.682  59.808  1.00  0.00     0.075 C 
HETATM   20  C   UNL     1       9.017  31.437  58.552  1.00  0.00     0.020 C 
BRANCH  20  21
HETATM   21  C   UNL     1       7.994  30.462  58.157  1.00  0.00    -0.001 A 
HETATM   22  C   UNL     1       6.661  30.848  57.952  1.00  0.00     0.078 A 
HETATM   23  C   UNL     1       5.689  29.902  57.616  1.00  0.00     0.039 A 
HETATM   24  C   UNL     1       6.052  28.567  57.432  1.00  0.00     0.022 A 
HETATM   25  C   UNL     1       7.382  28.185  57.599  1.00  0.00     0.012 A 
HETATM   26  C   UNL     1       8.353  29.121  57.957  1.00  0.00     0.033 A 
HETATM   27 BR   UNL     1       7.878  26.377  57.350  1.00  0.00    -0.051 Br
BRANCH  22  28
HETATM   28  O   UNL     1       6.286  32.150  58.170  1.00  0.00    -0.355 OA
HETATM   29  C   UNL     1       5.342  32.570  57.185  1.00  0.00     0.210 C 
ENDBRANCH  22  28
ENDBRANCH  20  21
ENDBRANCH   1  19
TORSDOF 7
ENDMDL
MODEL 9
REMARK VINA RESULT:      -7.6      2.631      7.045
REMARK  7 active torsions:
REMARK  status: ('A' for Active; 'I' for Inactive)
REMARK    1  A    between atoms: O_2  and  C_3 
REMARK    2  A    between atoms: C_4  and  C_5 
REMARK    3  A    between atoms: C_6  and  C_7 
REMARK       I    between atoms: C_7  and  N_8 
REMARK    4  A    between atoms: N_8  and  C_9 
REMARK    5  A    between atoms: C_9  and  C_10 
REMARK    6  A    between atoms: C_10  and  N_11 
REMARK    7  A    between atoms: C_10  and  C_18 
ROOT
HETATM    1  C   UNL     1       5.937  25.362  52.888  1.00  0.00     0.241 C 
HETATM    2  N   UNL     1       6.173  26.690  53.158  1.00  0.00    -0.355 N 
HETATM    3  O   UNL     1       4.942  24.774  53.282  1.00  0.00    -0.269 OA
HETATM    4  H   UNL     1       7.069  27.077  52.879  1.00  0.00     0.162 HD
ENDROOT
BRANCH   2   5
HETATM    5  C   UNL     1       5.406  27.380  54.188  1.00  0.00     0.163 C 
BRANCH   5   6
HETATM    6  C   UNL     1       5.817  28.843  54.490  1.00  0.00     0.262 C 
BRANCH   6   7
HETATM    7  N   UNL     1       6.917  28.991  55.548  1.00  0.00    -0.059 N 
HETATM    8  H   UNL     1       6.794  29.973  55.835  1.00  0.00     0.280 HD
HETATM    9  C   UNL     1       6.745  28.196  56.819  1.00  0.00     0.236 C 
HETATM   10  C   UNL     1       7.693  28.759  57.872  1.00  0.00     0.028 C 
HETATM   11  C   UNL     1       9.141  28.730  57.390  1.00  0.00     0.003 C 
HETATM   12  C   UNL     1       9.297  29.405  56.031  1.00  0.00     0.028 C 
HETATM   13  C   UNL     1       8.315  28.855  55.003  1.00  0.00     0.236 C 
ENDBRANCH   6   7
BRANCH   6  14
HETATM   14  C   UNL     1       4.649  29.741  54.778  1.00  0.00     0.085 A 
HETATM   15  O   UNL     1       4.356  29.928  56.103  1.00  0.00    -0.325 OA
HETATM   16  C   UNL     1       3.295  30.774  56.162  1.00  0.00     0.142 A 
HETATM   17  C   UNL     1       2.907  31.146  54.898  1.00  0.00     0.027 A 
HETATM   18  C   UNL     1       3.786  30.491  54.002  1.00  0.00     0.037 A 
ENDBRANCH   6  14
ENDBRANCH   5   6
ENDBRANCH   2   5
BRANCH   1  19
HETATM   19  C   UNL     1       6.982  24.757  52.032  1.00  0.00     0.075 C 
HETATM   20  C   UNL     1       7.852  23.830  52.459  1.00  0.00     0.020 C 
BRANCH  20  21
HETATM   21  C   UNL     1       7.953  23.319  53.831  1.00  0.00    -0.001 A 
HETATM   22  C   UNL     1       7.804  21.952  54.111  1.00  0.00     0.078 A 
HETATM   23  C   UNL     1       7.862  21.484  55.426  1.00  0.00     0.039 A 
HETATM   24  C   UNL     1       8.119  22.374  56.470  1.00  0.00     0.022 A 
HETATM   25  C   UNL     1       8.304  23.727  56.193  1.00  0.00     0.012 A 
HETATM   26  C   UNL     1       8.224  24.204  54.884  1.00  0.00     0.033 A 
HETATM   27 BR   UNL     1       8.653  24.935  57.605  1.00  0.00    -0.051 Br
BRANCH  22  28
HETATM   28  O   UNL     1       7.510  21.075  53.097  1.00  0.00    -0.355 OA
HETATM   29  C   UNL     1       8.629  20.230  52.826  1.00  0.00     0.210 C 
ENDBRANCH  22  28
ENDBRANCH  20  21
ENDBRANCH   1  19
TORSDOF 7
ENDMDL
MODEL 10
REMARK VINA RESULT:      -7.5      1.890      4.000
REMARK  7 active torsions:
REMARK  status: ('A' for Active; 'I' for Inactive)
REMARK    1  A    between atoms: O_2  and  C_3 
REMARK    2  A    between atoms: C_4  and  C_5 
REMARK    3  A    between atoms: C_6  and  C_7 
REMARK       I    between atoms: C_7  and  N_8 
REMARK    4  A    between atoms: N_8  and  C_9 
REMARK    5  A    between atoms: C_9  and  C_10 
REMARK    6  A    between atoms: C_10  and  N_11 
REMARK    7  A    between atoms: C_10  and  C_18 
ROOT
HETATM    1  C   UNL     1       8.334  27.248  57.377  1.00  0.00     0.241 C 
HETATM    2  N   UNL     1       8.667  26.252  56.489  1.00  0.00    -0.355 N 
HETATM    3  O   UNL     1       7.646  27.050  58.366  1.00  0.00    -0.269 OA
HETATM    4  H   UNL     1       9.158  26.518  55.641  1.00  0.00     0.162 HD
ENDROOT
BRANCH   2   5
HETATM    5  C   UNL     1       7.960  24.977  56.514  1.00  0.00     0.163 C 
BRANCH   5   6
HETATM    6  C   UNL     1       8.154  24.056  55.282  1.00  0.00     0.262 C 
BRANCH   6   7
HETATM    7  N   UNL     1       7.249  24.387  54.090  1.00  0.00    -0.059 N 
HETATM    8  H   UNL     1       7.046  23.447  53.720  1.00  0.00     0.280 HD
HETATM    9  C   UNL     1       5.895  24.972  54.409  1.00  0.00     0.236 C 
HETATM   10  C   UNL     1       5.017  24.864  53.167  1.00  0.00     0.028 C 
HETATM   11  C   UNL     1       5.657  25.563  51.971  1.00  0.00     0.003 C 
HETATM   12  C   UNL     1       7.085  25.080  51.732  1.00  0.00     0.028 C 
HETATM   13  C   UNL     1       7.935  25.161  52.995  1.00  0.00     0.236 C 
ENDBRANCH   6   7
BRANCH   6  14
HETATM   14  C   UNL     1       8.111  22.594  55.621  1.00  0.00     0.085 A 
HETATM   15  O   UNL     1       8.468  22.272  56.904  1.00  0.00    -0.325 OA
HETATM   16  C   UNL     1       8.350  20.925  57.025  1.00  0.00     0.142 A 
HETATM   17  C   UNL     1       7.910  20.374  55.846  1.00  0.00     0.027 A 
HETATM   18  C   UNL     1       7.744  21.450  54.941  1.00  0.00     0.037 A 
ENDBRANCH   6  14
ENDBRANCH   5   6
ENDBRANCH   2   5
BRANCH   1  19
HETATM   19  C   UNL     1       8.943  28.552  57.028  1.00  0.00     0.075 C 
HETATM   20  C   UNL     1       8.234  29.643  56.702  1.00  0.00     0.020 C 
BRANCH  20  21
HETATM   21  C   UNL     1       6.774  29.709  56.575  1.00  0.00    -0.001 A 
HETATM   22  C   UNL     1       5.984  30.312  57.564  1.00  0.00     0.078 A 
HETATM   23  C   UNL     1       4.591  30.332  57.450  1.00  0.00     0.039 A 
HETATM   24  C   UNL     1       3.978  29.791  56.320  1.00  0.00     0.022 A 
HETATM   25  C   UNL     1       4.761  29.222  55.317  1.00  0.00     0.012 A 
HETATM   26  C   UNL     1       6.151  29.179  55.435  1.00  0.00     0.033 A 
HETATM   27 BR   UNL     1       3.934  28.488  53.783  1.00  0.00    -0.051 Br
BRANCH  22  28
HETATM   28  O   UNL     1       6.573  30.811  58.699  1.00  0.00    -0.355 OA
HETATM   29  C   UNL     1       5.998  32.070  59.050  1.00  0.00     0.210 C 
ENDBRANCH  22  28
ENDBRANCH  20  21
ENDBRANCH   1  19
TORSDOF 7
ENDMDL
