MODEL 1
REMARK VINA RESULT:      -9.7      0.000      0.000
REMARK  7 active torsions:
REMARK  status: ('A' for Active; 'I' for Inactive)
REMARK       I    between atoms: C_2  and  N_3 
REMARK    1  A    between atoms: N_3  and  C_4 
REMARK    2  A    between atoms: C_7  and  C_8 
REMARK    3  A    between atoms: C_8  and  C_9 
REMARK       I    between atoms: C_9  and  N_10 
REMARK    4  A    between atoms: N_10  and  C_11 
REMARK    5  A    between atoms: C_11  and  C_12 
REMARK    6  A    between atoms: C_14  and  O_15 
REMARK    7  A    between atoms: O_15  and  C_16 
ROOT
HETATM    1  C   UNL     1       7.759  25.838  56.949  1.00  0.00     0.222 C 
HETATM    2  N   UNL     1       7.593  27.100  56.421  1.00  0.00    -0.357 N 
HETATM    3  O   UNL     1       7.760  25.608  58.155  1.00  0.00    -0.273 OA
HETATM    4  H   UNL     1       7.293  27.178  55.457  1.00  0.00     0.162 HD
ENDROOT
BRANCH   2   5
HETATM    5  C   UNL     1       7.332  28.224  57.292  1.00  0.00     0.161 C 
BRANCH   5   6
HETATM    6  C   UNL     1       8.512  29.155  57.402  1.00  0.00    -0.038 A 
HETATM    7  C   UNL     1       8.404  30.329  58.167  1.00  0.00     0.046 A 
HETATM    8  C   UNL     1       9.499  31.189  58.308  1.00  0.00     0.078 A 
HETATM    9  C   UNL     1      10.721  30.861  57.721  1.00  0.00     0.037 A 
HETATM   10  C   UNL     1      10.847  29.690  56.976  1.00  0.00     0.003 A 
HETATM   11  C   UNL     1       9.751  28.838  56.825  1.00  0.00     0.009 A 
BRANCH   8  12
HETATM   12  O   UNL     1       9.488  32.308  59.109  1.00  0.00    -0.292 OA
BRANCH  12  13
HETATM   13  C   UNL     1       8.732  32.285  60.273  1.00  0.00     0.169 A 
HETATM   14  N   UNL     1       7.452  32.723  60.259  1.00  0.00    -0.237 NA
HETATM   15  C   UNL     1       6.799  32.712  61.440  1.00  0.00     0.119 A 
HETATM   16  C   UNL     1       7.366  32.293  62.634  1.00  0.00     0.019 A 
HETATM   17  C   UNL     1       8.689  31.864  62.621  1.00  0.00     0.006 A 
HETATM   18  C   UNL     1       9.391  31.865  61.420  1.00  0.00     0.058 A 
ENDBRANCH  12  13
ENDBRANCH   8  12
ENDBRANCH   5   6
ENDBRANCH   2   5
BRANCH   1  19
HETATM   19  C   UNL     1       7.963  24.748  55.915  1.00  0.00     0.141 C 
BRANCH  19  20
HETATM   20  C   UNL     1       7.240  24.927  54.599  1.00  0.00    -0.049 A 
HETATM   21  C   UNL     1       7.892  25.005  53.364  1.00  0.00     0.010 A 
HETATM   22  C   UNL     1       7.168  25.194  52.177  1.00  0.00     0.030 A 
HETATM   23  C   UNL     1       5.780  25.326  52.204  1.00  0.00     0.034 A 
HETATM   24  C   UNL     1       5.126  25.265  53.438  1.00  0.00     0.030 A 
HETATM   25  C   UNL     1       5.845  25.068  54.620  1.00  0.00     0.010 A 
BRANCH  23  26
HETATM   26  N   UNL     1       4.980  25.530  51.060  1.00  0.00    -0.328 N 
HETATM   27  C   UNL     1       4.905  26.666  50.277  1.00  0.00     0.218 C 
HETATM   28  C   UNL     1       3.922  26.535  49.139  1.00  0.00     0.117 C 
HETATM   29  O   UNL     1       5.539  27.707  50.424  1.00  0.00    -0.274 OA
HETATM   30  H   UNL     1       4.404  24.746  50.786  1.00  0.00     0.169 HD
ENDBRANCH  23  26
ENDBRANCH  19  20
ENDBRANCH   1  19
TORSDOF 7
ENDMDL
MODEL 2
REMARK VINA RESULT:      -9.6      2.253      3.279
REMARK  7 active torsions:
REMARK  status: ('A' for Active; 'I' for Inactive)
REMARK       I    between atoms: C_2  and  N_3 
REMARK    1  A    between atoms: N_3  and  C_4 
REMARK    2  A    between atoms: C_7  and  C_8 
REMARK    3  A    between atoms: C_8  and  C_9 
REMARK       I    between atoms: C_9  and  N_10 
REMARK    4  A    between atoms: N_10  and  C_11 
REMARK    5  A    between atoms: C_11  and  C_12 
REMARK    6  A    between atoms: C_14  and  O_15 
REMARK    7  A    between atoms: O_15  and  C_16 
ROOT
HETATM    1  C   UNL     1       6.286  28.376  55.453  1.00  0.00     0.222 C 
HETATM    2  N   UNL     1       7.368  27.892  56.157  1.00  0.00    -0.357 N 
HETATM    3  O   UNL     1       5.425  29.094  55.953  1.00  0.00    -0.273 OA
HETATM    4  H   UNL     1       8.178  27.584  55.634  1.00  0.00     0.162 HD
ENDROOT
BRANCH   2   5
HETATM    5  C   UNL     1       7.574  28.283  57.534  1.00  0.00     0.161 C 
BRANCH   5   6
HETATM    6  C   UNL     1       8.632  29.346  57.679  1.00  0.00    -0.038 A 
HETATM    7  C   UNL     1       8.377  30.479  58.471  1.00  0.00     0.046 A 
HETATM    8  C   UNL     1       9.358  31.461  58.644  1.00  0.00     0.078 A 
HETATM    9  C   UNL     1      10.616  31.298  58.065  1.00  0.00     0.037 A 
HETATM   10  C   UNL     1      10.889  30.169  57.294  1.00  0.00     0.003 A 
HETATM   11  C   UNL     1       9.905  29.196  57.109  1.00  0.00     0.009 A 
BRANCH   8  12
HETATM   12  O   UNL     1       9.205  32.551  59.471  1.00  0.00    -0.292 OA
BRANCH  12  13
HETATM   13  C   UNL     1       8.415  32.418  60.606  1.00  0.00     0.169 A 
HETATM   14  N   UNL     1       7.103  32.744  60.561  1.00  0.00    -0.237 NA
HETATM   15  C   UNL     1       6.415  32.633  61.717  1.00  0.00     0.119 A 
HETATM   16  C   UNL     1       6.976  32.219  62.915  1.00  0.00     0.019 A 
HETATM   17  C   UNL     1       8.332  31.907  62.935  1.00  0.00     0.006 A 
HETATM   18  C   UNL     1       9.070  32.015  61.761  1.00  0.00     0.058 A 
ENDBRANCH  12  13
ENDBRANCH   8  12
ENDBRANCH   5   6
ENDBRANCH   2   5
BRANCH   1  19
HETATM   19  C   UNL     1       6.232  27.932  54.004  1.00  0.00     0.141 C 
BRANCH  19  20
HETATM   20  C   UNL     1       6.554  26.480  53.734  1.00  0.00    -0.049 A 
HETATM   21  C   UNL     1       5.915  25.415  54.378  1.00  0.00     0.010 A 
HETATM   22  C   UNL     1       6.272  24.087  54.102  1.00  0.00     0.030 A 
HETATM   23  C   UNL     1       7.287  23.798  53.191  1.00  0.00     0.034 A 
HETATM   24  C   UNL     1       7.940  24.860  52.557  1.00  0.00     0.030 A 
HETATM   25  C   UNL     1       7.579  26.183  52.825  1.00  0.00     0.010 A 
BRANCH  23  26
HETATM   26  N   UNL     1       7.715  22.493  52.867  1.00  0.00    -0.328 N 
HETATM   27  C   UNL     1       8.431  21.619  53.662  1.00  0.00     0.218 C 
HETATM   28  C   UNL     1       8.733  20.309  52.977  1.00  0.00     0.117 C 
HETATM   29  O   UNL     1       8.813  21.814  54.812  1.00  0.00    -0.274 OA
HETATM   30  H   UNL     1       7.457  22.167  51.945  1.00  0.00     0.169 HD
ENDBRANCH  23  26
ENDBRANCH  19  20
ENDBRANCH   1  19
TORSDOF 7
ENDMDL
MODEL 3
REMARK VINA RESULT:      -9.4      1.420      2.241
REMARK  7 active torsions:
REMARK  status: ('A' for Active; 'I' for Inactive)
REMARK       I    between atoms: C_2  and  N_3 
REMARK    1  A    between atoms: N_3  and  C_4 
REMARK    2  A    between atoms: C_7  and  C_8 
REMARK    3  A    between atoms: C_8  and  C_9 
REMARK       I    between atoms: C_9  and  N_10 
REMARK    4  A    between atoms: N_10  and  C_11 
REMARK    5  A    between atoms: C_11  and  C_12 
REMARK    6  A    between atoms: C_14  and  O_15 
REMARK    7  A    between atoms: O_15  and  C_16 
ROOT
HETATM    1  C   UNL     1       8.105  24.564  56.384  1.00  0.00     0.222 C 
HETATM    2  N   UNL     1       7.569  25.831  56.471  1.00  0.00    -0.357 N 
HETATM    3  O   UNL     1       9.056  24.187  57.063  1.00  0.00    -0.273 OA
HETATM    4  H   UNL     1       6.625  25.973  56.134  1.00  0.00     0.162 HD
ENDROOT
BRANCH   2   5
HETATM    5  C   UNL     1       8.076  26.769  57.447  1.00  0.00     0.161 C 
BRANCH   5   6
HETATM    6  C   UNL     1       7.245  28.023  57.528  1.00  0.00    -0.038 A 
HETATM    7  C   UNL     1       7.803  29.195  58.066  1.00  0.00     0.046 A 
HETATM    8  C   UNL     1       7.058  30.378  58.120  1.00  0.00     0.078 A 
HETATM    9  C   UNL     1       5.765  30.411  57.596  1.00  0.00     0.037 A 
HETATM   10  C   UNL     1       5.207  29.260  57.041  1.00  0.00     0.003 A 
HETATM   11  C   UNL     1       5.945  28.076  57.000  1.00  0.00     0.009 A 
BRANCH   8  12
HETATM   12  O   UNL     1       7.569  31.580  58.555  1.00  0.00    -0.292 OA
BRANCH  12  13
HETATM   13  C   UNL     1       7.893  31.716  59.898  1.00  0.00     0.169 A 
HETATM   14  N   UNL     1       6.913  31.820  60.825  1.00  0.00    -0.237 NA
HETATM   15  C   UNL     1       7.309  31.997  62.103  1.00  0.00     0.119 A 
HETATM   16  C   UNL     1       8.635  32.084  62.497  1.00  0.00     0.019 A 
HETATM   17  C   UNL     1       9.621  31.992  61.520  1.00  0.00     0.006 A 
HETATM   18  C   UNL     1       9.245  31.812  60.193  1.00  0.00     0.058 A 
ENDBRANCH  12  13
ENDBRANCH   8  12
ENDBRANCH   5   6
ENDBRANCH   2   5
BRANCH   1  19
HETATM   19  C   UNL     1       7.433  23.669  55.360  1.00  0.00     0.141 C 
BRANCH  19  20
HETATM   20  C   UNL     1       6.902  24.350  54.119  1.00  0.00    -0.049 A 
HETATM   21  C   UNL     1       5.556  24.687  53.939  1.00  0.00     0.010 A 
HETATM   22  C   UNL     1       5.118  25.298  52.755  1.00  0.00     0.030 A 
HETATM   23  C   UNL     1       6.012  25.568  51.721  1.00  0.00     0.034 A 
HETATM   24  C   UNL     1       7.356  25.219  51.889  1.00  0.00     0.030 A 
HETATM   25  C   UNL     1       7.795  24.618  53.072  1.00  0.00     0.010 A 
BRANCH  23  26
HETATM   26  N   UNL     1       5.651  26.168  50.495  1.00  0.00    -0.328 N 
HETATM   27  C   UNL     1       5.290  27.483  50.275  1.00  0.00     0.218 C 
HETATM   28  C   UNL     1       4.947  27.767  48.833  1.00  0.00     0.117 C 
HETATM   29  O   UNL     1       5.235  28.382  51.109  1.00  0.00    -0.274 OA
HETATM   30  H   UNL     1       5.668  25.556  49.690  1.00  0.00     0.169 HD
ENDBRANCH  23  26
ENDBRANCH  19  20
ENDBRANCH   1  19
TORSDOF 7
ENDMDL
MODEL 4
REMARK VINA RESULT:      -9.4      2.955     10.540
REMARK  7 active torsions:
REMARK  status: ('A' for Active; 'I' for Inactive)
REMARK       I    between atoms: C_2  and  N_3 
REMARK    1  A    between atoms: N_3  and  C_4 
REMARK    2  A    between atoms: C_7  and  C_8 
REMARK    3  A    between atoms: C_8  and  C_9 
REMARK       I    between atoms: C_9  and  N_10 
REMARK    4  A    between atoms: N_10  and  C_11 
REMARK    5  A    between atoms: C_11  and  C_12 
REMARK    6  A    between atoms: C_14  and  O_15 
REMARK    7  A    between atoms: O_15  and  C_16 
ROOT
HETATM    1  C   UNL     1       8.681  30.522  59.256  1.00  0.00     0.222 C 
HETATM    2  N   UNL     1       7.745  29.574  58.901  1.00  0.00    -0.357 N 
HETATM    3  O   UNL     1       9.228  31.263  58.445  1.00  0.00    -0.273 OA
HETATM    4  H   UNL     1       7.120  29.229  59.619  1.00  0.00     0.162 HD
ENDROOT
BRANCH   2   5
HETATM    5  C   UNL     1       7.306  29.464  57.528  1.00  0.00     0.161 C 
BRANCH   5   6
HETATM    6  C   UNL     1       6.840  28.074  57.180  1.00  0.00    -0.038 A 
HETATM    7  C   UNL     1       7.784  27.052  56.980  1.00  0.00     0.046 A 
HETATM    8  C   UNL     1       7.370  25.748  56.689  1.00  0.00     0.078 A 
HETATM    9  C   UNL     1       6.009  25.445  56.640  1.00  0.00     0.037 A 
HETATM   10  C   UNL     1       5.062  26.444  56.857  1.00  0.00     0.003 A 
HETATM   11  C   UNL     1       5.475  27.749  57.133  1.00  0.00     0.009 A 
BRANCH   8  12
HETATM   12  O   UNL     1       8.235  24.685  56.564  1.00  0.00    -0.292 OA
BRANCH  12  13
HETATM   13  C   UNL     1       8.158  23.896  55.424  1.00  0.00     0.169 A 
HETATM   14  N   UNL     1       8.251  24.462  54.199  1.00  0.00    -0.237 NA
HETATM   15  C   UNL     1       8.120  23.635  53.141  1.00  0.00     0.119 A 
HETATM   16  C   UNL     1       7.892  22.272  53.249  1.00  0.00     0.019 A 
HETATM   17  C   UNL     1       7.784  21.719  54.521  1.00  0.00     0.006 A 
HETATM   18  C   UNL     1       7.912  22.546  55.633  1.00  0.00     0.058 A 
ENDBRANCH  12  13
ENDBRANCH   8  12
ENDBRANCH   5   6
ENDBRANCH   2   5
BRANCH   1  19
HETATM   19  C   UNL     1       8.998  30.564  60.738  1.00  0.00     0.141 C 
BRANCH  19  20
HETATM   20  C   UNL     1       8.240  31.582  61.559  1.00  0.00    -0.049 A 
HETATM   21  C   UNL     1       8.472  31.802  62.921  1.00  0.00     0.010 A 
HETATM   22  C   UNL     1       7.720  32.746  63.636  1.00  0.00     0.030 A 
HETATM   23  C   UNL     1       6.711  33.475  63.009  1.00  0.00     0.034 A 
HETATM   24  C   UNL     1       6.465  33.247  61.651  1.00  0.00     0.030 A 
HETATM   25  C   UNL     1       7.219  32.313  60.935  1.00  0.00     0.010 A 
BRANCH  23  26
HETATM   26  N   UNL     1       5.902  34.432  63.658  1.00  0.00    -0.328 N 
HETATM   27  C   UNL     1       4.891  34.201  64.570  1.00  0.00     0.218 C 
HETATM   28  C   UNL     1       4.222  35.468  65.045  1.00  0.00     0.117 C 
HETATM   29  O   UNL     1       4.520  33.112  65.000  1.00  0.00    -0.274 OA
HETATM   30  H   UNL     1       6.098  35.397  63.426  1.00  0.00     0.169 HD
ENDBRANCH  23  26
ENDBRANCH  19  20
ENDBRANCH   1  19
TORSDOF 7
ENDMDL
MODEL 5
REMARK VINA RESULT:      -9.3      3.058      4.100
REMARK  7 active torsions:
REMARK  status: ('A' for Active; 'I' for Inactive)
REMARK       I    between atoms: C_2  and  N_3 
REMARK    1  A    between atoms: N_3  and  C_4 
REMARK    2  A    between atoms: C_7  and  C_8 
REMARK    3  A    between atoms: C_8  and  C_9 
REMARK       I    between atoms: C_9  and  N_10 
REMARK    4  A    between atoms: N_10  and  C_11 
REMARK    5  A    between atoms: C_11  and  C_12 
REMARK    6  A    between atoms: C_14  and  O_15 
REMARK    7  A    between atoms: O_15  and  C_16 
ROOT
HETATM    1  C   UNL     1       7.754  27.923  57.513  1.00  0.00     0.222 C 
HETATM    2  N   UNL     1       6.990  28.955  58.013  1.00  0.00    -0.357 N 
HETATM    3  O   UNL     1       8.739  28.098  56.802  1.00  0.00    -0.273 OA
HETATM    4  H   UNL     1       6.408  28.770  58.820  1.00  0.00     0.162 HD
ENDROOT
BRANCH   2   5
HETATM    5  C   UNL     1       7.377  30.328  57.772  1.00  0.00     0.161 C 
BRANCH   5   6
HETATM    6  C   UNL     1       8.140  30.924  58.927  1.00  0.00    -0.038 A 
HETATM    7  C   UNL     1       7.652  30.775  60.236  1.00  0.00     0.046 A 
HETATM    8  C   UNL     1       8.363  31.292  61.324  1.00  0.00     0.078 A 
HETATM    9  C   UNL     1       9.589  31.924  61.116  1.00  0.00     0.037 A 
HETATM   10  C   UNL     1      10.095  32.061  59.824  1.00  0.00     0.003 A 
HETATM   11  C   UNL     1       9.378  31.557  58.738  1.00  0.00     0.009 A 
BRANCH   8  12
HETATM   12  O   UNL     1       7.986  31.110  62.635  1.00  0.00    -0.292 OA
BRANCH  12  13
HETATM   13  C   UNL     1       7.187  32.073  63.237  1.00  0.00     0.169 A 
HETATM   14  N   UNL     1       5.866  32.135  62.949  1.00  0.00    -0.237 NA
HETATM   15  C   UNL     1       5.167  33.127  63.539  1.00  0.00     0.119 A 
HETATM   16  C   UNL     1       5.726  34.064  64.394  1.00  0.00     0.019 A 
HETATM   17  C   UNL     1       7.090  33.987  64.658  1.00  0.00     0.006 A 
HETATM   18  C   UNL     1       7.839  32.976  64.064  1.00  0.00     0.058 A 
ENDBRANCH  12  13
ENDBRANCH   8  12
ENDBRANCH   5   6
ENDBRANCH   2   5
BRANCH   1  19
HETATM   19  C   UNL     1       7.265  26.540  57.896  1.00  0.00     0.141 C 
BRANCH  19  20
HETATM   20  C   UNL     1       7.575  25.424  56.925  1.00  0.00    -0.049 A 
HETATM   21  C   UNL     1       8.680  24.574  57.053  1.00  0.00     0.010 A 
HETATM   22  C   UNL     1       8.929  23.569  56.107  1.00  0.00     0.030 A 
HETATM   23  C   UNL     1       8.090  23.405  55.005  1.00  0.00     0.034 A 
HETATM   24  C   UNL     1       6.995  24.263  54.864  1.00  0.00     0.030 A 
HETATM   25  C   UNL     1       6.740  25.259  55.811  1.00  0.00     0.010 A 
BRANCH  23  26
HETATM   26  N   UNL     1       8.278  22.429  54.003  1.00  0.00    -0.328 N 
HETATM   27  C   UNL     1       8.052  21.070  54.098  1.00  0.00     0.218 C 
HETATM   28  C   UNL     1       8.383  20.325  52.828  1.00  0.00     0.117 C 
HETATM   29  O   UNL     1       7.626  20.460  55.075  1.00  0.00    -0.274 OA
HETATM   30  H   UNL     1       8.611  22.777  53.113  1.00  0.00     0.169 HD
ENDBRANCH  23  26
ENDBRANCH  19  20
ENDBRANCH   1  19
TORSDOF 7
ENDMDL
MODEL 6
REMARK VINA RESULT:      -9.3      2.980     10.955
REMARK  7 active torsions:
REMARK  status: ('A' for Active; 'I' for Inactive)
REMARK       I    between atoms: C_2  and  N_3 
REMARK    1  A    between atoms: N_3  and  C_4 
REMARK    2  A    between atoms: C_7  and  C_8 
REMARK    3  A    between atoms: C_8  and  C_9 
REMARK       I    between atoms: C_9  and  N_10 
REMARK    4  A    between atoms: N_10  and  C_11 
REMARK    5  A    between atoms: C_11  and  C_12 
REMARK    6  A    between atoms: C_14  and  O_15 
REMARK    7  A    between atoms: O_15  and  C_16 
ROOT
HETATM    1  C   UNL     1       8.341  31.755  59.958  1.00  0.00     0.222 C 
HETATM    2  N   UNL     1       7.326  30.922  59.539  1.00  0.00    -0.357 N 
HETATM    3  O   UNL     1       8.973  32.482  59.197  1.00  0.00    -0.273 OA
HETATM    4  H   UNL     1       6.657  30.601  60.228  1.00  0.00     0.162 HD
ENDROOT
BRANCH   2   5
HETATM    5  C   UNL     1       6.905  30.928  58.155  1.00  0.00     0.161 C 
BRANCH   5   6
HETATM    6  C   UNL     1       7.151  29.608  57.472  1.00  0.00    -0.038 A 
HETATM    7  C   UNL     1       6.686  29.405  56.161  1.00  0.00     0.046 A 
HETATM    8  C   UNL     1       6.932  28.198  55.498  1.00  0.00     0.078 A 
HETATM    9  C   UNL     1       7.683  27.202  56.123  1.00  0.00     0.037 A 
HETATM   10  C   UNL     1       8.168  27.398  57.415  1.00  0.00     0.003 A 
HETATM   11  C   UNL     1       7.910  28.597  58.081  1.00  0.00     0.009 A 
BRANCH   8  12
HETATM   12  O   UNL     1       6.580  27.964  54.189  1.00  0.00    -0.292 OA
BRANCH  12  13
HETATM   13  C   UNL     1       6.729  26.680  53.680  1.00  0.00     0.169 A 
HETATM   14  N   UNL     1       7.850  26.346  53.001  1.00  0.00    -0.237 NA
HETATM   15  C   UNL     1       7.899  25.094  52.498  1.00  0.00     0.119 A 
HETATM   16  C   UNL     1       6.878  24.166  52.633  1.00  0.00     0.019 A 
HETATM   17  C   UNL     1       5.730  24.544  53.320  1.00  0.00     0.006 A 
HETATM   18  C   UNL     1       5.647  25.828  53.849  1.00  0.00     0.058 A 
ENDBRANCH  12  13
ENDBRANCH   8  12
ENDBRANCH   5   6
ENDBRANCH   2   5
BRANCH   1  19
HETATM   19  C   UNL     1       8.632  31.687  61.445  1.00  0.00     0.141 C 
BRANCH  19  20
HETATM   20  C   UNL     1       7.819  32.602  62.331  1.00  0.00    -0.049 A 
HETATM   21  C   UNL     1       6.833  33.470  61.848  1.00  0.00     0.010 A 
HETATM   22  C   UNL     1       6.126  34.313  62.717  1.00  0.00     0.030 A 
HETATM   23  C   UNL     1       6.401  34.317  64.084  1.00  0.00     0.034 A 
HETATM   24  C   UNL     1       7.395  33.463  64.570  1.00  0.00     0.030 A 
HETATM   25  C   UNL     1       8.095  32.616  63.706  1.00  0.00     0.010 A 
BRANCH  23  26
HETATM   26  N   UNL     1       5.745  35.141  65.023  1.00  0.00    -0.328 N 
HETATM   27  C   UNL     1       4.657  34.819  65.813  1.00  0.00     0.218 C 
HETATM   28  C   UNL     1       4.206  35.961  66.690  1.00  0.00     0.117 C 
HETATM   29  O   UNL     1       4.071  33.742  65.855  1.00  0.00    -0.274 OA
HETATM   30  H   UNL     1       6.126  36.072  65.127  1.00  0.00     0.169 HD
ENDBRANCH  23  26
ENDBRANCH  19  20
ENDBRANCH   1  19
TORSDOF 7
ENDMDL
MODEL 7
REMARK VINA RESULT:      -9.2      2.725     10.181
REMARK  7 active torsions:
REMARK  status: ('A' for Active; 'I' for Inactive)
REMARK       I    between atoms: C_2  and  N_3 
REMARK    1  A    between atoms: N_3  and  C_4 
REMARK    2  A    between atoms: C_7  and  C_8 
REMARK    3  A    between atoms: C_8  and  C_9 
REMARK       I    between atoms: C_9  and  N_10 
REMARK    4  A    between atoms: N_10  and  C_11 
REMARK    5  A    between atoms: C_11  and  C_12 
REMARK    6  A    between atoms: C_14  and  O_15 
REMARK    7  A    between atoms: O_15  and  C_16 
ROOT
HETATM    1  C   UNL     1       7.823  29.371  58.164  1.00  0.00     0.222 C 
HETATM    2  N   UNL     1       6.731  29.757  57.417  1.00  0.00    -0.357 N 
HETATM    3  O   UNL     1       8.015  28.214  58.528  1.00  0.00    -0.273 OA
HETATM    4  H   UNL     1       6.791  30.625  56.898  1.00  0.00     0.162 HD
ENDROOT
BRANCH   2   5
HETATM    5  C   UNL     1       5.779  28.771  56.957  1.00  0.00     0.161 C 
BRANCH   5   6
HETATM    6  C   UNL     1       6.302  27.959  55.800  1.00  0.00    -0.038 A 
HETATM    7  C   UNL     1       6.006  26.588  55.721  1.00  0.00     0.046 A 
HETATM    8  C   UNL     1       6.455  25.825  54.638  1.00  0.00     0.078 A 
HETATM    9  C   UNL     1       7.166  26.435  53.605  1.00  0.00     0.037 A 
HETATM   10  C   UNL     1       7.449  27.799  53.661  1.00  0.00     0.003 A 
HETATM   11  C   UNL     1       7.013  28.557  54.748  1.00  0.00     0.009 A 
BRANCH   8  12
HETATM   12  O   UNL     1       6.132  24.500  54.455  1.00  0.00    -0.292 OA
BRANCH  12  13
HETATM   13  C   UNL     1       7.151  23.558  54.477  1.00  0.00     0.169 A 
HETATM   14  N   UNL     1       7.897  23.390  55.593  1.00  0.00    -0.237 NA
HETATM   15  C   UNL     1       8.898  22.488  55.519  1.00  0.00     0.119 A 
HETATM   16  C   UNL     1       9.195  21.754  54.382  1.00  0.00     0.019 A 
HETATM   17  C   UNL     1       8.423  21.960  53.243  1.00  0.00     0.006 A 
HETATM   18  C   UNL     1       7.384  22.884  53.286  1.00  0.00     0.058 A 
ENDBRANCH  12  13
ENDBRANCH   8  12
ENDBRANCH   5   6
ENDBRANCH   2   5
BRANCH   1  19
HETATM   19  C   UNL     1       8.768  30.502  58.522  1.00  0.00     0.141 C 
BRANCH  19  20
HETATM   20  C   UNL     1       8.629  31.079  59.912  1.00  0.00    -0.049 A 
HETATM   21  C   UNL     1       9.165  30.477  61.056  1.00  0.00     0.010 A 
HETATM   22  C   UNL     1       8.984  31.049  62.324  1.00  0.00     0.030 A 
HETATM   23  C   UNL     1       8.248  32.224  62.476  1.00  0.00     0.034 A 
HETATM   24  C   UNL     1       7.697  32.820  61.338  1.00  0.00     0.030 A 
HETATM   25  C   UNL     1       7.884  32.256  60.073  1.00  0.00     0.010 A 
BRANCH  23  26
HETATM   26  N   UNL     1       8.009  32.855  63.715  1.00  0.00    -0.328 N 
HETATM   27  C   UNL     1       6.794  33.035  64.349  1.00  0.00     0.218 C 
HETATM   28  C   UNL     1       6.915  33.776  65.658  1.00  0.00     0.117 C 
HETATM   29  O   UNL     1       5.695  32.657  63.954  1.00  0.00    -0.274 OA
HETATM   30  H   UNL     1       8.830  33.209  64.189  1.00  0.00     0.169 HD
ENDBRANCH  23  26
ENDBRANCH  19  20
ENDBRANCH   1  19
TORSDOF 7
ENDMDL
MODEL 8
REMARK VINA RESULT:      -9.1      2.817     10.399
REMARK  7 active torsions:
REMARK  status: ('A' for Active; 'I' for Inactive)
REMARK       I    between atoms: C_2  and  N_3 
REMARK    1  A    between atoms: N_3  and  C_4 
REMARK    2  A    between atoms: C_7  and  C_8 
REMARK    3  A    between atoms: C_8  and  C_9 
REMARK       I    between atoms: C_9  and  N_10 
REMARK    4  A    between atoms: N_10  and  C_11 
REMARK    5  A    between atoms: C_11  and  C_12 
REMARK    6  A    between atoms: C_14  and  O_15 
REMARK    7  A    between atoms: O_15  and  C_16 
ROOT
HETATM    1  C   UNL     1       9.044  31.468  59.991  1.00  0.00     0.222 C 
HETATM    2  N   UNL     1       8.825  30.257  59.370  1.00  0.00    -0.357 N 
HETATM    3  O   UNL     1       9.105  32.534  59.385  1.00  0.00    -0.273 OA
HETATM    4  H   UNL     1       8.479  29.489  59.932  1.00  0.00     0.162 HD
ENDROOT
BRANCH   2   5
HETATM    5  C   UNL     1       8.580  30.204  57.946  1.00  0.00     0.161 C 
BRANCH   5   6
HETATM    6  C   UNL     1       7.460  29.261  57.588  1.00  0.00    -0.038 A 
HETATM    7  C   UNL     1       7.662  27.874  57.679  1.00  0.00     0.046 A 
HETATM    8  C   UNL     1       6.625  26.983  57.382  1.00  0.00     0.078 A 
HETATM    9  C   UNL     1       5.366  27.473  57.035  1.00  0.00     0.037 A 
HETATM   10  C   UNL     1       5.146  28.847  56.961  1.00  0.00     0.003 A 
HETATM   11  C   UNL     1       6.185  29.736  57.244  1.00  0.00     0.009 A 
BRANCH   8  12
HETATM   12  O   UNL     1       6.728  25.619  57.531  1.00  0.00    -0.292 OA
BRANCH  12  13
HETATM   13  C   UNL     1       7.227  24.871  56.472  1.00  0.00     0.169 A 
HETATM   14  N   UNL     1       6.490  24.710  55.349  1.00  0.00    -0.237 NA
HETATM   15  C   UNL     1       7.024  23.931  54.385  1.00  0.00     0.119 A 
HETATM   16  C   UNL     1       8.253  23.300  54.493  1.00  0.00     0.019 A 
HETATM   17  C   UNL     1       8.981  23.469  55.666  1.00  0.00     0.006 A 
HETATM   18  C   UNL     1       8.457  24.264  56.681  1.00  0.00     0.058 A 
ENDBRANCH  12  13
ENDBRANCH   8  12
ENDBRANCH   5   6
ENDBRANCH   2   5
BRANCH   1  19
HETATM   19  C   UNL     1       9.224  31.377  61.494  1.00  0.00     0.141 C 
BRANCH  19  20
HETATM   20  C   UNL     1       8.107  31.944  62.340  1.00  0.00    -0.049 A 
HETATM   21  C   UNL     1       8.321  32.662  63.522  1.00  0.00     0.010 A 
HETATM   22  C   UNL     1       7.243  33.145  64.278  1.00  0.00     0.030 A 
HETATM   23  C   UNL     1       5.929  32.904  63.877  1.00  0.00     0.034 A 
HETATM   24  C   UNL     1       5.709  32.173  62.706  1.00  0.00     0.030 A 
HETATM   25  C   UNL     1       6.784  31.699  61.947  1.00  0.00     0.010 A 
BRANCH  23  26
HETATM   26  N   UNL     1       4.790  33.343  64.585  1.00  0.00    -0.328 N 
HETATM   27  C   UNL     1       4.339  34.641  64.735  1.00  0.00     0.218 C 
HETATM   28  C   UNL     1       3.093  34.739  65.581  1.00  0.00     0.117 C 
HETATM   29  O   UNL     1       4.842  35.655  64.260  1.00  0.00    -0.274 OA
HETATM   30  H   UNL     1       4.244  32.615  65.025  1.00  0.00     0.169 HD
ENDBRANCH  23  26
ENDBRANCH  19  20
ENDBRANCH   1  19
TORSDOF 7
ENDMDL
MODEL 9
REMARK VINA RESULT:      -8.8      2.845     10.241
REMARK  7 active torsions:
REMARK  status: ('A' for Active; 'I' for Inactive)
REMARK       I    between atoms: C_2  and  N_3 
REMARK    1  A    between atoms: N_3  and  C_4 
REMARK    2  A    between atoms: C_7  and  C_8 
REMARK    3  A    between atoms: C_8  and  C_9 
REMARK       I    between atoms: C_9  and  N_10 
REMARK    4  A    between atoms: N_10  and  C_11 
REMARK    5  A    between atoms: C_11  and  C_12 
REMARK    6  A    between atoms: C_14  and  O_15 
REMARK    7  A    between atoms: O_15  and  C_16 
ROOT
HETATM    1  C   UNL     1       6.126  29.033  56.984  1.00  0.00     0.222 C 
HETATM    2  N   UNL     1       6.601  27.857  56.445  1.00  0.00    -0.357 N 
HETATM    3  O   UNL     1       4.963  29.186  57.347  1.00  0.00    -0.273 OA
HETATM    4  H   UNL     1       7.600  27.693  56.462  1.00  0.00     0.162 HD
ENDROOT
BRANCH   2   5
HETATM    5  C   UNL     1       5.738  26.700  56.352  1.00  0.00     0.161 C 
BRANCH   5   6
HETATM    6  C   UNL     1       5.911  25.954  55.053  1.00  0.00    -0.038 A 
HETATM    7  C   UNL     1       7.125  25.302  54.781  1.00  0.00     0.046 A 
HETATM    8  C   UNL     1       7.294  24.578  53.596  1.00  0.00     0.078 A 
HETATM    9  C   UNL     1       6.236  24.463  52.695  1.00  0.00     0.037 A 
HETATM   10  C   UNL     1       5.019  25.088  52.962  1.00  0.00     0.003 A 
HETATM   11  C   UNL     1       4.856  25.823  54.138  1.00  0.00     0.009 A 
BRANCH   8  12
HETATM   12  O   UNL     1       8.423  23.847  53.305  1.00  0.00    -0.292 OA
BRANCH  12  13
HETATM   13  C   UNL     1       8.546  22.571  53.840  1.00  0.00     0.169 A 
HETATM   14  N   UNL     1       9.111  22.397  55.056  1.00  0.00    -0.237 NA
HETATM   15  C   UNL     1       9.236  21.124  55.486  1.00  0.00     0.119 A 
HETATM   16  C   UNL     1       8.831  20.018  54.755  1.00  0.00     0.019 A 
HETATM   17  C   UNL     1       8.269  20.226  53.500  1.00  0.00     0.006 A 
HETATM   18  C   UNL     1       8.128  21.527  53.027  1.00  0.00     0.058 A 
ENDBRANCH  12  13
ENDBRANCH   8  12
ENDBRANCH   5   6
ENDBRANCH   2   5
BRANCH   1  19
HETATM   19  C   UNL     1       7.158  30.141  57.075  1.00  0.00     0.141 C 
BRANCH  19  20
HETATM   20  C   UNL     1       7.423  30.699  58.455  1.00  0.00    -0.049 A 
HETATM   21  C   UNL     1       8.340  30.138  59.351  1.00  0.00     0.010 A 
HETATM   22  C   UNL     1       8.528  30.687  60.628  1.00  0.00     0.030 A 
HETATM   23  C   UNL     1       7.791  31.797  61.040  1.00  0.00     0.034 A 
HETATM   24  C   UNL     1       6.862  32.351  60.154  1.00  0.00     0.030 A 
HETATM   25  C   UNL     1       6.680  31.810  58.878  1.00  0.00     0.010 A 
BRANCH  23  26
HETATM   26  N   UNL     1       7.910  32.402  62.310  1.00  0.00    -0.328 N 
HETATM   27  C   UNL     1       6.945  32.489  63.295  1.00  0.00     0.218 C 
HETATM   28  C   UNL     1       7.421  33.229  64.523  1.00  0.00     0.117 C 
HETATM   29  O   UNL     1       5.805  32.037  63.253  1.00  0.00    -0.274 OA
HETATM   30  H   UNL     1       8.812  32.810  62.514  1.00  0.00     0.169 HD
ENDBRANCH  23  26
ENDBRANCH  19  20
ENDBRANCH   1  19
TORSDOF 7
ENDMDL
MODEL 10
REMARK VINA RESULT:      -8.6      5.563      8.481
REMARK  7 active torsions:
REMARK  status: ('A' for Active; 'I' for Inactive)
REMARK       I    between atoms: C_2  and  N_3 
REMARK    1  A    between atoms: N_3  and  C_4 
REMARK    2  A    between atoms: C_7  and  C_8 
REMARK    3  A    between atoms: C_8  and  C_9 
REMARK       I    between atoms: C_9  and  N_10 
REMARK    4  A    between atoms: N_10  and  C_11 
REMARK    5  A    between atoms: C_11  and  C_12 
REMARK    6  A    between atoms: C_14  and  O_15 
REMARK    7  A    between atoms: O_15  and  C_16 
ROOT
HETATM    1  C   UNL     1       5.222  27.212  51.486  1.00  0.00     0.222 C 
HETATM    2  N   UNL     1       4.694  26.523  52.557  1.00  0.00    -0.357 N 
HETATM    3  O   UNL     1       5.730  28.325  51.586  1.00  0.00    -0.273 OA
HETATM    4  H   UNL     1       4.584  25.520  52.472  1.00  0.00     0.162 HD
ENDROOT
BRANCH   2   5
HETATM    5  C   UNL     1       4.787  27.072  53.891  1.00  0.00     0.161 C 
BRANCH   5   6
HETATM    6  C   UNL     1       5.554  26.178  54.831  1.00  0.00    -0.038 A 
HETATM    7  C   UNL     1       6.692  25.495  54.369  1.00  0.00     0.046 A 
HETATM    8  C   UNL     1       7.435  24.685  55.235  1.00  0.00     0.078 A 
HETATM    9  C   UNL     1       7.073  24.586  56.578  1.00  0.00     0.037 A 
HETATM   10  C   UNL     1       5.958  25.275  57.054  1.00  0.00     0.003 A 
HETATM   11  C   UNL     1       5.209  26.072  56.187  1.00  0.00     0.009 A 
BRANCH   8  12
HETATM   12  O   UNL     1       8.605  24.056  54.871  1.00  0.00    -0.292 OA
BRANCH  12  13
HETATM   13  C   UNL     1       8.570  22.695  54.597  1.00  0.00     0.169 A 
HETATM   14  N   UNL     1       9.025  21.807  55.511  1.00  0.00    -0.237 NA
HETATM   15  C   UNL     1       9.001  20.507  55.150  1.00  0.00     0.119 A 
HETATM   16  C   UNL     1       8.552  20.053  53.920  1.00  0.00     0.019 A 
HETATM   17  C   UNL     1       8.106  20.990  52.994  1.00  0.00     0.006 A 
HETATM   18  C   UNL     1       8.121  22.340  53.333  1.00  0.00     0.058 A 
ENDBRANCH  12  13
ENDBRANCH   8  12
ENDBRANCH   5   6
ENDBRANCH   2   5
BRANCH   1  19
HETATM   19  C   UNL     1       5.106  26.487  50.158  1.00  0.00     0.141 C 
BRANCH  19  20
HETATM   20  C   UNL     1       3.896  26.818  49.316  1.00  0.00    -0.049 A 
HETATM   21  C   UNL     1       3.089  27.941  49.531  1.00  0.00     0.010 A 
HETATM   22  C   UNL     1       1.964  28.183  48.729  1.00  0.00     0.030 A 
HETATM   23  C   UNL     1       1.613  27.300  47.709  1.00  0.00     0.034 A 
HETATM   24  C   UNL     1       2.407  26.168  47.501  1.00  0.00     0.030 A 
HETATM   25  C   UNL     1       3.533  25.930  48.293  1.00  0.00     0.010 A 
BRANCH  23  26
HETATM   26  N   UNL     1       0.492  27.464  46.867  1.00  0.00    -0.328 N 
HETATM   27  C   UNL     1       0.149  28.581  46.129  1.00  0.00     0.218 C 
HETATM   28  C   UNL     1      -1.136  28.406  45.356  1.00  0.00     0.117 C 
HETATM   29  O   UNL     1       0.771  29.636  46.057  1.00  0.00    -0.274 OA
HETATM   30  H   UNL     1      -0.121  26.663  46.798  1.00  0.00     0.169 HD
ENDBRANCH  23  26
ENDBRANCH  19  20
ENDBRANCH   1  19
TORSDOF 7
ENDMDL
