MODEL 1
REMARK VINA RESULT:      -8.7      0.000      0.000
REMARK  5 active torsions:
REMARK  status: ('A' for Active; 'I' for Inactive)
REMARK    1  A    between atoms: C_4  and  C_5 
REMARK    2  A    between atoms: C_10  and  C_11 
REMARK       I    between atoms: C_11  and  N_12 
REMARK    3  A    between atoms: N_12  and  C_13 
REMARK    4  A    between atoms: C_13  and  C_14 
REMARK    5  A    between atoms: C_22  and  C_23 
ROOT
HETATM    1  C   UNL     1       5.429  26.643  55.600  1.00  0.00     0.118 C 
HETATM    2  N   UNL     1       4.636  27.333  54.586  1.00  0.00    -0.365 N 
HETATM    3  C   UNL     1       4.762  27.047  53.268  1.00  0.00     0.141 A 
HETATM    4  N   UNL     1       5.465  25.956  52.839  1.00  0.00    -0.238 N 
HETATM    5  N   UNL     1       5.460  25.787  51.506  1.00  0.00    -0.163 NA
HETATM    6  C   UNL     1       4.766  26.859  51.044  1.00  0.00     0.165 A 
HETATM    7  C   UNL     1       4.307  27.654  52.125  1.00  0.00     0.092 A 
HETATM    8 BR   UNL     1       3.301  29.230  52.031  1.00  0.00    -0.044 Br
HETATM    9  C   UNL     1       6.140  25.018  53.717  1.00  0.00     0.221 C 
HETATM   10  C   UNL     1       5.647  25.180  55.168  1.00  0.00     0.066 C 
HETATM   11  H   UNL     1       4.232  28.222  54.881  1.00  0.00     0.162 HD
ENDROOT
BRANCH   6  12
HETATM   12  C   UNL     1       4.607  27.077  49.596  1.00  0.00     0.273 C 
HETATM   13  N   UNL     1       3.634  26.276  49.040  1.00  0.00    -0.353 N 
HETATM   14  H   UNL     1       3.213  25.593  49.666  1.00  0.00     0.162 HD
HETATM   15  O   UNL     1       5.288  27.857  48.939  1.00  0.00    -0.266 OA
BRANCH  13  16
HETATM   16  C   UNL     1       3.419  26.137  47.615  1.00  0.00     0.155 C 
BRANCH  16  17
HETATM   17  C   UNL     1       2.313  27.056  47.073  1.00  0.00     0.139 C 
HETATM   18  O   UNL     1       2.859  28.369  46.828  1.00  0.00    -0.384 OA
HETATM   19  C   UNL     1       2.087  29.332  47.557  1.00  0.00     0.168 C 
HETATM   20  C   UNL     1       1.347  28.576  48.635  1.00  0.00     0.029 C 
HETATM   21  C   UNL     1       1.108  27.237  47.988  1.00  0.00     0.035 C 
ENDBRANCH  16  17
ENDBRANCH  13  16
ENDBRANCH   6  12
BRANCH   9  22
HETATM   22  C   UNL     1       7.641  25.138  53.560  1.00  0.00     0.409 C 
HETATM   23  F   UNL     1       8.065  26.389  53.302  1.00  0.00    -0.169 F 
HETATM   24  F   UNL     1       8.264  24.728  54.695  1.00  0.00    -0.169 F 
HETATM   25  F   UNL     1       8.108  24.344  52.568  1.00  0.00    -0.169 F 
ENDBRANCH   9  22
BRANCH   1  26
HETATM   26  C   UNL     1       6.691  27.396  55.992  1.00  0.00    -0.035 A 
HETATM   27  C   UNL     1       7.033  28.648  55.453  1.00  0.00     0.009 A 
HETATM   28  C   UNL     1       8.200  29.308  55.846  1.00  0.00     0.001 A 
HETATM   29  C   UNL     1       9.042  28.734  56.793  1.00  0.00     0.000 A 
HETATM   30  C   UNL     1       8.717  27.503  57.352  1.00  0.00     0.001 A 
HETATM   31  C   UNL     1       7.550  26.842  56.959  1.00  0.00     0.009 A 
ENDBRANCH   1  26
TORSDOF 5
ENDMDL
MODEL 2
REMARK VINA RESULT:      -8.3      3.972      8.107
REMARK  5 active torsions:
REMARK  status: ('A' for Active; 'I' for Inactive)
REMARK    1  A    between atoms: C_4  and  C_5 
REMARK    2  A    between atoms: C_10  and  C_11 
REMARK       I    between atoms: C_11  and  N_12 
REMARK    3  A    between atoms: N_12  and  C_13 
REMARK    4  A    between atoms: C_13  and  C_14 
REMARK    5  A    between atoms: C_22  and  C_23 
ROOT
HETATM    1  C   UNL     1       4.764  29.198  48.197  1.00  0.00     0.118 C 
HETATM    2  N   UNL     1       5.209  29.081  49.583  1.00  0.00    -0.365 N 
HETATM    3  C   UNL     1       5.184  27.896  50.241  1.00  0.00     0.141 A 
HETATM    4  N   UNL     1       4.956  26.720  49.582  1.00  0.00    -0.238 N 
HETATM    5  N   UNL     1       5.006  25.631  50.368  1.00  0.00    -0.163 NA
HETATM    6  C   UNL     1       5.219  26.134  51.611  1.00  0.00     0.165 A 
HETATM    7  C   UNL     1       5.348  27.546  51.556  1.00  0.00     0.092 A 
HETATM    8 BR   UNL     1       5.656  28.716  52.986  1.00  0.00    -0.044 Br
HETATM    9  C   UNL     1       4.716  26.612  48.155  1.00  0.00     0.221 C 
HETATM   10  C   UNL     1       5.129  27.910  47.434  1.00  0.00     0.066 C 
HETATM   11  H   UNL     1       5.238  29.956  50.106  1.00  0.00     0.162 HD
ENDROOT
BRANCH   6  12
HETATM   12  C   UNL     1       5.257  25.242  52.781  1.00  0.00     0.273 C 
HETATM   13  N   UNL     1       6.537  25.009  53.233  1.00  0.00    -0.353 N 
HETATM   14  H   UNL     1       7.284  25.406  52.667  1.00  0.00     0.162 HD
HETATM   15  O   UNL     1       4.265  24.724  53.285  1.00  0.00    -0.266 OA
BRANCH  13  16
HETATM   16  C   UNL     1       6.875  24.012  54.227  1.00  0.00     0.155 C 
BRANCH  16  17
HETATM   17  C   UNL     1       8.047  23.110  53.810  1.00  0.00     0.139 C 
HETATM   18  O   UNL     1       7.612  22.211  52.767  1.00  0.00    -0.384 OA
HETATM   19  C   UNL     1       7.871  20.864  53.184  1.00  0.00     0.168 C 
HETATM   20  C   UNL     1       8.034  20.892  54.685  1.00  0.00     0.029 C 
HETATM   21  C   UNL     1       8.639  22.252  54.922  1.00  0.00     0.035 C 
ENDBRANCH  16  17
ENDBRANCH  13  16
ENDBRANCH   6  12
BRANCH   9  22
HETATM   22  C   UNL     1       3.285  26.192  47.894  1.00  0.00     0.409 C 
HETATM   23  F   UNL     1       2.392  26.740  48.738  1.00  0.00    -0.169 F 
HETATM   24  F   UNL     1       2.917  26.544  46.635  1.00  0.00    -0.169 F 
HETATM   25  F   UNL     1       3.134  24.849  47.967  1.00  0.00    -0.169 F 
ENDBRANCH   9  22
BRANCH   1  26
HETATM   26  C   UNL     1       3.315  29.639  48.065  1.00  0.00    -0.035 A 
HETATM   27  C   UNL     1       2.520  29.994  49.168  1.00  0.00     0.009 A 
HETATM   28  C   UNL     1       1.194  30.400  49.001  1.00  0.00     0.001 A 
HETATM   29  C   UNL     1       0.640  30.469  47.727  1.00  0.00     0.000 A 
HETATM   30  C   UNL     1       1.412  30.138  46.618  1.00  0.00     0.001 A 
HETATM   31  C   UNL     1       2.738  29.732  46.785  1.00  0.00     0.009 A 
ENDBRANCH   1  26
TORSDOF 5
ENDMDL
MODEL 3
REMARK VINA RESULT:      -8.2      1.559      1.882
REMARK  5 active torsions:
REMARK  status: ('A' for Active; 'I' for Inactive)
REMARK    1  A    between atoms: C_4  and  C_5 
REMARK    2  A    between atoms: C_10  and  C_11 
REMARK       I    between atoms: C_11  and  N_12 
REMARK    3  A    between atoms: N_12  and  C_13 
REMARK    4  A    between atoms: C_13  and  C_14 
REMARK    5  A    between atoms: C_22  and  C_23 
ROOT
HETATM    1  C   UNL     1       5.503  26.445  55.441  1.00  0.00     0.118 C 
HETATM    2  N   UNL     1       4.695  27.104  54.419  1.00  0.00    -0.365 N 
HETATM    3  C   UNL     1       4.844  26.823  53.101  1.00  0.00     0.141 A 
HETATM    4  N   UNL     1       5.591  25.758  52.680  1.00  0.00    -0.238 N 
HETATM    5  N   UNL     1       5.605  25.589  51.348  1.00  0.00    -0.163 NA
HETATM    6  C   UNL     1       4.877  26.634  50.877  1.00  0.00     0.165 A 
HETATM    7  C   UNL     1       4.378  27.412  51.954  1.00  0.00     0.092 A 
HETATM    8 BR   UNL     1       3.316  28.950  51.848  1.00  0.00    -0.044 Br
HETATM    9  C   UNL     1       6.291  24.846  53.566  1.00  0.00     0.221 C 
HETATM   10  C   UNL     1       5.778  24.991  55.012  1.00  0.00     0.066 C 
HETATM   11  H   UNL     1       4.255  27.978  54.708  1.00  0.00     0.162 HD
ENDROOT
BRANCH   6  12
HETATM   12  C   UNL     1       4.724  26.845  49.429  1.00  0.00     0.273 C 
HETATM   13  N   UNL     1       5.447  27.923  48.968  1.00  0.00    -0.353 N 
HETATM   14  H   UNL     1       5.919  28.475  49.681  1.00  0.00     0.162 HD
HETATM   15  O   UNL     1       4.003  26.164  48.706  1.00  0.00    -0.266 OA
BRANCH  13  16
HETATM   16  C   UNL     1       5.312  28.477  47.636  1.00  0.00     0.155 C 
BRANCH  16  17
HETATM   17  C   UNL     1       4.344  29.669  47.568  1.00  0.00     0.139 C 
HETATM   18  O   UNL     1       4.635  30.454  46.392  1.00  0.00    -0.384 OA
HETATM   19  C   UNL     1       4.883  31.808  46.794  1.00  0.00     0.168 C 
HETATM   20  C   UNL     1       5.214  31.775  48.267  1.00  0.00     0.029 C 
HETATM   21  C   UNL     1       4.388  30.616  48.761  1.00  0.00     0.035 C 
ENDBRANCH  16  17
ENDBRANCH  13  16
ENDBRANCH   6  12
BRANCH   9  22
HETATM   22  C   UNL     1       7.788  25.022  53.423  1.00  0.00     0.409 C 
HETATM   23  F   UNL     1       8.162  26.266  53.073  1.00  0.00    -0.169 F 
HETATM   24  F   UNL     1       8.406  24.732  54.598  1.00  0.00    -0.169 F 
HETATM   25  F   UNL     1       8.309  24.173  52.507  1.00  0.00    -0.169 F 
ENDBRANCH   9  22
BRANCH   1  26
HETATM   26  C   UNL     1       6.732  27.244  55.844  1.00  0.00    -0.035 A 
HETATM   27  C   UNL     1       7.144  28.406  55.170  1.00  0.00     0.009 A 
HETATM   28  C   UNL     1       8.277  29.113  55.579  1.00  0.00     0.001 A 
HETATM   29  C   UNL     1       9.014  28.679  56.675  1.00  0.00     0.000 A 
HETATM   30  C   UNL     1       8.616  27.541  57.369  1.00  0.00     0.001 A 
HETATM   31  C   UNL     1       7.483  26.832  56.960  1.00  0.00     0.009 A 
ENDBRANCH   1  26
TORSDOF 5
ENDMDL
MODEL 4
REMARK VINA RESULT:      -7.9      5.724      9.519
REMARK  5 active torsions:
REMARK  status: ('A' for Active; 'I' for Inactive)
REMARK    1  A    between atoms: C_4  and  C_5 
REMARK    2  A    between atoms: C_10  and  C_11 
REMARK       I    between atoms: C_11  and  N_12 
REMARK    3  A    between atoms: N_12  and  C_13 
REMARK    4  A    between atoms: C_13  and  C_14 
REMARK    5  A    between atoms: C_22  and  C_23 
ROOT
HETATM    1  C   UNL     1       6.695  28.215  54.837  1.00  0.00     0.118 C 
HETATM    2  N   UNL     1       5.633  29.113  55.283  1.00  0.00    -0.365 N 
HETATM    3  C   UNL     1       5.811  29.964  56.322  1.00  0.00     0.141 A 
HETATM    4  N   UNL     1       7.049  30.187  56.858  1.00  0.00    -0.238 N 
HETATM    5  N   UNL     1       7.063  31.090  57.853  1.00  0.00    -0.163 NA
HETATM    6  C   UNL     1       5.756  31.426  58.008  1.00  0.00     0.165 A 
HETATM    7  C   UNL     1       4.955  30.747  57.054  1.00  0.00     0.092 A 
HETATM    8 BR   UNL     1       3.099  30.866  56.838  1.00  0.00    -0.044 Br
HETATM    9  C   UNL     1       8.268  29.551  56.396  1.00  0.00     0.221 C 
HETATM   10  C   UNL     1       8.058  28.913  55.010  1.00  0.00     0.066 C 
HETATM   11  H   UNL     1       4.691  28.853  54.990  1.00  0.00     0.162 HD
ENDROOT
BRANCH   6  12
HETATM   12  C   UNL     1       5.346  32.353  59.076  1.00  0.00     0.273 C 
HETATM   13  N   UNL     1       5.659  31.888  60.335  1.00  0.00    -0.353 N 
HETATM   14  H   UNL     1       6.051  30.950  60.374  1.00  0.00     0.162 HD
HETATM   15  O   UNL     1       4.755  33.410  58.881  1.00  0.00    -0.266 OA
BRANCH  13  16
HETATM   16  C   UNL     1       5.186  32.495  61.561  1.00  0.00     0.155 C 
BRANCH  16  17
HETATM   17  C   UNL     1       5.878  31.945  62.819  1.00  0.00     0.139 C 
HETATM   18  O   UNL     1       6.079  33.020  63.762  1.00  0.00    -0.384 OA
HETATM   19  C   UNL     1       7.472  33.085  64.093  1.00  0.00     0.168 C 
HETATM   20  C   UNL     1       8.219  32.360  62.999  1.00  0.00     0.029 C 
HETATM   21  C   UNL     1       7.236  31.295  62.585  1.00  0.00     0.035 C 
ENDBRANCH  16  17
ENDBRANCH  13  16
ENDBRANCH   6  12
BRANCH   9  22
HETATM   22  C   UNL     1       8.788  28.589  57.444  1.00  0.00     0.409 C 
HETATM   23  F   UNL     1       9.439  27.527  56.937  1.00  0.00    -0.169 F 
HETATM   24  F   UNL     1       9.649  29.228  58.278  1.00  0.00    -0.169 F 
HETATM   25  F   UNL     1       7.792  28.113  58.228  1.00  0.00    -0.169 F 
ENDBRANCH   9  22
BRANCH   1  26
HETATM   26  C   UNL     1       6.600  26.823  55.443  1.00  0.00    -0.035 A 
HETATM   27  C   UNL     1       7.482  25.782  55.110  1.00  0.00     0.009 A 
HETATM   28  C   UNL     1       7.362  24.519  55.696  1.00  0.00     0.001 A 
HETATM   29  C   UNL     1       6.365  24.277  56.634  1.00  0.00     0.000 A 
HETATM   30  C   UNL     1       5.490  25.297  56.993  1.00  0.00     0.001 A 
HETATM   31  C   UNL     1       5.609  26.559  56.406  1.00  0.00     0.009 A 
ENDBRANCH   1  26
TORSDOF 5
ENDMDL
MODEL 5
REMARK VINA RESULT:      -7.6      9.386     12.183
REMARK  5 active torsions:
REMARK  status: ('A' for Active; 'I' for Inactive)
REMARK    1  A    between atoms: C_4  and  C_5 
REMARK    2  A    between atoms: C_10  and  C_11 
REMARK       I    between atoms: C_11  and  N_12 
REMARK    3  A    between atoms: N_12  and  C_13 
REMARK    4  A    between atoms: C_13  and  C_14 
REMARK    5  A    between atoms: C_22  and  C_23 
ROOT
HETATM    1  C   UNL     1       3.473  35.158  63.341  1.00  0.00     0.118 C 
HETATM    2  N   UNL     1       3.244  34.861  61.930  1.00  0.00    -0.365 N 
HETATM    3  C   UNL     1       4.039  34.004  61.244  1.00  0.00     0.141 A 
HETATM    4  N   UNL     1       4.949  33.209  61.884  1.00  0.00    -0.238 N 
HETATM    5  N   UNL     1       5.628  32.385  61.068  1.00  0.00    -0.163 NA
HETATM    6  C   UNL     1       5.176  32.705  59.829  1.00  0.00     0.165 A 
HETATM    7  C   UNL     1       4.172  33.704  59.912  1.00  0.00     0.092 A 
HETATM    8 BR   UNL     1       3.225  34.485  58.498  1.00  0.00    -0.044 Br
HETATM    9  C   UNL     1       5.164  33.200  63.319  1.00  0.00     0.221 C 
HETATM   10  C   UNL     1       3.997  33.893  64.048  1.00  0.00     0.066 C 
HETATM   11  H   UNL     1       2.675  35.543  61.428  1.00  0.00     0.162 HD
ENDROOT
BRANCH   6  12
HETATM   12  C   UNL     1       5.749  32.060  58.636  1.00  0.00     0.273 C 
HETATM   13  N   UNL     1       6.175  30.773  58.878  1.00  0.00    -0.353 N 
HETATM   14  H   UNL     1       6.118  30.465  59.846  1.00  0.00     0.162 HD
HETATM   15  O   UNL     1       5.873  32.613  57.547  1.00  0.00    -0.266 OA
BRANCH  13  16
HETATM   16  C   UNL     1       6.962  29.993  57.945  1.00  0.00     0.155 C 
BRANCH  16  17
HETATM   17  C   UNL     1       8.371  29.666  58.463  1.00  0.00     0.139 C 
HETATM   18  O   UNL     1       8.463  30.022  59.859  1.00  0.00    -0.384 OA
HETATM   19  C   UNL     1       9.563  30.924  60.032  1.00  0.00     0.168 C 
HETATM   20  C   UNL     1       9.871  31.508  58.673  1.00  0.00     0.029 C 
HETATM   21  C   UNL     1       9.512  30.376  57.744  1.00  0.00     0.035 C 
ENDBRANCH  16  17
ENDBRANCH  13  16
ENDBRANCH   6  12
BRANCH   9  22
HETATM   22  C   UNL     1       6.525  33.776  63.648  1.00  0.00     0.409 C 
HETATM   23  F   UNL     1       6.919  34.758  62.817  1.00  0.00    -0.169 F 
HETATM   24  F   UNL     1       6.522  34.291  64.906  1.00  0.00    -0.169 F 
HETATM   25  F   UNL     1       7.490  32.827  63.634  1.00  0.00    -0.169 F 
ENDBRANCH   9  22
BRANCH   1  26
HETATM   26  C   UNL     1       4.300  36.413  63.565  1.00  0.00    -0.035 A 
HETATM   27  C   UNL     1       4.732  36.828  64.836  1.00  0.00     0.009 A 
HETATM   28  C   UNL     1       5.497  37.987  64.996  1.00  0.00     0.001 A 
HETATM   29  C   UNL     1       5.853  38.747  63.887  1.00  0.00     0.000 A 
HETATM   30  C   UNL     1       5.452  38.347  62.617  1.00  0.00     0.001 A 
HETATM   31  C   UNL     1       4.686  37.189  62.456  1.00  0.00     0.009 A 
ENDBRANCH   1  26
TORSDOF 5
ENDMDL
MODEL 6
REMARK VINA RESULT:      -7.6      8.861     11.218
REMARK  5 active torsions:
REMARK  status: ('A' for Active; 'I' for Inactive)
REMARK    1  A    between atoms: C_4  and  C_5 
REMARK    2  A    between atoms: C_10  and  C_11 
REMARK       I    between atoms: C_11  and  N_12 
REMARK    3  A    between atoms: N_12  and  C_13 
REMARK    4  A    between atoms: C_13  and  C_14 
REMARK    5  A    between atoms: C_22  and  C_23 
ROOT
HETATM    1  C   UNL     1       3.948  34.589  62.904  1.00  0.00     0.118 C 
HETATM    2  N   UNL     1       4.042  34.186  61.503  1.00  0.00    -0.365 N 
HETATM    3  C   UNL     1       5.006  33.340  61.068  1.00  0.00     0.141 A 
HETATM    4  N   UNL     1       5.796  32.648  61.944  1.00  0.00    -0.238 N 
HETATM    5  N   UNL     1       6.673  31.819  61.356  1.00  0.00    -0.163 NA
HETATM    6  C   UNL     1       6.482  32.028  60.028  1.00  0.00     0.165 A 
HETATM    7  C   UNL     1       5.436  32.963  59.821  1.00  0.00     0.092 A 
HETATM    8 BR   UNL     1       4.776  33.588  58.184  1.00  0.00    -0.044 Br
HETATM    9  C   UNL     1       5.699  32.747  63.389  1.00  0.00     0.221 C 
HETATM   10  C   UNL     1       4.370  33.409  63.801  1.00  0.00     0.066 C 
HETATM   11  H   UNL     1       3.560  34.797  60.842  1.00  0.00     0.162 HD
ENDROOT
BRANCH   6  12
HETATM   12  C   UNL     1       7.328  31.345  59.035  1.00  0.00     0.273 C 
HETATM   13  N   UNL     1       6.745  30.204  58.531  1.00  0.00    -0.353 N 
HETATM   14  H   UNL     1       5.859  29.937  58.956  1.00  0.00     0.162 HD
HETATM   15  O   UNL     1       8.451  31.722  58.712  1.00  0.00    -0.266 OA
BRANCH  13  16
HETATM   16  C   UNL     1       7.439  29.238  57.706  1.00  0.00     0.155 C 
BRANCH  16  17
HETATM   17  C   UNL     1       7.256  29.482  56.199  1.00  0.00     0.139 C 
HETATM   18  O   UNL     1       5.922  29.090  55.809  1.00  0.00    -0.384 OA
HETATM   19  C   UNL     1       6.017  28.130  54.749  1.00  0.00     0.168 C 
HETATM   20  C   UNL     1       7.416  27.564  54.793  1.00  0.00     0.029 C 
HETATM   21  C   UNL     1       8.225  28.732  55.293  1.00  0.00     0.035 C 
ENDBRANCH  16  17
ENDBRANCH  13  16
ENDBRANCH   6  12
BRANCH   9  22
HETATM   22  C   UNL     1       6.928  33.430  63.951  1.00  0.00     0.409 C 
HETATM   23  F   UNL     1       6.715  34.064  65.118  1.00  0.00    -0.169 F 
HETATM   24  F   UNL     1       7.913  32.518  64.162  1.00  0.00    -0.169 F 
HETATM   25  F   UNL     1       7.437  34.339  63.088  1.00  0.00    -0.169 F 
ENDBRANCH   9  22
BRANCH   1  26
HETATM   26  C   UNL     1       4.645  35.907  63.199  1.00  0.00    -0.035 A 
HETATM   27  C   UNL     1       5.331  36.645  62.221  1.00  0.00     0.009 A 
HETATM   28  C   UNL     1       5.953  37.857  62.534  1.00  0.00     0.001 A 
HETATM   29  C   UNL     1       5.892  38.358  63.830  1.00  0.00     0.000 A 
HETATM   30  C   UNL     1       5.205  37.653  64.813  1.00  0.00     0.001 A 
HETATM   31  C   UNL     1       4.583  36.441  64.499  1.00  0.00     0.009 A 
ENDBRANCH   1  26
TORSDOF 5
ENDMDL
MODEL 7
REMARK VINA RESULT:      -6.9      4.928      7.150
REMARK  5 active torsions:
REMARK  status: ('A' for Active; 'I' for Inactive)
REMARK    1  A    between atoms: C_4  and  C_5 
REMARK    2  A    between atoms: C_10  and  C_11 
REMARK       I    between atoms: C_11  and  N_12 
REMARK    3  A    between atoms: N_12  and  C_13 
REMARK    4  A    between atoms: C_13  and  C_14 
REMARK    5  A    between atoms: C_22  and  C_23 
ROOT
HETATM    1  C   UNL     1       3.258  31.046  56.488  1.00  0.00     0.118 C 
HETATM    2  N   UNL     1       3.395  30.056  55.424  1.00  0.00    -0.365 N 
HETATM    3  C   UNL     1       4.396  29.144  55.424  1.00  0.00     0.141 A 
HETATM    4  N   UNL     1       5.190  28.957  56.521  1.00  0.00    -0.238 N 
HETATM    5  N   UNL     1       6.108  27.986  56.377  1.00  0.00    -0.163 NA
HETATM    6  C   UNL     1       5.938  27.562  55.099  1.00  0.00     0.165 A 
HETATM    7  C   UNL     1       4.865  28.260  54.486  1.00  0.00     0.092 A 
HETATM    8 BR   UNL     1       4.220  28.047  52.741  1.00  0.00    -0.044 Br
HETATM    9  C   UNL     1       5.059  29.696  57.763  1.00  0.00     0.221 C 
HETATM   10  C   UNL     1       3.700  30.420  57.825  1.00  0.00     0.066 C 
HETATM   11  H   UNL     1       2.908  30.281  54.555  1.00  0.00     0.162 HD
ENDROOT
BRANCH   6  12
HETATM   12  C   UNL     1       6.828  26.538  54.528  1.00  0.00     0.273 C 
HETATM   13  N   UNL     1       6.928  25.416  55.321  1.00  0.00    -0.353 N 
HETATM   14  H   UNL     1       6.452  25.467  56.219  1.00  0.00     0.162 HD
HETATM   15  O   UNL     1       7.449  26.673  53.478  1.00  0.00    -0.266 OA
BRANCH  13  16
HETATM   16  C   UNL     1       7.889  24.356  55.103  1.00  0.00     0.155 C 
BRANCH  16  17
HETATM   17  C   UNL     1       7.273  23.095  54.475  1.00  0.00     0.139 C 
HETATM   18  O   UNL     1       7.493  21.968  55.350  1.00  0.00    -0.384 OA
HETATM   19  C   UNL     1       8.166  20.939  54.614  1.00  0.00     0.168 C 
HETATM   20  C   UNL     1       8.792  21.599  53.408  1.00  0.00     0.029 C 
HETATM   21  C   UNL     1       7.822  22.712  53.106  1.00  0.00     0.035 C 
ENDBRANCH  16  17
ENDBRANCH  13  16
ENDBRANCH   6  12
BRANCH   9  22
HETATM   22  C   UNL     1       6.252  30.609  57.959  1.00  0.00     0.409 C 
HETATM   23  F   UNL     1       5.983  31.715  58.675  1.00  0.00    -0.169 F 
HETATM   24  F   UNL     1       7.247  29.944  58.603  1.00  0.00    -0.169 F 
HETATM   25  F   UNL     1       6.775  31.013  56.777  1.00  0.00    -0.169 F 
ENDBRANCH   9  22
BRANCH   1  26
HETATM   26  C   UNL     1       3.904  32.382  56.155  1.00  0.00    -0.035 A 
HETATM   27  C   UNL     1       4.538  32.640  54.928  1.00  0.00     0.009 A 
HETATM   28  C   UNL     1       5.113  33.885  54.661  1.00  0.00     0.001 A 
HETATM   29  C   UNL     1       5.057  34.899  55.611  1.00  0.00     0.000 A 
HETATM   30  C   UNL     1       4.420  34.673  56.826  1.00  0.00     0.001 A 
HETATM   31  C   UNL     1       3.845  33.427  57.094  1.00  0.00     0.009 A 
ENDBRANCH   1  26
TORSDOF 5
ENDMDL
MODEL 8
REMARK VINA RESULT:      -6.7      3.063      7.699
REMARK  5 active torsions:
REMARK  status: ('A' for Active; 'I' for Inactive)
REMARK    1  A    between atoms: C_4  and  C_5 
REMARK    2  A    between atoms: C_10  and  C_11 
REMARK       I    between atoms: C_11  and  N_12 
REMARK    3  A    between atoms: N_12  and  C_13 
REMARK    4  A    between atoms: C_13  and  C_14 
REMARK    5  A    between atoms: C_22  and  C_23 
ROOT
HETATM    1  C   UNL     1       4.473  29.842  49.395  1.00  0.00     0.118 C 
HETATM    2  N   UNL     1       4.218  30.409  50.716  1.00  0.00    -0.365 N 
HETATM    3  C   UNL     1       4.561  29.753  51.851  1.00  0.00     0.141 A 
HETATM    4  N   UNL     1       5.356  28.641  51.819  1.00  0.00    -0.238 N 
HETATM    5  N   UNL     1       5.639  28.133  53.030  1.00  0.00    -0.163 NA
HETATM    6  C   UNL     1       4.943  28.922  53.887  1.00  0.00     0.165 A 
HETATM    7  C   UNL     1       4.272  29.951  53.177  1.00  0.00     0.092 A 
HETATM    8 BR   UNL     1       3.187  31.302  53.887  1.00  0.00    -0.044 Br
HETATM    9  C   UNL     1       5.896  28.054  50.607  1.00  0.00     0.221 C 
HETATM   10  C   UNL     1       5.789  29.042  49.429  1.00  0.00     0.066 C 
HETATM   11  H   UNL     1       3.514  31.147  50.745  1.00  0.00     0.162 HD
ENDROOT
BRANCH   6  12
HETATM   12  C   UNL     1       4.935  28.632  55.330  1.00  0.00     0.273 C 
HETATM   13  N   UNL     1       6.201  28.570  55.869  1.00  0.00    -0.353 N 
HETATM   14  H   UNL     1       6.968  28.650  55.205  1.00  0.00     0.162 HD
HETATM   15  O   UNL     1       3.918  28.426  55.986  1.00  0.00    -0.266 OA
BRANCH  13  16
HETATM   16  C   UNL     1       6.488  28.097  57.207  1.00  0.00     0.155 C 
BRANCH  16  17
HETATM   17  C   UNL     1       7.058  26.670  57.238  1.00  0.00     0.139 C 
HETATM   18  O   UNL     1       7.852  26.446  56.053  1.00  0.00    -0.384 OA
HETATM   19  C   UNL     1       7.349  25.287  55.376  1.00  0.00     0.168 C 
HETATM   20  C   UNL     1       5.943  25.059  55.880  1.00  0.00     0.029 C 
HETATM   21  C   UNL     1       6.023  25.554  57.301  1.00  0.00     0.035 C 
ENDBRANCH  16  17
ENDBRANCH  13  16
ENDBRANCH   6  12
BRANCH   9  22
HETATM   22  C   UNL     1       5.252  26.709  50.343  1.00  0.00     0.409 C 
HETATM   23  F   UNL     1       4.010  26.590  50.845  1.00  0.00    -0.169 F 
HETATM   24  F   UNL     1       5.168  26.486  49.005  1.00  0.00    -0.169 F 
HETATM   25  F   UNL     1       5.988  25.691  50.847  1.00  0.00    -0.169 F 
ENDBRANCH   9  22
BRANCH   1  26
HETATM   26  C   UNL     1       3.278  29.096  48.820  1.00  0.00    -0.035 A 
HETATM   27  C   UNL     1       2.128  28.801  49.570  1.00  0.00     0.009 A 
HETATM   28  C   UNL     1       1.050  28.119  49.000  1.00  0.00     0.001 A 
HETATM   29  C   UNL     1       1.097  27.729  47.666  1.00  0.00     0.000 A 
HETATM   30  C   UNL     1       2.219  28.024  46.898  1.00  0.00     0.001 A 
HETATM   31  C   UNL     1       3.297  28.706  47.468  1.00  0.00     0.009 A 
ENDBRANCH   1  26
TORSDOF 5
ENDMDL
MODEL 9
REMARK VINA RESULT:      -6.7      3.424      8.059
REMARK  5 active torsions:
REMARK  status: ('A' for Active; 'I' for Inactive)
REMARK    1  A    between atoms: C_4  and  C_5 
REMARK    2  A    between atoms: C_10  and  C_11 
REMARK       I    between atoms: C_11  and  N_12 
REMARK    3  A    between atoms: N_12  and  C_13 
REMARK    4  A    between atoms: C_13  and  C_14 
REMARK    5  A    between atoms: C_22  and  C_23 
ROOT
HETATM    1  C   UNL     1       4.098  30.516  48.221  1.00  0.00     0.118 C 
HETATM    2  N   UNL     1       4.296  30.775  49.644  1.00  0.00    -0.365 N 
HETATM    3  C   UNL     1       4.511  29.770  50.528  1.00  0.00     0.141 A 
HETATM    4  N   UNL     1       4.774  28.496  50.108  1.00  0.00    -0.238 N 
HETATM    5  N   UNL     1       5.007  27.626  51.105  1.00  0.00    -0.163 NA
HETATM    6  C   UNL     1       4.827  28.362  52.231  1.00  0.00     0.165 A 
HETATM    7  C   UNL     1       4.530  29.709  51.898  1.00  0.00     0.092 A 
HETATM    8 BR   UNL     1       4.204  31.127  53.077  1.00  0.00    -0.044 Br
HETATM    9  C   UNL     1       4.842  28.089  48.717  1.00  0.00     0.221 C 
HETATM   10  C   UNL     1       4.968  29.317  47.796  1.00  0.00     0.066 C 
HETATM   11  H   UNL     1       3.964  31.682  49.973  1.00  0.00     0.162 HD
ENDROOT
BRANCH   6  12
HETATM   12  C   UNL     1       4.919  27.731  53.558  1.00  0.00     0.273 C 
HETATM   13  N   UNL     1       6.024  26.920  53.688  1.00  0.00    -0.353 N 
HETATM   14  H   UNL     1       6.581  26.796  52.845  1.00  0.00     0.162 HD
HETATM   15  O   UNL     1       4.087  27.876  54.449  1.00  0.00    -0.266 OA
BRANCH  13  16
HETATM   16  C   UNL     1       6.243  26.023  54.803  1.00  0.00     0.155 C 
BRANCH  16  17
HETATM   17  C   UNL     1       6.152  24.538  54.417  1.00  0.00     0.139 C 
HETATM   18  O   UNL     1       7.059  23.774  55.240  1.00  0.00    -0.384 OA
HETATM   19  C   UNL     1       7.942  23.035  54.386  1.00  0.00     0.168 C 
HETATM   20  C   UNL     1       7.900  23.701  53.030  1.00  0.00     0.029 C 
HETATM   21  C   UNL     1       6.487  24.219  52.966  1.00  0.00     0.035 C 
ENDBRANCH  16  17
ENDBRANCH  13  16
ENDBRANCH   6  12
BRANCH   9  22
HETATM   22  C   UNL     1       3.678  27.181  48.379  1.00  0.00     0.409 C 
HETATM   23  F   UNL     1       3.353  27.174  47.074  1.00  0.00    -0.169 F 
HETATM   24  F   UNL     1       3.967  25.901  48.729  1.00  0.00    -0.169 F 
HETATM   25  F   UNL     1       2.563  27.517  49.068  1.00  0.00    -0.169 F 
ENDBRANCH   9  22
BRANCH   1  26
HETATM   26  C   UNL     1       2.633  30.424  47.825  1.00  0.00    -0.035 A 
HETATM   27  C   UNL     1       1.581  30.675  48.722  1.00  0.00     0.009 A 
HETATM   28  C   UNL     1       0.247  30.585  48.313  1.00  0.00     0.001 A 
HETATM   29  C   UNL     1      -0.059  30.253  46.998  1.00  0.00     0.000 A 
HETATM   30  C   UNL     1       0.965  30.017  46.088  1.00  0.00     0.001 A 
HETATM   31  C   UNL     1       2.299  30.106  46.496  1.00  0.00     0.009 A 
ENDBRANCH   1  26
TORSDOF 5
ENDMDL
MODEL 10
REMARK VINA RESULT:      -6.7      3.287      8.100
REMARK  5 active torsions:
REMARK  status: ('A' for Active; 'I' for Inactive)
REMARK    1  A    between atoms: C_4  and  C_5 
REMARK    2  A    between atoms: C_10  and  C_11 
REMARK       I    between atoms: C_11  and  N_12 
REMARK    3  A    between atoms: N_12  and  C_13 
REMARK    4  A    between atoms: C_13  and  C_14 
REMARK    5  A    between atoms: C_22  and  C_23 
ROOT
HETATM    1  C   UNL     1       4.393  29.661  48.845  1.00  0.00     0.118 C 
HETATM    2  N   UNL     1       4.077  30.467  50.022  1.00  0.00    -0.365 N 
HETATM    3  C   UNL     1       4.419  30.068  51.271  1.00  0.00     0.141 A 
HETATM    4  N   UNL     1       5.266  29.014  51.476  1.00  0.00    -0.238 N 
HETATM    5  N   UNL     1       5.540  28.773  52.769  1.00  0.00    -0.163 NA
HETATM    6  C   UNL     1       4.785  29.681  53.438  1.00  0.00     0.165 A 
HETATM    7  C   UNL     1       4.087  30.512  52.525  1.00  0.00     0.092 A 
HETATM    8 BR   UNL     1       2.922  31.921  52.931  1.00  0.00    -0.044 Br
HETATM    9  C   UNL     1       5.865  28.225  50.415  1.00  0.00     0.221 C 
HETATM   10  C   UNL     1       5.744  28.952  49.062  1.00  0.00     0.066 C 
HETATM   11  H   UNL     1       3.339  31.159  49.890  1.00  0.00     0.162 HD
ENDROOT
BRANCH   6  12
HETATM   12  C   UNL     1       4.752  29.684  54.910  1.00  0.00     0.273 C 
HETATM   13  N   UNL     1       5.935  30.114  55.470  1.00  0.00    -0.353 N 
HETATM   14  H   UNL     1       6.693  30.293  54.815  1.00  0.00     0.162 HD
HETATM   15  O   UNL     1       3.793  29.310  55.578  1.00  0.00    -0.266 OA
BRANCH  13  16
HETATM   16  C   UNL     1       6.245  30.015  56.881  1.00  0.00     0.155 C 
BRANCH  16  17
HETATM   17  C   UNL     1       7.386  29.032  57.186  1.00  0.00     0.139 C 
HETATM   18  O   UNL     1       8.274  29.619  58.161  1.00  0.00    -0.384 OA
HETATM   19  C   UNL     1       9.604  29.627  57.626  1.00  0.00     0.168 C 
HETATM   20  C   UNL     1       9.475  29.480  56.128  1.00  0.00     0.029 C 
HETATM   21  C   UNL     1       8.239  28.629  55.990  1.00  0.00     0.035 C 
ENDBRANCH  16  17
ENDBRANCH  13  16
ENDBRANCH   6  12
BRANCH   9  22
HETATM   22  C   UNL     1       5.291  26.824  50.416  1.00  0.00     0.409 C 
HETATM   23  F   UNL     1       5.190  26.274  49.192  1.00  0.00    -0.169 F 
HETATM   24  F   UNL     1       6.070  26.000  51.164  1.00  0.00    -0.169 F 
HETATM   25  F   UNL     1       4.059  26.786  50.976  1.00  0.00    -0.169 F 
ENDBRANCH   9  22
BRANCH   1  26
HETATM   26  C   UNL     1       3.250  28.756  48.412  1.00  0.00    -0.035 A 
HETATM   27  C   UNL     1       3.343  27.876  47.321  1.00  0.00     0.009 A 
HETATM   28  C   UNL     1       2.269  27.057  46.961  1.00  0.00     0.001 A 
HETATM   29  C   UNL     1       1.086  27.095  47.691  1.00  0.00     0.000 A 
HETATM   30  C   UNL     1       0.977  27.946  48.786  1.00  0.00     0.001 A 
HETATM   31  C   UNL     1       2.050  28.765  49.146  1.00  0.00     0.009 A 
ENDBRANCH   1  26
TORSDOF 5
ENDMDL
