MODEL 1
REMARK VINA RESULT:      -9.3      0.000      0.000
REMARK  5 active torsions:
REMARK  status: ('A' for Active; 'I' for Inactive)
REMARK    1  A    between atoms: C_2  and  N_3 
REMARK       I    between atoms: N_3  and  C_4 
REMARK    2  A    between atoms: C_4  and  C_5 
REMARK    3  A    between atoms: C_8  and  N_9 
REMARK       I    between atoms: N_9  and  C_10 
REMARK       I    between atoms: C_10  and  N_11 
REMARK    4  A    between atoms: N_11  and  C_12 
REMARK    5  A    between atoms: C_17  and  C_18 
ROOT
HETATM    1  N   UNL     1       7.063  32.593  61.253  1.00  0.00    -0.309 N 
HETATM    2  C   UNL     1       7.740  31.471  60.793  1.00  0.00     0.325 C 
HETATM    3  N   UNL     1       7.606  31.371  59.416  1.00  0.00    -0.308 N 
HETATM    4  O   UNL     1       8.324  30.668  61.507  1.00  0.00    -0.247 OA
HETATM    5  H   UNL     1       6.917  33.329  60.578  1.00  0.00     0.170 HD
HETATM    6  H   UNL     1       6.857  31.920  59.029  1.00  0.00     0.170 HD
ENDROOT
BRANCH   1   7
HETATM    7  C   UNL     1       6.670  32.865  62.579  1.00  0.00     0.036 A 
HETATM    8  C   UNL     1       5.337  32.985  62.981  1.00  0.00     0.030 A 
HETATM    9  C   UNL     1       5.017  33.349  64.293  1.00  0.00     0.019 A 
HETATM   10  C   UNL     1       6.032  33.614  65.218  1.00  0.00     0.032 A 
HETATM   11  C   UNL     1       7.366  33.456  64.832  1.00  0.00     0.019 A 
HETATM   12  C   UNL     1       7.683  33.087  63.520  1.00  0.00     0.030 A 
BRANCH  10  13
HETATM   13  C   UNL     1       5.740  34.074  66.605  1.00  0.00     0.251 C 
HETATM   14  N   UNL     1       6.834  34.414  67.377  1.00  0.00    -0.357 N 
HETATM   15  H   UNL     1       7.762  34.197  67.040  1.00  0.00     0.162 HD
HETATM   16  O   UNL     1       4.586  34.088  67.018  1.00  0.00    -0.268 OA
BRANCH  14  17
HETATM   17  C   UNL     1       6.698  34.744  68.780  1.00  0.00     0.118 C 
HETATM   18  C   UNL     1       8.053  34.956  69.432  1.00  0.00     0.026 C 
ENDBRANCH  14  17
ENDBRANCH  10  13
ENDBRANCH   1   7
BRANCH   3  19
HETATM   19  C   UNL     1       8.137  30.358  58.578  1.00  0.00     0.043 A 
HETATM   20  C   UNL     1       9.464  30.488  58.113  1.00  0.00    -0.035 A 
HETATM   21  C   UNL     1      10.338  31.659  58.477  1.00  0.00     0.050 C 
HETATM   22  C   UNL     1       9.987  29.509  57.253  1.00  0.00     0.010 A 
HETATM   23  C   UNL     1       9.218  28.411  56.869  1.00  0.00     0.016 A 
HETATM   24  C   UNL     1       7.912  28.253  57.344  1.00  0.00     0.019 A 
HETATM   25  C   UNL     1       7.388  29.234  58.201  1.00  0.00     0.046 A 
BRANCH  24  26
HETATM   26  C   UNL     1       7.135  27.088  56.931  1.00  0.00     0.179 A 
HETATM   27  O   UNL     1       7.227  25.966  57.716  1.00  0.00    -0.302 OA
HETATM   28  C   UNL     1       6.418  25.059  57.103  1.00  0.00     0.163 A 
HETATM   29  C   UNL     1       5.879  25.655  55.992  1.00  0.00     0.144 A 
HETATM   30  N   UNL     1       6.342  26.943  55.883  1.00  0.00    -0.234 NA
ENDBRANCH  24  26
ENDBRANCH   3  19
TORSDOF 5
ENDMDL
MODEL 2
REMARK VINA RESULT:      -9.1      2.733     10.920
REMARK  5 active torsions:
REMARK  status: ('A' for Active; 'I' for Inactive)
REMARK    1  A    between atoms: C_2  and  N_3 
REMARK       I    between atoms: N_3  and  C_4 
REMARK    2  A    between atoms: C_4  and  C_5 
REMARK    3  A    between atoms: C_8  and  N_9 
REMARK       I    between atoms: N_9  and  C_10 
REMARK       I    between atoms: C_10  and  N_11 
REMARK    4  A    between atoms: N_11  and  C_12 
REMARK    5  A    between atoms: C_17  and  C_18 
ROOT
HETATM    1  N   UNL     1       6.838  28.192  56.225  1.00  0.00    -0.309 N 
HETATM    2  C   UNL     1       7.423  28.601  57.416  1.00  0.00     0.325 C 
HETATM    3  N   UNL     1       7.453  29.988  57.474  1.00  0.00    -0.308 N 
HETATM    4  O   UNL     1       7.886  27.848  58.261  1.00  0.00    -0.247 OA
HETATM    5  H   UNL     1       6.217  28.855  55.786  1.00  0.00     0.170 HD
HETATM    6  H   UNL     1       7.320  30.445  56.588  1.00  0.00     0.170 HD
ENDROOT
BRANCH   1   7
HETATM    7  C   UNL     1       6.920  26.916  55.632  1.00  0.00     0.036 A 
HETATM    8  C   UNL     1       6.622  25.730  56.306  1.00  0.00     0.030 A 
HETATM    9  C   UNL     1       6.813  24.489  55.688  1.00  0.00     0.019 A 
HETATM   10  C   UNL     1       7.323  24.421  54.388  1.00  0.00     0.032 A 
HETATM   11  C   UNL     1       7.585  25.606  53.694  1.00  0.00     0.019 A 
HETATM   12  C   UNL     1       7.388  26.845  54.313  1.00  0.00     0.030 A 
BRANCH  10  13
HETATM   13  C   UNL     1       7.611  23.122  53.717  1.00  0.00     0.251 C 
HETATM   14  N   UNL     1       7.552  21.997  54.516  1.00  0.00    -0.357 N 
HETATM   15  H   UNL     1       7.472  22.107  55.517  1.00  0.00     0.162 HD
HETATM   16  O   UNL     1       7.931  23.100  52.533  1.00  0.00    -0.268 OA
BRANCH  14  17
HETATM   17  C   UNL     1       7.942  20.694  54.020  1.00  0.00     0.118 C 
HETATM   18  C   UNL     1       8.765  19.936  55.045  1.00  0.00     0.026 C 
ENDBRANCH  14  17
ENDBRANCH  10  13
ENDBRANCH   1   7
BRANCH   3  19
HETATM   19  C   UNL     1       7.983  30.786  58.518  1.00  0.00     0.043 A 
HETATM   20  C   UNL     1       9.365  31.081  58.514  1.00  0.00    -0.035 A 
HETATM   21  C   UNL     1      10.295  30.582  57.440  1.00  0.00     0.050 C 
HETATM   22  C   UNL     1       9.906  31.840  59.563  1.00  0.00     0.010 A 
HETATM   23  C   UNL     1       9.096  32.315  60.593  1.00  0.00     0.016 A 
HETATM   24  C   UNL     1       7.721  32.056  60.597  1.00  0.00     0.019 A 
HETATM   25  C   UNL     1       7.180  31.294  59.549  1.00  0.00     0.046 A 
BRANCH  24  26
HETATM   26  C   UNL     1       6.897  32.575  61.685  1.00  0.00     0.179 A 
HETATM   27  O   UNL     1       6.267  31.654  62.485  1.00  0.00    -0.302 OA
HETATM   28  C   UNL     1       5.584  32.407  63.390  1.00  0.00     0.163 A 
HETATM   29  C   UNL     1       5.822  33.727  63.109  1.00  0.00     0.144 A 
HETATM   30  N   UNL     1       6.652  33.830  62.021  1.00  0.00    -0.234 NA
ENDBRANCH  24  26
ENDBRANCH   3  19
TORSDOF 5
ENDMDL
MODEL 3
REMARK VINA RESULT:      -8.8      2.975      5.866
REMARK  5 active torsions:
REMARK  status: ('A' for Active; 'I' for Inactive)
REMARK    1  A    between atoms: C_2  and  N_3 
REMARK       I    between atoms: N_3  and  C_4 
REMARK    2  A    between atoms: C_4  and  C_5 
REMARK    3  A    between atoms: C_8  and  N_9 
REMARK       I    between atoms: N_9  and  C_10 
REMARK       I    between atoms: C_10  and  N_11 
REMARK    4  A    between atoms: N_11  and  C_12 
REMARK    5  A    between atoms: C_17  and  C_18 
ROOT
HETATM    1  N   UNL     1       7.829  29.262  56.822  1.00  0.00    -0.309 N 
HETATM    2  C   UNL     1       7.129  28.107  56.501  1.00  0.00     0.325 C 
HETATM    3  N   UNL     1       7.388  27.748  55.186  1.00  0.00    -0.308 N 
HETATM    4  O   UNL     1       6.362  27.524  57.254  1.00  0.00    -0.247 OA
HETATM    5  H   UNL     1       8.652  29.450  56.268  1.00  0.00     0.170 HD
HETATM    6  H   UNL     1       7.784  28.484  54.624  1.00  0.00     0.170 HD
ENDROOT
BRANCH   1   7
HETATM    7  C   UNL     1       7.590  30.128  57.908  1.00  0.00     0.036 A 
HETATM    8  C   UNL     1       8.338  30.113  59.088  1.00  0.00     0.030 A 
HETATM    9  C   UNL     1       7.988  30.935  60.166  1.00  0.00     0.019 A 
HETATM   10  C   UNL     1       6.872  31.773  60.079  1.00  0.00     0.032 A 
HETATM   11  C   UNL     1       6.145  31.821  58.887  1.00  0.00     0.019 A 
HETATM   12  C   UNL     1       6.499  31.001  57.810  1.00  0.00     0.030 A 
BRANCH  10  13
HETATM   13  C   UNL     1       6.420  32.611  61.225  1.00  0.00     0.251 C 
HETATM   14  N   UNL     1       6.847  32.213  62.477  1.00  0.00    -0.357 N 
HETATM   15  H   UNL     1       7.302  31.316  62.581  1.00  0.00     0.162 HD
HETATM   16  O   UNL     1       5.670  33.562  61.034  1.00  0.00    -0.268 OA
BRANCH  14  17
HETATM   17  C   UNL     1       6.369  32.858  63.682  1.00  0.00     0.118 C 
HETATM   18  C   UNL     1       7.520  33.369  64.530  1.00  0.00     0.026 C 
ENDBRANCH  14  17
ENDBRANCH  10  13
ENDBRANCH   1   7
BRANCH   3  19
HETATM   19  C   UNL     1       6.853  26.641  54.482  1.00  0.00     0.043 A 
HETATM   20  C   UNL     1       5.745  26.848  53.631  1.00  0.00    -0.035 A 
HETATM   21  C   UNL     1       5.114  28.202  53.439  1.00  0.00     0.050 C 
HETATM   22  C   UNL     1       5.184  25.752  52.957  1.00  0.00     0.010 A 
HETATM   23  C   UNL     1       5.716  24.472  53.109  1.00  0.00     0.016 A 
HETATM   24  C   UNL     1       6.831  24.255  53.926  1.00  0.00     0.019 A 
HETATM   25  C   UNL     1       7.390  25.351  54.602  1.00  0.00     0.046 A 
BRANCH  24  26
HETATM   26  C   UNL     1       7.371  22.905  54.058  1.00  0.00     0.179 A 
HETATM   27  O   UNL     1       7.651  22.228  52.897  1.00  0.00    -0.302 OA
HETATM   28  C   UNL     1       8.127  21.024  53.316  1.00  0.00     0.163 A 
HETATM   29  C   UNL     1       8.116  21.018  54.687  1.00  0.00     0.144 A 
HETATM   30  N   UNL     1       7.629  22.213  55.155  1.00  0.00    -0.234 NA
ENDBRANCH  24  26
ENDBRANCH   3  19
TORSDOF 5
ENDMDL
MODEL 4
REMARK VINA RESULT:      -8.7     10.335     14.344
REMARK  5 active torsions:
REMARK  status: ('A' for Active; 'I' for Inactive)
REMARK    1  A    between atoms: C_2  and  N_3 
REMARK       I    between atoms: N_3  and  C_4 
REMARK    2  A    between atoms: C_4  and  C_5 
REMARK    3  A    between atoms: C_8  and  N_9 
REMARK       I    between atoms: N_9  and  C_10 
REMARK       I    between atoms: C_10  and  N_11 
REMARK    4  A    between atoms: N_11  and  C_12 
REMARK    5  A    between atoms: C_17  and  C_18 
ROOT
HETATM    1  N   UNL     1       5.326  26.616  49.840  1.00  0.00    -0.309 N 
HETATM    2  C   UNL     1       5.387  26.220  51.169  1.00  0.00     0.325 C 
HETATM    3  N   UNL     1       6.676  25.812  51.481  1.00  0.00    -0.308 N 
HETATM    4  O   UNL     1       4.432  26.191  51.932  1.00  0.00    -0.247 OA
HETATM    5  H   UNL     1       6.199  26.910  49.425  1.00  0.00     0.170 HD
HETATM    6  H   UNL     1       7.253  25.608  50.682  1.00  0.00     0.170 HD
ENDROOT
BRANCH   1   7
HETATM    7  C   UNL     1       4.169  26.770  49.050  1.00  0.00     0.036 A 
HETATM    8  C   UNL     1       3.783  25.864  48.060  1.00  0.00     0.030 A 
HETATM    9  C   UNL     1       2.673  26.123  47.247  1.00  0.00     0.019 A 
HETATM   10  C   UNL     1       1.945  27.306  47.407  1.00  0.00     0.032 A 
HETATM   11  C   UNL     1       2.303  28.197  48.423  1.00  0.00     0.019 A 
HETATM   12  C   UNL     1       3.410  27.932  49.237  1.00  0.00     0.030 A 
BRANCH  10  13
HETATM   13  C   UNL     1       0.802  27.658  46.519  1.00  0.00     0.251 C 
HETATM   14  N   UNL     1       0.318  28.947  46.631  1.00  0.00    -0.357 N 
HETATM   15  H   UNL     1       0.641  29.531  47.390  1.00  0.00     0.162 HD
HETATM   16  O   UNL     1       0.312  26.811  45.781  1.00  0.00    -0.268 OA
BRANCH  14  17
HETATM   17  C   UNL     1      -0.873  29.374  45.926  1.00  0.00     0.118 C 
HETATM   18  C   UNL     1      -0.603  30.604  45.078  1.00  0.00     0.026 C 
ENDBRANCH  14  17
ENDBRANCH  10  13
ENDBRANCH   1   7
BRANCH   3  19
HETATM   19  C   UNL     1       7.138  25.323  52.729  1.00  0.00     0.043 A 
HETATM   20  C   UNL     1       7.365  26.242  53.777  1.00  0.00    -0.035 A 
HETATM   21  C   UNL     1       7.131  27.721  53.621  1.00  0.00     0.050 C 
HETATM   22  C   UNL     1       7.858  25.773  55.004  1.00  0.00     0.010 A 
HETATM   23  C   UNL     1       8.108  24.415  55.202  1.00  0.00     0.016 A 
HETATM   24  C   UNL     1       7.861  23.489  54.184  1.00  0.00     0.019 A 
HETATM   25  C   UNL     1       7.372  23.959  52.954  1.00  0.00     0.046 A 
BRANCH  24  26
HETATM   26  C   UNL     1       8.125  22.073  54.423  1.00  0.00     0.179 A 
HETATM   27  O   UNL     1       7.651  21.539  55.595  1.00  0.00    -0.302 OA
HETATM   28  C   UNL     1       8.037  20.234  55.551  1.00  0.00     0.163 A 
HETATM   29  C   UNL     1       8.718  20.034  54.378  1.00  0.00     0.144 A 
HETATM   30  N   UNL     1       8.777  21.206  53.667  1.00  0.00    -0.234 NA
ENDBRANCH  24  26
ENDBRANCH   3  19
TORSDOF 5
ENDMDL
MODEL 5
REMARK VINA RESULT:      -8.5      3.004      4.728
REMARK  5 active torsions:
REMARK  status: ('A' for Active; 'I' for Inactive)
REMARK    1  A    between atoms: C_2  and  N_3 
REMARK       I    between atoms: N_3  and  C_4 
REMARK    2  A    between atoms: C_4  and  C_5 
REMARK    3  A    between atoms: C_8  and  N_9 
REMARK       I    between atoms: N_9  and  C_10 
REMARK       I    between atoms: C_10  and  N_11 
REMARK    4  A    between atoms: N_11  and  C_12 
REMARK    5  A    between atoms: C_17  and  C_18 
ROOT
HETATM    1  N   UNL     1       4.836  33.220  64.445  1.00  0.00    -0.309 N 
HETATM    2  C   UNL     1       5.358  33.476  63.184  1.00  0.00     0.325 C 
HETATM    3  N   UNL     1       4.956  32.487  62.297  1.00  0.00    -0.308 N 
HETATM    4  O   UNL     1       6.102  34.408  62.914  1.00  0.00    -0.247 OA
HETATM    5  H   UNL     1       4.003  32.649  64.472  1.00  0.00     0.170 HD
HETATM    6  H   UNL     1       4.614  31.648  62.736  1.00  0.00     0.170 HD
ENDROOT
BRANCH   1   7
HETATM    7  C   UNL     1       5.265  33.768  65.671  1.00  0.00     0.036 A 
HETATM    8  C   UNL     1       6.606  33.849  66.054  1.00  0.00     0.030 A 
HETATM    9  C   UNL     1       6.959  34.318  67.324  1.00  0.00     0.019 A 
HETATM   10  C   UNL     1       5.968  34.698  68.235  1.00  0.00     0.032 A 
HETATM   11  C   UNL     1       4.627  34.657  67.842  1.00  0.00     0.019 A 
HETATM   12  C   UNL     1       4.278  34.191  66.570  1.00  0.00     0.030 A 
BRANCH  10  13
HETATM   13  C   UNL     1       6.292  35.135  69.622  1.00  0.00     0.251 C 
HETATM   14  N   UNL     1       7.445  35.881  69.772  1.00  0.00    -0.357 N 
HETATM   15  H   UNL     1       8.082  35.966  68.992  1.00  0.00     0.162 HD
HETATM   16  O   UNL     1       5.580  34.789  70.558  1.00  0.00    -0.268 OA
BRANCH  14  17
HETATM   17  C   UNL     1       7.944  36.250  71.080  1.00  0.00     0.118 C 
HETATM   18  C   UNL     1       8.175  37.747  71.182  1.00  0.00     0.026 C 
ENDBRANCH  14  17
ENDBRANCH  10  13
ENDBRANCH   1   7
BRANCH   3  19
HETATM   19  C   UNL     1       5.293  32.384  60.925  1.00  0.00     0.043 A 
HETATM   20  C   UNL     1       4.329  32.747  59.959  1.00  0.00    -0.035 A 
HETATM   21  C   UNL     1       2.958  33.246  60.333  1.00  0.00     0.050 C 
HETATM   22  C   UNL     1       4.639  32.614  58.597  1.00  0.00     0.010 A 
HETATM   23  C   UNL     1       5.888  32.142  58.192  1.00  0.00     0.016 A 
HETATM   24  C   UNL     1       6.863  31.805  59.135  1.00  0.00     0.019 A 
HETATM   25  C   UNL     1       6.551  31.935  60.498  1.00  0.00     0.046 A 
BRANCH  24  26
HETATM   26  C   UNL     1       8.164  31.322  58.680  1.00  0.00     0.179 A 
HETATM   27  O   UNL     1       9.230  32.177  58.815  1.00  0.00    -0.302 OA
HETATM   28  C   UNL     1      10.286  31.478  58.318  1.00  0.00     0.163 A 
HETATM   29  C   UNL     1       9.829  30.253  57.908  1.00  0.00     0.144 A 
HETATM   30  N   UNL     1       8.479  30.160  58.134  1.00  0.00    -0.234 NA
ENDBRANCH  24  26
ENDBRANCH   3  19
TORSDOF 5
ENDMDL
MODEL 6
REMARK VINA RESULT:      -8.4      7.097     14.106
REMARK  5 active torsions:
REMARK  status: ('A' for Active; 'I' for Inactive)
REMARK    1  A    between atoms: C_2  and  N_3 
REMARK       I    between atoms: N_3  and  C_4 
REMARK    2  A    between atoms: C_4  and  C_5 
REMARK    3  A    between atoms: C_8  and  N_9 
REMARK       I    between atoms: N_9  and  C_10 
REMARK       I    between atoms: C_10  and  N_11 
REMARK    4  A    between atoms: N_11  and  C_12 
REMARK    5  A    between atoms: C_17  and  C_18 
ROOT
HETATM    1  N   UNL     1       5.470  26.565  50.022  1.00  0.00    -0.309 N 
HETATM    2  C   UNL     1       5.515  26.530  51.409  1.00  0.00     0.325 C 
HETATM    3  N   UNL     1       6.702  25.943  51.827  1.00  0.00    -0.308 N 
HETATM    4  O   UNL     1       4.619  26.915  52.147  1.00  0.00    -0.247 OA
HETATM    5  H   UNL     1       6.361  26.538  49.549  1.00  0.00     0.170 HD
HETATM    6  H   UNL     1       7.178  25.413  51.116  1.00  0.00     0.170 HD
ENDROOT
BRANCH   1   7
HETATM    7  C   UNL     1       4.332  26.758  49.213  1.00  0.00     0.036 A 
HETATM    8  C   UNL     1       3.688  25.726  48.526  1.00  0.00     0.030 A 
HETATM    9  C   UNL     1       2.619  26.000  47.665  1.00  0.00     0.019 A 
HETATM   10  C   UNL     1       2.192  27.316  47.469  1.00  0.00     0.032 A 
HETATM   11  C   UNL     1       2.807  28.348  48.185  1.00  0.00     0.019 A 
HETATM   12  C   UNL     1       3.872  28.071  49.048  1.00  0.00     0.030 A 
BRANCH  10  13
HETATM   13  C   UNL     1       1.107  27.663  46.508  1.00  0.00     0.251 C 
HETATM   14  N   UNL     1       0.920  29.009  46.260  1.00  0.00    -0.357 N 
HETATM   15  H   UNL     1       1.400  29.687  46.834  1.00  0.00     0.162 HD
HETATM   16  O   UNL     1       0.407  26.779  46.026  1.00  0.00    -0.268 OA
BRANCH  14  17
HETATM   17  C   UNL     1      -0.186  29.484  45.455  1.00  0.00     0.118 C 
HETATM   18  C   UNL     1      -1.420  29.735  46.303  1.00  0.00     0.026 C 
ENDBRANCH  14  17
ENDBRANCH  10  13
ENDBRANCH   1   7
BRANCH   3  19
HETATM   19  C   UNL     1       7.114  25.710  53.163  1.00  0.00     0.043 A 
HETATM   20  C   UNL     1       7.524  24.410  53.531  1.00  0.00    -0.035 A 
HETATM   21  C   UNL     1       7.544  23.262  52.557  1.00  0.00     0.050 C 
HETATM   22  C   UNL     1       7.899  24.160  54.860  1.00  0.00     0.010 A 
HETATM   23  C   UNL     1       7.885  25.182  55.810  1.00  0.00     0.016 A 
HETATM   24  C   UNL     1       7.509  26.481  55.455  1.00  0.00     0.019 A 
HETATM   25  C   UNL     1       7.130  26.730  54.126  1.00  0.00     0.046 A 
BRANCH  24  26
HETATM   26  C   UNL     1       7.513  27.531  56.470  1.00  0.00     0.179 A 
HETATM   27  O   UNL     1       6.616  28.558  56.309  1.00  0.00    -0.302 OA
HETATM   28  C   UNL     1       6.843  29.371  57.377  1.00  0.00     0.163 A 
HETATM   29  C   UNL     1       7.847  28.817  58.127  1.00  0.00     0.144 A 
HETATM   30  N   UNL     1       8.274  27.650  57.544  1.00  0.00    -0.234 NA
ENDBRANCH  24  26
ENDBRANCH   3  19
TORSDOF 5
ENDMDL
MODEL 7
REMARK VINA RESULT:      -8.1      9.757     13.283
REMARK  5 active torsions:
REMARK  status: ('A' for Active; 'I' for Inactive)
REMARK    1  A    between atoms: C_2  and  N_3 
REMARK       I    between atoms: N_3  and  C_4 
REMARK    2  A    between atoms: C_4  and  C_5 
REMARK    3  A    between atoms: C_8  and  N_9 
REMARK       I    between atoms: N_9  and  C_10 
REMARK       I    between atoms: C_10  and  N_11 
REMARK    4  A    between atoms: N_11  and  C_12 
REMARK    5  A    between atoms: C_17  and  C_18 
ROOT
HETATM    1  N   UNL     1       4.112  27.076  50.985  1.00  0.00    -0.309 N 
HETATM    2  C   UNL     1       5.194  26.511  51.647  1.00  0.00     0.325 C 
HETATM    3  N   UNL     1       4.775  25.961  52.850  1.00  0.00    -0.308 N 
HETATM    4  O   UNL     1       6.349  26.542  51.247  1.00  0.00    -0.247 OA
HETATM    5  H   UNL     1       3.203  26.710  51.228  1.00  0.00     0.170 HD
HETATM    6  H   UNL     1       3.876  26.285  53.166  1.00  0.00     0.170 HD
ENDROOT
BRANCH   1   7
HETATM    7  C   UNL     1       4.153  28.009  49.929  1.00  0.00     0.036 A 
HETATM    8  C   UNL     1       4.371  27.657  48.595  1.00  0.00     0.030 A 
HETATM    9  C   UNL     1       4.494  28.641  47.608  1.00  0.00     0.019 A 
HETATM   10  C   UNL     1       4.416  29.995  47.949  1.00  0.00     0.032 A 
HETATM   11  C   UNL     1       4.158  30.351  49.276  1.00  0.00     0.019 A 
HETATM   12  C   UNL     1       4.031  29.365  50.260  1.00  0.00     0.030 A 
BRANCH  10  13
HETATM   13  C   UNL     1       4.613  31.078  46.945  1.00  0.00     0.251 C 
HETATM   14  N   UNL     1       5.231  32.226  47.401  1.00  0.00    -0.357 N 
HETATM   15  H   UNL     1       5.380  32.345  48.393  1.00  0.00     0.162 HD
HETATM   16  O   UNL     1       4.189  30.942  45.803  1.00  0.00    -0.268 OA
BRANCH  14  17
HETATM   17  C   UNL     1       5.359  33.401  46.565  1.00  0.00     0.118 C 
HETATM   18  C   UNL     1       6.754  33.512  45.975  1.00  0.00     0.026 C 
ENDBRANCH  14  17
ENDBRANCH  10  13
ENDBRANCH   1   7
BRANCH   3  19
HETATM   19  C   UNL     1       5.581  25.309  53.816  1.00  0.00     0.043 A 
HETATM   20  C   UNL     1       5.777  25.930  55.069  1.00  0.00    -0.035 A 
HETATM   21  C   UNL     1       5.157  27.257  55.420  1.00  0.00     0.050 C 
HETATM   22  C   UNL     1       6.603  25.310  56.020  1.00  0.00     0.010 A 
HETATM   23  C   UNL     1       7.217  24.088  55.745  1.00  0.00     0.016 A 
HETATM   24  C   UNL     1       7.011  23.447  54.519  1.00  0.00     0.019 A 
HETATM   25  C   UNL     1       6.187  24.068  53.567  1.00  0.00     0.046 A 
BRANCH  24  26
HETATM   26  C   UNL     1       7.660  22.164  54.264  1.00  0.00     0.179 A 
HETATM   27  O   UNL     1       7.748  21.758  52.956  1.00  0.00    -0.302 OA
HETATM   28  C   UNL     1       8.382  20.555  53.019  1.00  0.00     0.163 A 
HETATM   29  C   UNL     1       8.647  20.285  54.337  1.00  0.00     0.144 A 
HETATM   30  N   UNL     1       8.181  21.306  55.125  1.00  0.00    -0.234 NA
ENDBRANCH  24  26
ENDBRANCH   3  19
TORSDOF 5
ENDMDL
MODEL 8
REMARK VINA RESULT:      -7.9     10.374     13.690
REMARK  5 active torsions:
REMARK  status: ('A' for Active; 'I' for Inactive)
REMARK    1  A    between atoms: C_2  and  N_3 
REMARK       I    between atoms: N_3  and  C_4 
REMARK    2  A    between atoms: C_4  and  C_5 
REMARK    3  A    between atoms: C_8  and  N_9 
REMARK       I    between atoms: N_9  and  C_10 
REMARK       I    between atoms: C_10  and  N_11 
REMARK    4  A    between atoms: N_11  and  C_12 
REMARK    5  A    between atoms: C_17  and  C_18 
ROOT
HETATM    1  N   UNL     1       4.144  27.355  52.039  1.00  0.00    -0.309 N 
HETATM    2  C   UNL     1       4.440  27.877  50.786  1.00  0.00     0.325 C 
HETATM    3  N   UNL     1       3.314  28.486  50.251  1.00  0.00    -0.308 N 
HETATM    4  O   UNL     1       5.520  27.769  50.223  1.00  0.00    -0.247 OA
HETATM    5  H   UNL     1       3.367  27.779  52.523  1.00  0.00     0.170 HD
HETATM    6  H   UNL     1       2.448  28.223  50.693  1.00  0.00     0.170 HD
ENDROOT
BRANCH   1   7
HETATM    7  C   UNL     1       4.882  26.390  52.754  1.00  0.00     0.036 A 
HETATM    8  C   UNL     1       5.587  26.669  53.927  1.00  0.00     0.030 A 
HETATM    9  C   UNL     1       6.376  25.688  54.537  1.00  0.00     0.019 A 
HETATM   10  C   UNL     1       6.482  24.415  53.968  1.00  0.00     0.032 A 
HETATM   11  C   UNL     1       5.746  24.118  52.817  1.00  0.00     0.019 A 
HETATM   12  C   UNL     1       4.955  25.101  52.212  1.00  0.00     0.030 A 
BRANCH  10  13
HETATM   13  C   UNL     1       7.366  23.362  54.541  1.00  0.00     0.251 C 
HETATM   14  N   UNL     1       8.289  22.805  53.678  1.00  0.00    -0.357 N 
HETATM   15  H   UNL     1       8.229  23.013  52.691  1.00  0.00     0.162 HD
HETATM   16  O   UNL     1       7.217  22.999  55.703  1.00  0.00    -0.268 OA
BRANCH  14  17
HETATM   17  C   UNL     1       9.112  21.681  54.071  1.00  0.00     0.118 C 
HETATM   18  C   UNL     1       8.741  20.427  53.299  1.00  0.00     0.026 C 
ENDBRANCH  14  17
ENDBRANCH  10  13
ENDBRANCH   1   7
BRANCH   3  19
HETATM   19  C   UNL     1       3.205  29.120  48.989  1.00  0.00     0.043 A 
HETATM   20  C   UNL     1       2.225  28.662  48.081  1.00  0.00    -0.035 A 
HETATM   21  C   UNL     1       1.287  27.529  48.405  1.00  0.00     0.050 C 
HETATM   22  C   UNL     1       2.133  29.258  46.813  1.00  0.00     0.010 A 
HETATM   23  C   UNL     1       2.986  30.301  46.451  1.00  0.00     0.016 A 
HETATM   24  C   UNL     1       3.943  30.785  47.349  1.00  0.00     0.019 A 
HETATM   25  C   UNL     1       4.037  30.186  48.616  1.00  0.00     0.046 A 
BRANCH  24  26
HETATM   26  C   UNL     1       4.815  31.883  46.944  1.00  0.00     0.179 A 
HETATM   27  O   UNL     1       5.036  32.042  45.598  1.00  0.00    -0.302 OA
HETATM   28  C   UNL     1       5.868  33.116  45.519  1.00  0.00     0.163 A 
HETATM   29  C   UNL     1       6.115  33.556  46.793  1.00  0.00     0.144 A 
HETATM   30  N   UNL     1       5.449  32.767  47.697  1.00  0.00    -0.234 NA
ENDBRANCH  24  26
ENDBRANCH   3  19
TORSDOF 5
ENDMDL
MODEL 9
REMARK VINA RESULT:      -7.9      9.844     13.237
REMARK  5 active torsions:
REMARK  status: ('A' for Active; 'I' for Inactive)
REMARK    1  A    between atoms: C_2  and  N_3 
REMARK       I    between atoms: N_3  and  C_4 
REMARK    2  A    between atoms: C_4  and  C_5 
REMARK    3  A    between atoms: C_8  and  N_9 
REMARK       I    between atoms: N_9  and  C_10 
REMARK       I    between atoms: C_10  and  N_11 
REMARK    4  A    between atoms: N_11  and  C_12 
REMARK    5  A    between atoms: C_17  and  C_18 
ROOT
HETATM    1  N   UNL     1       3.836  27.445  53.257  1.00  0.00    -0.309 N 
HETATM    2  C   UNL     1       3.806  28.097  52.031  1.00  0.00     0.325 C 
HETATM    3  N   UNL     1       2.557  28.667  51.830  1.00  0.00    -0.308 N 
HETATM    4  O   UNL     1       4.731  28.119  51.231  1.00  0.00    -0.247 OA
HETATM    5  H   UNL     1       3.171  27.766  53.945  1.00  0.00     0.170 HD
HETATM    6  H   UNL     1       1.832  28.303  52.426  1.00  0.00     0.170 HD
ENDROOT
BRANCH   1   7
HETATM    7  C   UNL     1       4.767  26.477  53.683  1.00  0.00     0.036 A 
HETATM    8  C   UNL     1       5.622  26.653  54.774  1.00  0.00     0.030 A 
HETATM    9  C   UNL     1       6.589  25.691  55.087  1.00  0.00     0.019 A 
HETATM   10  C   UNL     1       6.721  24.544  54.299  1.00  0.00     0.032 A 
HETATM   11  C   UNL     1       5.842  24.343  53.231  1.00  0.00     0.019 A 
HETATM   12  C   UNL     1       4.874  25.305  52.923  1.00  0.00     0.030 A 
BRANCH  10  13
HETATM   13  C   UNL     1       7.782  23.528  54.551  1.00  0.00     0.251 C 
HETATM   14  N   UNL     1       7.560  22.272  54.021  1.00  0.00    -0.357 N 
HETATM   15  H   UNL     1       6.653  22.053  53.633  1.00  0.00     0.162 HD
HETATM   16  O   UNL     1       8.757  23.814  55.237  1.00  0.00    -0.268 OA
BRANCH  14  17
HETATM   17  C   UNL     1       8.444  21.162  54.308  1.00  0.00     0.118 C 
HETATM   18  C   UNL     1       8.727  20.342  53.062  1.00  0.00     0.026 C 
ENDBRANCH  14  17
ENDBRANCH  10  13
ENDBRANCH   1   7
BRANCH   3  19
HETATM   19  C   UNL     1       2.127  29.402  50.697  1.00  0.00     0.043 A 
HETATM   20  C   UNL     1       2.248  30.808  50.713  1.00  0.00    -0.035 A 
HETATM   21  C   UNL     1       2.822  31.558  51.886  1.00  0.00     0.050 C 
HETATM   22  C   UNL     1       1.790  31.548  49.611  1.00  0.00     0.010 A 
HETATM   23  C   UNL     1       1.235  30.909  48.503  1.00  0.00     0.016 A 
HETATM   24  C   UNL     1       1.134  29.514  48.460  1.00  0.00     0.019 A 
HETATM   25  C   UNL     1       1.588  28.775  49.564  1.00  0.00     0.046 A 
BRANCH  24  26
HETATM   26  C   UNL     1       0.556  28.874  47.282  1.00  0.00     0.179 A 
HETATM   27  O   UNL     1      -0.013  29.695  46.340  1.00  0.00    -0.302 OA
HETATM   28  C   UNL     1      -0.462  28.842  45.379  1.00  0.00     0.163 A 
HETATM   29  C   UNL     1      -0.154  27.564  45.768  1.00  0.00     0.144 A 
HETATM   30  N   UNL     1       0.487  27.588  46.981  1.00  0.00    -0.234 NA
ENDBRANCH  24  26
ENDBRANCH   3  19
TORSDOF 5
ENDMDL
MODEL 10
REMARK VINA RESULT:      -7.7     10.081     12.701
REMARK  5 active torsions:
REMARK  status: ('A' for Active; 'I' for Inactive)
REMARK    1  A    between atoms: C_2  and  N_3 
REMARK       I    between atoms: N_3  and  C_4 
REMARK    2  A    between atoms: C_4  and  C_5 
REMARK    3  A    between atoms: C_8  and  N_9 
REMARK       I    between atoms: N_9  and  C_10 
REMARK       I    between atoms: C_10  and  N_11 
REMARK    4  A    between atoms: N_11  and  C_12 
REMARK    5  A    between atoms: C_17  and  C_18 
ROOT
HETATM    1  N   UNL     1       4.496  26.343  52.521  1.00  0.00    -0.309 N 
HETATM    2  C   UNL     1       4.984  27.306  51.647  1.00  0.00     0.325 C 
HETATM    3  N   UNL     1       4.036  27.579  50.670  1.00  0.00    -0.308 N 
HETATM    4  O   UNL     1       6.101  27.799  51.705  1.00  0.00    -0.247 OA
HETATM    5  H   UNL     1       3.491  26.265  52.578  1.00  0.00     0.170 HD
HETATM    6  H   UNL     1       3.314  26.883  50.584  1.00  0.00     0.170 HD
ENDROOT
BRANCH   1   7
HETATM    7  C   UNL     1       5.242  25.557  53.422  1.00  0.00     0.036 A 
HETATM    8  C   UNL     1       5.375  25.853  54.780  1.00  0.00     0.030 A 
HETATM    9  C   UNL     1       6.207  25.084  55.601  1.00  0.00     0.019 A 
HETATM   10  C   UNL     1       6.930  24.013  55.066  1.00  0.00     0.032 A 
HETATM   11  C   UNL     1       6.768  23.687  53.716  1.00  0.00     0.019 A 
HETATM   12  C   UNL     1       5.933  24.456  52.899  1.00  0.00     0.030 A 
BRANCH  10  13
HETATM   13  C   UNL     1       7.882  23.211  55.885  1.00  0.00     0.251 C 
HETATM   14  N   UNL     1       7.649  21.850  55.931  1.00  0.00    -0.357 N 
HETATM   15  H   UNL     1       6.787  21.484  55.551  1.00  0.00     0.162 HD
HETATM   16  O   UNL     1       8.776  23.769  56.510  1.00  0.00    -0.268 OA
BRANCH  14  17
HETATM   17  C   UNL     1       8.415  20.979  56.797  1.00  0.00     0.118 C 
HETATM   18  C   UNL     1       9.523  20.276  56.034  1.00  0.00     0.026 C 
ENDBRANCH  14  17
ENDBRANCH  10  13
ENDBRANCH   1   7
BRANCH   3  19
HETATM   19  C   UNL     1       4.161  28.489  49.591  1.00  0.00     0.043 A 
HETATM   20  C   UNL     1       4.375  27.978  48.292  1.00  0.00    -0.035 A 
HETATM   21  C   UNL     1       4.469  26.501  48.009  1.00  0.00     0.050 C 
HETATM   22  C   UNL     1       4.537  28.871  47.222  1.00  0.00     0.010 A 
HETATM   23  C   UNL     1       4.475  30.249  47.427  1.00  0.00     0.016 A 
HETATM   24  C   UNL     1       4.236  30.771  48.702  1.00  0.00     0.019 A 
HETATM   25  C   UNL     1       4.077  29.877  49.773  1.00  0.00     0.046 A 
BRANCH  24  26
HETATM   26  C   UNL     1       4.168  32.219  48.883  1.00  0.00     0.179 A 
HETATM   27  O   UNL     1       3.954  32.679  50.159  1.00  0.00    -0.302 OA
HETATM   28  C   UNL     1       3.935  34.034  50.028  1.00  0.00     0.163 A 
HETATM   29  C   UNL     1       4.133  34.335  48.705  1.00  0.00     0.144 A 
HETATM   30  N   UNL     1       4.274  33.178  47.980  1.00  0.00    -0.234 NA
ENDBRANCH  24  26
ENDBRANCH   3  19
TORSDOF 5
ENDMDL
