MODEL 1
REMARK VINA RESULT:      -9.9      0.000      0.000
REMARK  7 active torsions:
REMARK  status: ('A' for Active; 'I' for Inactive)
REMARK    1  A    between atoms: O_2  and  C_3 
REMARK    2  A    between atoms: C_4  and  O_5 
REMARK    3  A    between atoms: C_7  and  C_8 
REMARK    4  A    between atoms: N_9  and  N_10 
REMARK    5  A    between atoms: C_21  and  C_22 
REMARK       I    between atoms: C_22  and  N_23 
REMARK    6  A    between atoms: N_23  and  C_24 
REMARK    7  A    between atoms: C_31  and  N_32 
ROOT
HETATM    1  N   UNL     1       6.956  28.093  56.244  1.00  0.00    -0.197 N 
HETATM    2  C   UNL     1       6.518  27.655  55.002  1.00  0.00     0.183 A 
HETATM    3  C   UNL     1       6.934  26.339  54.855  1.00  0.00     0.125 A 
HETATM    4  N   UNL     1       6.777  25.664  53.685  1.00  0.00    -0.242 NA
HETATM    5  C   UNL     1       6.130  26.350  52.732  1.00  0.00     0.086 A 
HETATM    6  C   UNL     1       5.680  27.686  52.911  1.00  0.00     0.088 A 
HETATM    7  N   UNL     1       5.887  28.380  54.046  1.00  0.00    -0.225 NA
HETATM    8  C   UNL     1       5.888  25.713  51.522  1.00  0.00     0.034 A 
HETATM    9  C   UNL     1       5.202  26.347  50.485  1.00  0.00     0.002 A 
HETATM   10  C   UNL     1       4.748  27.646  50.662  1.00  0.00     0.002 A 
HETATM   11  C   UNL     1       4.994  28.303  51.871  1.00  0.00     0.034 A 
HETATM   12  C   UNL     1       7.549  25.921  56.057  1.00  0.00     0.110 C 
HETATM   13  C   UNL     1       7.394  26.964  56.961  1.00  0.00     0.143 C 
ENDROOT
BRANCH   1  14
HETATM   14  N   UNL     1       7.363  29.384  56.496  1.00  0.00    -0.176 NA
HETATM   15  C   UNL     1       6.768  29.956  57.491  1.00  0.00     0.153 C 
BRANCH  15  16
HETATM   16  C   UNL     1       7.477  30.941  58.331  1.00  0.00     0.019 A 
HETATM   17  C   UNL     1       6.764  31.727  59.241  1.00  0.00     0.113 A 
HETATM   18  C   UNL     1       7.449  32.376  60.278  1.00  0.00     0.102 A 
HETATM   19  C   UNL     1       8.845  32.336  60.324  1.00  0.00     0.040 A 
HETATM   20  C   UNL     1       9.560  31.606  59.377  1.00  0.00     0.004 A 
HETATM   21  C   UNL     1       8.878  30.897  58.389  1.00  0.00     0.016 A 
BRANCH  17  22
HETATM   22  O   UNL     1       5.399  31.824  59.137  1.00  0.00    -0.352 OA
HETATM   23  C   UNL     1       5.071  33.000  58.389  1.00  0.00     0.210 C 
ENDBRANCH  17  22
BRANCH  18  24
HETATM   24  O   UNL     1       6.841  33.094  61.275  1.00  0.00    -0.353 OA
HETATM   25  C   UNL     1       6.607  32.324  62.455  1.00  0.00     0.210 C 
ENDBRANCH  18  24
ENDBRANCH  15  16
ENDBRANCH   1  14
BRANCH  13  26
HETATM   26  N   UNL     1       7.794  26.991  58.266  1.00  0.00    -0.383 N 
HETATM   27  H   UNL     1       8.639  27.471  58.557  1.00  0.00     0.157 HD
HETATM   28  H   UNL     1       7.053  27.089  58.969  1.00  0.00     0.157 HD
ENDBRANCH  13  26
BRANCH  12  29
HETATM   29  C   UNL     1       8.283  24.696  56.336  1.00  0.00     0.258 C 
HETATM   30  N   UNL     1       8.067  23.684  55.423  1.00  0.00    -0.352 N 
HETATM   31  H   UNL     1       7.401  23.882  54.681  1.00  0.00     0.163 HD
HETATM   32  O   UNL     1       9.105  24.610  57.245  1.00  0.00    -0.267 OA
BRANCH  30  33
HETATM   33  C   UNL     1       9.087  22.674  55.175  1.00  0.00     0.084 C 
HETATM   34  C   UNL     1       8.782  21.390  55.950  1.00  0.00     0.025 C 
HETATM   35  C   UNL     1       7.590  20.621  55.382  1.00  0.00     0.002 C 
HETATM   36  C   UNL     1       7.747  20.351  53.889  1.00  0.00     0.000 C 
HETATM   37  C   UNL     1       8.012  21.633  53.108  1.00  0.00     0.002 C 
HETATM   38  C   UNL     1       9.214  22.395  53.667  1.00  0.00     0.025 C 
ENDBRANCH  30  33
ENDBRANCH  12  29
TORSDOF 7
ENDMDL
MODEL 2
REMARK VINA RESULT:      -9.4      3.078      8.008
REMARK  7 active torsions:
REMARK  status: ('A' for Active; 'I' for Inactive)
REMARK    1  A    between atoms: O_2  and  C_3 
REMARK    2  A    between atoms: C_4  and  O_5 
REMARK    3  A    between atoms: C_7  and  C_8 
REMARK    4  A    between atoms: N_9  and  N_10 
REMARK    5  A    between atoms: C_21  and  C_22 
REMARK       I    between atoms: C_22  and  N_23 
REMARK    6  A    between atoms: N_23  and  C_24 
REMARK    7  A    between atoms: C_31  and  N_32 
ROOT
HETATM    1  N   UNL     1       5.725  25.069  52.917  1.00  0.00    -0.197 N 
HETATM    2  C   UNL     1       6.402  23.984  53.457  1.00  0.00     0.183 A 
HETATM    3  C   UNL     1       6.470  24.180  54.830  1.00  0.00     0.125 A 
HETATM    4  N   UNL     1       7.192  23.356  55.635  1.00  0.00    -0.242 NA
HETATM    5  C   UNL     1       7.759  22.318  55.004  1.00  0.00     0.086 A 
HETATM    6  C   UNL     1       7.650  22.115  53.601  1.00  0.00     0.088 A 
HETATM    7  N   UNL     1       6.988  22.960  52.789  1.00  0.00    -0.225 NA
HETATM    8  C   UNL     1       8.475  21.404  55.765  1.00  0.00     0.034 A 
HETATM    9  C   UNL     1       9.076  20.284  55.189  1.00  0.00     0.002 A 
HETATM   10  C   UNL     1       8.960  20.074  53.823  1.00  0.00     0.002 A 
HETATM   11  C   UNL     1       8.251  20.992  53.042  1.00  0.00     0.034 A 
HETATM   12  C   UNL     1       5.742  25.345  55.159  1.00  0.00     0.110 C 
HETATM   13  C   UNL     1       5.143  25.780  53.983  1.00  0.00     0.143 C 
ENDROOT
BRANCH   1  14
HETATM   14  N   UNL     1       6.014  25.609  51.684  1.00  0.00    -0.176 NA
HETATM   15  C   UNL     1       4.990  25.787  50.916  1.00  0.00     0.153 C 
BRANCH  15  16
HETATM   16  C   UNL     1       4.947  26.914  49.962  1.00  0.00     0.019 A 
HETATM   17  C   UNL     1       5.421  28.172  50.344  1.00  0.00     0.113 A 
HETATM   18  C   UNL     1       5.725  29.123  49.359  1.00  0.00     0.102 A 
HETATM   19  C   UNL     1       5.438  28.855  48.018  1.00  0.00     0.040 A 
HETATM   20  C   UNL     1       4.902  27.624  47.645  1.00  0.00     0.004 A 
HETATM   21  C   UNL     1       4.670  26.647  48.613  1.00  0.00     0.016 A 
BRANCH  17  22
HETATM   22  O   UNL     1       5.623  28.452  51.672  1.00  0.00    -0.352 OA
HETATM   23  C   UNL     1       4.662  29.425  52.094  1.00  0.00     0.210 C 
ENDBRANCH  17  22
BRANCH  18  24
HETATM   24  O   UNL     1       6.280  30.351  49.614  1.00  0.00    -0.353 OA
HETATM   25  C   UNL     1       5.520  31.432  49.071  1.00  0.00     0.210 C 
ENDBRANCH  18  24
ENDBRANCH  15  16
ENDBRANCH   1  14
BRANCH  13  26
HETATM   26  N   UNL     1       4.308  26.848  53.829  1.00  0.00    -0.383 N 
HETATM   27  H   UNL     1       4.273  27.380  52.966  1.00  0.00     0.157 HD
HETATM   28  H   UNL     1       3.374  26.762  54.247  1.00  0.00     0.157 HD
ENDBRANCH  13  26
BRANCH  12  29
HETATM   29  C   UNL     1       5.656  26.047  56.431  1.00  0.00     0.258 C 
HETATM   30  N   UNL     1       6.844  26.610  56.850  1.00  0.00    -0.352 N 
HETATM   31  H   UNL     1       7.653  26.447  56.256  1.00  0.00     0.163 HD
HETATM   32  O   UNL     1       4.592  26.215  57.022  1.00  0.00    -0.267 OA
BRANCH  30  33
HETATM   33  C   UNL     1       6.850  27.786  57.708  1.00  0.00     0.084 C 
HETATM   34  C   UNL     1       8.272  28.125  58.160  1.00  0.00     0.025 C 
HETATM   35  C   UNL     1       9.136  28.689  57.033  1.00  0.00     0.002 C 
HETATM   36  C   UNL     1       8.469  29.875  56.344  1.00  0.00     0.000 C 
HETATM   37  C   UNL     1       7.066  29.531  55.857  1.00  0.00     0.002 C 
HETATM   38  C   UNL     1       6.197  28.981  56.988  1.00  0.00     0.025 C 
ENDBRANCH  30  33
ENDBRANCH  12  29
TORSDOF 7
ENDMDL
MODEL 3
REMARK VINA RESULT:      -9.4      3.719      8.839
REMARK  7 active torsions:
REMARK  status: ('A' for Active; 'I' for Inactive)
REMARK    1  A    between atoms: O_2  and  C_3 
REMARK    2  A    between atoms: C_4  and  O_5 
REMARK    3  A    between atoms: C_7  and  C_8 
REMARK    4  A    between atoms: N_9  and  N_10 
REMARK    5  A    between atoms: C_21  and  C_22 
REMARK       I    between atoms: C_22  and  N_23 
REMARK    6  A    between atoms: N_23  and  C_24 
REMARK    7  A    between atoms: C_31  and  N_32 
ROOT
HETATM    1  N   UNL     1       5.367  25.629  52.388  1.00  0.00    -0.197 N 
HETATM    2  C   UNL     1       6.071  24.634  53.052  1.00  0.00     0.183 A 
HETATM    3  C   UNL     1       6.100  24.973  54.398  1.00  0.00     0.125 A 
HETATM    4  N   UNL     1       6.833  24.267  55.299  1.00  0.00    -0.242 NA
HETATM    5  C   UNL     1       7.452  23.192  54.790  1.00  0.00     0.086 A 
HETATM    6  C   UNL     1       7.384  22.840  53.415  1.00  0.00     0.088 A 
HETATM    7  N   UNL     1       6.711  23.570  52.506  1.00  0.00    -0.225 NA
HETATM    8  C   UNL     1       8.184  22.391  55.657  1.00  0.00     0.034 A 
HETATM    9  C   UNL     1       8.840  21.242  55.213  1.00  0.00     0.002 A 
HETATM   10  C   UNL     1       8.764  20.888  53.874  1.00  0.00     0.002 A 
HETATM   11  C   UNL     1       8.040  21.691  52.988  1.00  0.00     0.034 A 
HETATM   12  C   UNL     1       5.320  26.137  54.588  1.00  0.00     0.110 C 
HETATM   13  C   UNL     1       4.734  26.423  53.362  1.00  0.00     0.143 C 
ENDROOT
BRANCH   1  14
HETATM   14  N   UNL     1       5.665  26.050  51.111  1.00  0.00    -0.176 NA
HETATM   15  C   UNL     1       4.666  26.043  50.291  1.00  0.00     0.153 C 
BRANCH  15  16
HETATM   16  C   UNL     1       4.568  27.044  49.209  1.00  0.00     0.019 A 
HETATM   17  C   UNL     1       3.458  27.051  48.361  1.00  0.00     0.113 A 
HETATM   18  C   UNL     1       3.181  28.193  47.596  1.00  0.00     0.102 A 
HETATM   19  C   UNL     1       4.077  29.264  47.591  1.00  0.00     0.040 A 
HETATM   20  C   UNL     1       5.220  29.229  48.388  1.00  0.00     0.004 A 
HETATM   21  C   UNL     1       5.460  28.127  49.208  1.00  0.00     0.016 A 
BRANCH  17  22
HETATM   22  O   UNL     1       2.627  25.959  48.313  1.00  0.00    -0.352 OA
HETATM   23  C   UNL     1       3.020  25.123  47.220  1.00  0.00     0.210 C 
ENDBRANCH  17  22
BRANCH  18  24
HETATM   24  O   UNL     1       2.072  28.342  46.803  1.00  0.00    -0.353 OA
HETATM   25  C   UNL     1       1.052  29.136  47.413  1.00  0.00     0.210 C 
ENDBRANCH  18  24
ENDBRANCH  15  16
ENDBRANCH   1  14
BRANCH  13  26
HETATM   26  N   UNL     1       3.863  27.435  53.081  1.00  0.00    -0.383 N 
HETATM   27  H   UNL     1       3.371  27.938  53.811  1.00  0.00     0.157 HD
HETATM   28  H   UNL     1       4.127  28.065  52.314  1.00  0.00     0.157 HD
ENDBRANCH  13  26
BRANCH  12  29
HETATM   29  C   UNL     1       5.179  26.963  55.778  1.00  0.00     0.258 C 
HETATM   30  N   UNL     1       6.311  27.025  56.565  1.00  0.00    -0.352 N 
HETATM   31  H   UNL     1       7.103  26.467  56.257  1.00  0.00     0.163 HD
HETATM   32  O   UNL     1       4.173  27.633  56.001  1.00  0.00    -0.267 OA
BRANCH  30  33
HETATM   33  C   UNL     1       6.575  28.189  57.399  1.00  0.00     0.084 C 
HETATM   34  C   UNL     1       7.906  28.037  58.140  1.00  0.00     0.025 C 
HETATM   35  C   UNL     1       9.118  28.165  57.219  1.00  0.00     0.002 C 
HETATM   36  C   UNL     1       9.076  29.451  56.400  1.00  0.00     0.000 C 
HETATM   37  C   UNL     1       7.768  29.588  55.628  1.00  0.00     0.002 C 
HETATM   38  C   UNL     1       6.555  29.475  56.552  1.00  0.00     0.025 C 
ENDBRANCH  30  33
ENDBRANCH  12  29
TORSDOF 7
ENDMDL
MODEL 4
REMARK VINA RESULT:      -9.2      3.952      9.094
REMARK  7 active torsions:
REMARK  status: ('A' for Active; 'I' for Inactive)
REMARK    1  A    between atoms: O_2  and  C_3 
REMARK    2  A    between atoms: C_4  and  O_5 
REMARK    3  A    between atoms: C_7  and  C_8 
REMARK    4  A    between atoms: N_9  and  N_10 
REMARK    5  A    between atoms: C_21  and  C_22 
REMARK       I    between atoms: C_22  and  N_23 
REMARK    6  A    between atoms: N_23  and  C_24 
REMARK    7  A    between atoms: C_31  and  N_32 
ROOT
HETATM    1  N   UNL     1       5.504  26.894  52.902  1.00  0.00    -0.197 N 
HETATM    2  C   UNL     1       4.854  27.980  53.471  1.00  0.00     0.183 A 
HETATM    3  C   UNL     1       4.579  28.880  52.451  1.00  0.00     0.125 A 
HETATM    4  N   UNL     1       4.065  30.114  52.703  1.00  0.00    -0.242 NA
HETATM    5  C   UNL     1       3.787  30.346  53.993  1.00  0.00     0.086 A 
HETATM    6  C   UNL     1       4.044  29.399  55.022  1.00  0.00     0.088 A 
HETATM    7  N   UNL     1       4.610  28.200  54.786  1.00  0.00    -0.225 NA
HETATM    8  C   UNL     1       3.215  31.567  54.327  1.00  0.00     0.034 A 
HETATM    9  C   UNL     1       2.874  31.879  55.644  1.00  0.00     0.002 A 
HETATM   10  C   UNL     1       3.110  30.952  56.648  1.00  0.00     0.002 A 
HETATM   11  C   UNL     1       3.695  29.723  56.328  1.00  0.00     0.034 A 
HETATM   12  C   UNL     1       4.969  28.304  51.221  1.00  0.00     0.110 C 
HETATM   13  C   UNL     1       5.376  27.007  51.505  1.00  0.00     0.143 C 
ENDROOT
BRANCH   1  14
HETATM   14  N   UNL     1       6.492  26.178  53.540  1.00  0.00    -0.176 NA
HETATM   15  C   UNL     1       6.110  25.047  54.034  1.00  0.00     0.153 C 
BRANCH  15  16
HETATM   16  C   UNL     1       7.033  23.895  54.091  1.00  0.00     0.019 A 
HETATM   17  C   UNL     1       7.364  23.324  55.323  1.00  0.00     0.113 A 
HETATM   18  C   UNL     1       7.922  22.038  55.360  1.00  0.00     0.102 A 
HETATM   19  C   UNL     1       8.257  21.388  54.169  1.00  0.00     0.040 A 
HETATM   20  C   UNL     1       7.987  21.988  52.940  1.00  0.00     0.004 A 
HETATM   21  C   UNL     1       7.363  23.234  52.899  1.00  0.00     0.016 A 
BRANCH  17  22
HETATM   22  O   UNL     1       7.103  24.007  56.485  1.00  0.00    -0.352 OA
HETATM   23  C   UNL     1       8.290  24.694  56.896  1.00  0.00     0.210 C 
ENDBRANCH  17  22
BRANCH  18  24
HETATM   24  O   UNL     1       8.198  21.348  56.512  1.00  0.00    -0.353 OA
HETATM   25  C   UNL     1       9.179  20.326  56.330  1.00  0.00     0.210 C 
ENDBRANCH  18  24
ENDBRANCH  15  16
ENDBRANCH   1  14
BRANCH  13  26
HETATM   26  N   UNL     1       5.796  26.060  50.616  1.00  0.00    -0.383 N 
HETATM   27  H   UNL     1       5.661  25.069  50.785  1.00  0.00     0.157 HD
HETATM   28  H   UNL     1       5.679  26.283  49.621  1.00  0.00     0.157 HD
ENDBRANCH  13  26
BRANCH  12  29
HETATM   29  C   UNL     1       5.034  28.913  49.900  1.00  0.00     0.258 C 
HETATM   30  N   UNL     1       4.442  30.156  49.818  1.00  0.00    -0.352 N 
HETATM   31  H   UNL     1       3.995  30.498  50.665  1.00  0.00     0.163 HD
HETATM   32  O   UNL     1       5.658  28.408  48.970  1.00  0.00    -0.267 OA
BRANCH  30  33
HETATM   33  C   UNL     1       4.896  31.135  48.840  1.00  0.00     0.084 C 
HETATM   34  C   UNL     1       3.761  32.085  48.452  1.00  0.00     0.025 C 
HETATM   35  C   UNL     1       3.396  33.064  49.568  1.00  0.00     0.002 C 
HETATM   36  C   UNL     1       4.617  33.825  50.076  1.00  0.00     0.000 C 
HETATM   37  C   UNL     1       5.736  32.881  50.501  1.00  0.00     0.002 C 
HETATM   38  C   UNL     1       6.111  31.912  49.379  1.00  0.00     0.025 C 
ENDBRANCH  30  33
ENDBRANCH  12  29
TORSDOF 7
ENDMDL
MODEL 5
REMARK VINA RESULT:      -9.1      2.191      5.987
REMARK  7 active torsions:
REMARK  status: ('A' for Active; 'I' for Inactive)
REMARK    1  A    between atoms: O_2  and  C_3 
REMARK    2  A    between atoms: C_4  and  O_5 
REMARK    3  A    between atoms: C_7  and  C_8 
REMARK    4  A    between atoms: N_9  and  N_10 
REMARK    5  A    between atoms: C_21  and  C_22 
REMARK       I    between atoms: C_22  and  N_23 
REMARK    6  A    between atoms: N_23  and  C_24 
REMARK    7  A    between atoms: C_31  and  N_32 
ROOT
HETATM    1  N   UNL     1       7.236  26.762  54.828  1.00  0.00    -0.197 N 
HETATM    2  C   UNL     1       7.517  25.434  54.541  1.00  0.00     0.183 A 
HETATM    3  C   UNL     1       6.886  25.125  53.344  1.00  0.00     0.125 A 
HETATM    4  N   UNL     1       6.857  23.856  52.856  1.00  0.00    -0.242 NA
HETATM    5  C   UNL     1       7.543  22.965  53.586  1.00  0.00     0.086 A 
HETATM    6  C   UNL     1       8.213  23.306  54.792  1.00  0.00     0.088 A 
HETATM    7  N   UNL     1       8.194  24.547  55.313  1.00  0.00    -0.225 NA
HETATM    8  C   UNL     1       7.601  21.655  53.128  1.00  0.00     0.034 A 
HETATM    9  C   UNL     1       8.313  20.671  53.816  1.00  0.00     0.002 A 
HETATM   10  C   UNL     1       8.980  21.004  54.986  1.00  0.00     0.002 A 
HETATM   11  C   UNL     1       8.921  22.316  55.464  1.00  0.00     0.034 A 
HETATM   12  C   UNL     1       6.290  26.299  52.830  1.00  0.00     0.110 C 
HETATM   13  C   UNL     1       6.668  27.334  53.674  1.00  0.00     0.143 C 
ENDROOT
BRANCH   1  14
HETATM   14  N   UNL     1       7.060  27.244  56.106  1.00  0.00    -0.176 NA
HETATM   15  C   UNL     1       7.968  28.073  56.503  1.00  0.00     0.153 C 
BRANCH  15  16
HETATM   16  C   UNL     1       7.634  29.174  57.430  1.00  0.00     0.019 A 
HETATM   17  C   UNL     1       8.650  29.975  57.959  1.00  0.00     0.113 A 
HETATM   18  C   UNL     1       8.327  31.218  58.522  1.00  0.00     0.102 A 
HETATM   19  C   UNL     1       6.988  31.593  58.662  1.00  0.00     0.040 A 
HETATM   20  C   UNL     1       5.972  30.763  58.194  1.00  0.00     0.004 A 
HETATM   21  C   UNL     1       6.293  29.561  57.565  1.00  0.00     0.016 A 
BRANCH  17  22
HETATM   22  O   UNL     1       9.956  29.559  57.887  1.00  0.00    -0.352 OA
HETATM   23  C   UNL     1      10.571  30.153  56.738  1.00  0.00     0.210 C 
ENDBRANCH  17  22
BRANCH  18  24
HETATM   24  O   UNL     1       9.249  32.120  58.985  1.00  0.00    -0.353 OA
HETATM   25  C   UNL     1       9.473  32.018  60.392  1.00  0.00     0.210 C 
ENDBRANCH  18  24
ENDBRANCH  15  16
ENDBRANCH   1  14
BRANCH  13  26
HETATM   26  N   UNL     1       6.362  28.658  53.545  1.00  0.00    -0.383 N 
HETATM   27  H   UNL     1       7.081  29.373  53.511  1.00  0.00     0.157 HD
HETATM   28  H   UNL     1       5.584  28.888  52.917  1.00  0.00     0.157 HD
ENDBRANCH  13  26
BRANCH  12  29
HETATM   29  C   UNL     1       5.388  26.451  51.698  1.00  0.00     0.258 C 
HETATM   30  N   UNL     1       4.497  27.498  51.819  1.00  0.00    -0.352 N 
HETATM   31  H   UNL     1       4.536  28.024  52.688  1.00  0.00     0.163 HD
HETATM   32  O   UNL     1       5.487  25.773  50.678  1.00  0.00    -0.267 OA
BRANCH  30  33
HETATM   33  C   UNL     1       3.966  28.165  50.638  1.00  0.00     0.084 C 
HETATM   34  C   UNL     1       2.774  29.052  51.002  1.00  0.00     0.025 C 
HETATM   35  C   UNL     1       3.178  30.303  51.780  1.00  0.00     0.002 C 
HETATM   36  C   UNL     1       4.265  31.094  51.059  1.00  0.00     0.000 C 
HETATM   37  C   UNL     1       5.472  30.224  50.729  1.00  0.00     0.002 C 
HETATM   38  C   UNL     1       5.070  28.979  49.938  1.00  0.00     0.025 C 
ENDBRANCH  30  33
ENDBRANCH  12  29
TORSDOF 7
ENDMDL
MODEL 6
REMARK VINA RESULT:      -9.0      3.321      8.601
REMARK  7 active torsions:
REMARK  status: ('A' for Active; 'I' for Inactive)
REMARK    1  A    between atoms: O_2  and  C_3 
REMARK    2  A    between atoms: C_4  and  O_5 
REMARK    3  A    between atoms: C_7  and  C_8 
REMARK    4  A    between atoms: N_9  and  N_10 
REMARK    5  A    between atoms: C_21  and  C_22 
REMARK       I    between atoms: C_22  and  N_23 
REMARK    6  A    between atoms: N_23  and  C_24 
REMARK    7  A    between atoms: C_31  and  N_32 
ROOT
HETATM    1  N   UNL     1       5.929  25.912  53.047  1.00  0.00    -0.197 N 
HETATM    2  C   UNL     1       5.377  26.592  51.970  1.00  0.00     0.183 A 
HETATM    3  C   UNL     1       4.735  27.715  52.473  1.00  0.00     0.125 A 
HETATM    4  N   UNL     1       3.977  28.521  51.683  1.00  0.00    -0.242 NA
HETATM    5  C   UNL     1       3.970  28.180  50.387  1.00  0.00     0.086 A 
HETATM    6  C   UNL     1       4.661  27.045  49.883  1.00  0.00     0.088 A 
HETATM    7  N   UNL     1       5.362  26.208  50.670  1.00  0.00    -0.225 NA
HETATM    8  C   UNL     1       3.256  28.982  49.506  1.00  0.00     0.034 A 
HETATM    9  C   UNL     1       3.215  28.710  48.138  1.00  0.00     0.002 A 
HETATM   10  C   UNL     1       3.901  27.611  47.640  1.00  0.00     0.002 A 
HETATM   11  C   UNL     1       4.614  26.789  48.517  1.00  0.00     0.034 A 
HETATM   12  C   UNL     1       4.974  27.789  53.864  1.00  0.00     0.110 C 
HETATM   13  C   UNL     1       5.859  26.762  54.166  1.00  0.00     0.143 C 
ENDROOT
BRANCH   1  14
HETATM   14  N   UNL     1       6.021  24.539  53.113  1.00  0.00    -0.176 NA
HETATM   15  C   UNL     1       7.160  24.054  52.742  1.00  0.00     0.153 C 
BRANCH  15  16
HETATM   16  C   UNL     1       7.700  22.829  53.366  1.00  0.00     0.019 A 
HETATM   17  C   UNL     1       7.750  22.717  54.758  1.00  0.00     0.113 A 
HETATM   18  C   UNL     1       7.904  21.452  55.344  1.00  0.00     0.102 A 
HETATM   19  C   UNL     1       8.128  20.333  54.538  1.00  0.00     0.040 A 
HETATM   20  C   UNL     1       8.145  20.457  53.150  1.00  0.00     0.004 A 
HETATM   21  C   UNL     1       7.916  21.700  52.562  1.00  0.00     0.016 A 
BRANCH  17  22
HETATM   22  O   UNL     1       7.608  23.837  55.540  1.00  0.00    -0.352 OA
HETATM   23  C   UNL     1       8.858  24.118  56.180  1.00  0.00     0.210 C 
ENDBRANCH  17  22
BRANCH  18  24
HETATM   24  O   UNL     1       7.874  21.217  56.694  1.00  0.00    -0.353 OA
HETATM   25  C   UNL     1       8.953  20.394  57.142  1.00  0.00     0.210 C 
ENDBRANCH  18  24
ENDBRANCH  15  16
ENDBRANCH   1  14
BRANCH  13  26
HETATM   26  N   UNL     1       6.405  26.475  55.383  1.00  0.00    -0.383 N 
HETATM   27  H   UNL     1       6.038  26.870  56.242  1.00  0.00     0.157 HD
HETATM   28  H   UNL     1       6.718  25.508  55.527  1.00  0.00     0.157 HD
ENDBRANCH  13  26
BRANCH  12  29
HETATM   29  C   UNL     1       4.386  28.682  54.852  1.00  0.00     0.258 C 
HETATM   30  N   UNL     1       4.320  30.002  54.456  1.00  0.00    -0.352 N 
HETATM   31  H   UNL     1       4.716  30.218  53.545  1.00  0.00     0.163 HD
HETATM   32  O   UNL     1       3.894  28.273  55.901  1.00  0.00    -0.267 OA
BRANCH  30  33
HETATM   33  C   UNL     1       3.291  30.887  54.984  1.00  0.00     0.084 C 
HETATM   34  C   UNL     1       3.788  31.616  56.234  1.00  0.00     0.025 C 
HETATM   35  C   UNL     1       4.837  32.683  55.924  1.00  0.00     0.002 C 
HETATM   36  C   UNL     1       4.353  33.662  54.859  1.00  0.00     0.000 C 
HETATM   37  C   UNL     1       3.894  32.942  53.596  1.00  0.00     0.002 C 
HETATM   38  C   UNL     1       2.833  31.885  53.905  1.00  0.00     0.025 C 
ENDBRANCH  30  33
ENDBRANCH  12  29
TORSDOF 7
ENDMDL
MODEL 7
REMARK VINA RESULT:      -8.9      3.121      8.431
REMARK  7 active torsions:
REMARK  status: ('A' for Active; 'I' for Inactive)
REMARK    1  A    between atoms: O_2  and  C_3 
REMARK    2  A    between atoms: C_4  and  O_5 
REMARK    3  A    between atoms: C_7  and  C_8 
REMARK    4  A    between atoms: N_9  and  N_10 
REMARK    5  A    between atoms: C_21  and  C_22 
REMARK       I    between atoms: C_22  and  N_23 
REMARK    6  A    between atoms: N_23  and  C_24 
REMARK    7  A    between atoms: C_31  and  N_32 
ROOT
HETATM    1  N   UNL     1       5.419  27.463  54.020  1.00  0.00    -0.197 N 
HETATM    2  C   UNL     1       5.226  28.672  54.672  1.00  0.00     0.183 A 
HETATM    3  C   UNL     1       4.453  29.473  53.841  1.00  0.00     0.125 A 
HETATM    4  N   UNL     1       4.200  30.776  54.135  1.00  0.00    -0.242 NA
HETATM    5  C   UNL     1       4.693  31.185  55.313  1.00  0.00     0.086 A 
HETATM    6  C   UNL     1       5.454  30.342  56.167  1.00  0.00     0.088 A 
HETATM    7  N   UNL     1       5.760  29.069  55.853  1.00  0.00    -0.225 NA
HETATM    8  C   UNL     1       4.437  32.491  55.708  1.00  0.00     0.034 A 
HETATM    9  C   UNL     1       4.894  32.990  56.928  1.00  0.00     0.002 A 
HETATM   10  C   UNL     1       5.625  32.165  57.771  1.00  0.00     0.002 A 
HETATM   11  C   UNL     1       5.900  30.851  57.382  1.00  0.00     0.034 A 
HETATM   12  C   UNL     1       4.078  28.719  52.706  1.00  0.00     0.110 C 
HETATM   13  C   UNL     1       4.539  27.427  52.922  1.00  0.00     0.143 C 
ENDROOT
BRANCH   1  14
HETATM   14  N   UNL     1       6.577  26.722  54.117  1.00  0.00    -0.176 NA
HETATM   15  C   UNL     1       6.495  25.688  54.887  1.00  0.00     0.153 C 
BRANCH  15  16
HETATM   16  C   UNL     1       7.269  24.464  54.595  1.00  0.00     0.019 A 
HETATM   17  C   UNL     1       7.679  23.630  55.639  1.00  0.00     0.113 A 
HETATM   18  C   UNL     1       8.074  22.314  55.357  1.00  0.00     0.102 A 
HETATM   19  C   UNL     1       8.173  21.885  54.031  1.00  0.00     0.040 A 
HETATM   20  C   UNL     1       7.826  22.740  52.986  1.00  0.00     0.004 A 
HETATM   21  C   UNL     1       7.360  24.023  53.267  1.00  0.00     0.016 A 
BRANCH  17  22
HETATM   22  O   UNL     1       7.654  24.090  56.932  1.00  0.00    -0.352 OA
HETATM   23  C   UNL     1       8.941  24.625  57.260  1.00  0.00     0.210 C 
ENDBRANCH  17  22
BRANCH  18  24
HETATM   24  O   UNL     1       8.406  21.386  56.309  1.00  0.00    -0.353 OA
HETATM   25  C   UNL     1       7.907  20.080  56.014  1.00  0.00     0.210 C 
ENDBRANCH  18  24
ENDBRANCH  15  16
ENDBRANCH   1  14
BRANCH  13  26
HETATM   26  N   UNL     1       4.368  26.343  52.110  1.00  0.00    -0.383 N 
HETATM   27  H   UNL     1       3.539  25.761  52.160  1.00  0.00     0.157 HD
HETATM   28  H   UNL     1       4.689  26.444  51.140  1.00  0.00     0.157 HD
ENDBRANCH  13  26
BRANCH  12  29
HETATM   29  C   UNL     1       3.413  29.160  51.489  1.00  0.00     0.258 C 
HETATM   30  N   UNL     1       4.120  28.905  50.332  1.00  0.00    -0.352 N 
HETATM   31  H   UNL     1       5.034  28.475  50.449  1.00  0.00     0.163 HD
HETATM   32  O   UNL     1       2.274  29.620  51.488  1.00  0.00    -0.267 OA
BRANCH  30  33
HETATM   33  C   UNL     1       3.429  28.711  49.064  1.00  0.00     0.084 C 
HETATM   34  C   UNL     1       4.296  29.180  47.894  1.00  0.00     0.025 C 
HETATM   35  C   UNL     1       5.482  28.256  47.624  1.00  0.00     0.002 C 
HETATM   36  C   UNL     1       5.044  26.805  47.451  1.00  0.00     0.000 C 
HETATM   37  C   UNL     1       4.212  26.321  48.634  1.00  0.00     0.002 C 
HETATM   38  C   UNL     1       3.017  27.238  48.894  1.00  0.00     0.025 C 
ENDBRANCH  30  33
ENDBRANCH  12  29
TORSDOF 7
ENDMDL
MODEL 8
REMARK VINA RESULT:      -8.9      2.869      5.137
REMARK  7 active torsions:
REMARK  status: ('A' for Active; 'I' for Inactive)
REMARK    1  A    between atoms: O_2  and  C_3 
REMARK    2  A    between atoms: C_4  and  O_5 
REMARK    3  A    between atoms: C_7  and  C_8 
REMARK    4  A    between atoms: N_9  and  N_10 
REMARK    5  A    between atoms: C_21  and  C_22 
REMARK       I    between atoms: C_22  and  N_23 
REMARK    6  A    between atoms: N_23  and  C_24 
REMARK    7  A    between atoms: C_31  and  N_32 
ROOT
HETATM    1  N   UNL     1       6.060  31.441  58.354  1.00  0.00    -0.197 N 
HETATM    2  C   UNL     1       5.157  31.681  57.328  1.00  0.00     0.183 A 
HETATM    3  C   UNL     1       5.479  30.826  56.283  1.00  0.00     0.125 A 
HETATM    4  N   UNL     1       4.862  30.908  55.074  1.00  0.00    -0.242 NA
HETATM    5  C   UNL     1       3.885  31.824  55.011  1.00  0.00     0.086 A 
HETATM    6  C   UNL     1       3.546  32.669  56.102  1.00  0.00     0.088 A 
HETATM    7  N   UNL     1       4.194  32.634  57.281  1.00  0.00    -0.225 NA
HETATM    8  C   UNL     1       3.175  31.937  53.823  1.00  0.00     0.034 A 
HETATM    9  C   UNL     1       2.128  32.849  53.681  1.00  0.00     0.002 A 
HETATM   10  C   UNL     1       1.784  33.665  54.749  1.00  0.00     0.002 A 
HETATM   11  C   UNL     1       2.498  33.569  55.947  1.00  0.00     0.034 A 
HETATM   12  C   UNL     1       6.528  29.975  56.700  1.00  0.00     0.110 C 
HETATM   13  C   UNL     1       6.751  30.255  58.041  1.00  0.00     0.143 C 
ENDROOT
BRANCH   1  14
HETATM   14  N   UNL     1       6.534  32.422  59.197  1.00  0.00    -0.176 NA
HETATM   15  C   UNL     1       5.869  32.559  60.296  1.00  0.00     0.153 C 
BRANCH  15  16
HETATM   16  C   UNL     1       6.547  32.969  61.544  1.00  0.00     0.019 A 
HETATM   17  C   UNL     1       5.877  33.771  62.472  1.00  0.00     0.113 A 
HETATM   18  C   UNL     1       6.357  33.851  63.787  1.00  0.00     0.102 A 
HETATM   19  C   UNL     1       7.562  33.232  64.129  1.00  0.00     0.040 A 
HETATM   20  C   UNL     1       8.264  32.486  63.184  1.00  0.00     0.004 A 
HETATM   21  C   UNL     1       7.751  32.342  61.896  1.00  0.00     0.016 A 
BRANCH  17  22
HETATM   22  O   UNL     1       4.737  34.439  62.102  1.00  0.00    -0.352 OA
HETATM   23  C   UNL     1       5.067  35.804  61.824  1.00  0.00     0.210 C 
ENDBRANCH  17  22
BRANCH  18  24
HETATM   24  O   UNL     1       5.730  34.531  64.799  1.00  0.00    -0.353 OA
HETATM   25  C   UNL     1       4.838  33.710  65.555  1.00  0.00     0.210 C 
ENDBRANCH  18  24
ENDBRANCH  15  16
ENDBRANCH   1  14
BRANCH  13  26
HETATM   26  N   UNL     1       7.645  29.646  58.874  1.00  0.00    -0.383 N 
HETATM   27  H   UNL     1       7.365  29.256  59.768  1.00  0.00     0.157 HD
HETATM   28  H   UNL     1       8.362  29.063  58.427  1.00  0.00     0.157 HD
ENDBRANCH  13  26
BRANCH  12  29
HETATM   29  C   UNL     1       7.312  29.032  55.917  1.00  0.00     0.258 C 
HETATM   30  N   UNL     1       6.561  28.093  55.239  1.00  0.00    -0.352 N 
HETATM   31  H   UNL     1       5.555  28.134  55.383  1.00  0.00     0.163 HD
HETATM   32  O   UNL     1       8.530  29.132  55.788  1.00  0.00    -0.267 OA
BRANCH  30  33
HETATM   33  C   UNL     1       7.053  27.494  54.007  1.00  0.00     0.084 C 
HETATM   34  C   UNL     1       7.286  25.992  54.186  1.00  0.00     0.025 C 
HETATM   35  C   UNL     1       5.986  25.197  54.296  1.00  0.00     0.002 C 
HETATM   36  C   UNL     1       5.045  25.483  53.129  1.00  0.00     0.000 C 
HETATM   37  C   UNL     1       4.779  26.976  52.971  1.00  0.00     0.002 C 
HETATM   38  C   UNL     1       6.080  27.770  52.846  1.00  0.00     0.025 C 
ENDBRANCH  30  33
ENDBRANCH  12  29
TORSDOF 7
ENDMDL
MODEL 9
REMARK VINA RESULT:      -8.9      4.752      8.996
REMARK  7 active torsions:
REMARK  status: ('A' for Active; 'I' for Inactive)
REMARK    1  A    between atoms: O_2  and  C_3 
REMARK    2  A    between atoms: C_4  and  O_5 
REMARK    3  A    between atoms: C_7  and  C_8 
REMARK    4  A    between atoms: N_9  and  N_10 
REMARK    5  A    between atoms: C_21  and  C_22 
REMARK       I    between atoms: C_22  and  N_23 
REMARK    6  A    between atoms: N_23  and  C_24 
REMARK    7  A    between atoms: C_31  and  N_32 
ROOT
HETATM    1  N   UNL     1       5.665  26.550  52.199  1.00  0.00    -0.197 N 
HETATM    2  C   UNL     1       4.983  26.611  50.992  1.00  0.00     0.183 A 
HETATM    3  C   UNL     1       4.637  27.938  50.776  1.00  0.00     0.125 A 
HETATM    4  N   UNL     1       3.840  28.311  49.740  1.00  0.00    -0.242 NA
HETATM    5  C   UNL     1       3.488  27.309  48.922  1.00  0.00     0.086 A 
HETATM    6  C   UNL     1       3.879  25.960  49.139  1.00  0.00     0.088 A 
HETATM    7  N   UNL     1       4.617  25.575  50.197  1.00  0.00    -0.225 NA
HETATM    8  C   UNL     1       2.712  27.617  47.812  1.00  0.00     0.034 A 
HETATM    9  C   UNL     1       2.321  26.637  46.898  1.00  0.00     0.002 A 
HETATM   10  C   UNL     1       2.714  25.322  47.099  1.00  0.00     0.002 A 
HETATM   11  C   UNL     1       3.486  24.996  48.218  1.00  0.00     0.034 A 
HETATM   12  C   UNL     1       5.197  28.725  51.808  1.00  0.00     0.110 C 
HETATM   13  C   UNL     1       5.974  27.870  52.578  1.00  0.00     0.143 C 
ENDROOT
BRANCH   1  14
HETATM   14  N   UNL     1       5.577  25.488  53.071  1.00  0.00    -0.176 NA
HETATM   15  C   UNL     1       6.574  24.667  53.027  1.00  0.00     0.153 C 
BRANCH  15  16
HETATM   16  C   UNL     1       7.023  23.958  54.243  1.00  0.00     0.019 A 
HETATM   17  C   UNL     1       7.893  22.869  54.136  1.00  0.00     0.113 A 
HETATM   18  C   UNL     1       8.602  22.438  55.267  1.00  0.00     0.102 A 
HETATM   19  C   UNL     1       8.346  23.016  56.513  1.00  0.00     0.040 A 
HETATM   20  C   UNL     1       7.428  24.059  56.630  1.00  0.00     0.004 A 
HETATM   21  C   UNL     1       6.778  24.540  55.495  1.00  0.00     0.016 A 
BRANCH  17  22
HETATM   22  O   UNL     1       8.076  22.257  52.921  1.00  0.00    -0.352 OA
HETATM   23  C   UNL     1       7.611  20.906  53.006  1.00  0.00     0.210 C 
ENDBRANCH  17  22
BRANCH  18  24
HETATM   24  O   UNL     1       9.545  21.444  55.255  1.00  0.00    -0.353 OA
HETATM   25  C   UNL     1       9.266  20.397  56.187  1.00  0.00     0.210 C 
ENDBRANCH  18  24
ENDBRANCH  15  16
ENDBRANCH   1  14
BRANCH  13  26
HETATM   26  N   UNL     1       6.738  28.199  53.660  1.00  0.00    -0.383 N 
HETATM   27  H   UNL     1       6.384  28.126  54.608  1.00  0.00     0.157 HD
HETATM   28  H   UNL     1       7.730  27.937  53.616  1.00  0.00     0.157 HD
ENDBRANCH  13  26
BRANCH  12  29
HETATM   29  C   UNL     1       4.981  30.132  52.109  1.00  0.00     0.258 C 
HETATM   30  N   UNL     1       5.382  30.995  51.110  1.00  0.00    -0.352 N 
HETATM   31  H   UNL     1       5.814  30.568  50.294  1.00  0.00     0.163 HD
HETATM   32  O   UNL     1       4.394  30.509  53.121  1.00  0.00    -0.267 OA
BRANCH  30  33
HETATM   33  C   UNL     1       4.745  32.294  50.947  1.00  0.00     0.084 C 
HETATM   34  C   UNL     1       5.736  33.323  50.399  1.00  0.00     0.025 C 
HETATM   35  C   UNL     1       6.092  33.084  48.933  1.00  0.00     0.002 C 
HETATM   36  C   UNL     1       4.848  32.981  48.055  1.00  0.00     0.000 C 
HETATM   37  C   UNL     1       3.875  31.929  48.575  1.00  0.00     0.002 C 
HETATM   38  C   UNL     1       3.507  32.177  50.039  1.00  0.00     0.025 C 
ENDBRANCH  30  33
ENDBRANCH  12  29
TORSDOF 7
ENDMDL
MODEL 10
REMARK VINA RESULT:      -8.9      2.242      5.593
REMARK  7 active torsions:
REMARK  status: ('A' for Active; 'I' for Inactive)
REMARK    1  A    between atoms: O_2  and  C_3 
REMARK    2  A    between atoms: C_4  and  O_5 
REMARK    3  A    between atoms: C_7  and  C_8 
REMARK    4  A    between atoms: N_9  and  N_10 
REMARK    5  A    between atoms: C_21  and  C_22 
REMARK       I    between atoms: C_22  and  N_23 
REMARK    6  A    between atoms: N_23  and  C_24 
REMARK    7  A    between atoms: C_31  and  N_32 
ROOT
HETATM    1  N   UNL     1       6.127  28.393  55.223  1.00  0.00    -0.197 N 
HETATM    2  C   UNL     1       6.511  27.161  54.712  1.00  0.00     0.183 A 
HETATM    3  C   UNL     1       5.814  26.967  53.527  1.00  0.00     0.125 A 
HETATM    4  N   UNL     1       5.867  25.791  52.848  1.00  0.00    -0.242 NA
HETATM    5  C   UNL     1       6.696  24.880  53.379  1.00  0.00     0.086 A 
HETATM    6  C   UNL     1       7.428  25.108  54.576  1.00  0.00     0.088 A 
HETATM    7  N   UNL     1       7.333  26.248  55.286  1.00  0.00    -0.225 NA
HETATM    8  C   UNL     1       6.841  23.668  52.719  1.00  0.00     0.034 A 
HETATM    9  C   UNL     1       7.701  22.675  53.192  1.00  0.00     0.002 A 
HETATM   10  C   UNL     1       8.428  22.899  54.352  1.00  0.00     0.002 A 
HETATM   11  C   UNL     1       8.283  24.111  55.033  1.00  0.00     0.034 A 
HETATM   12  C   UNL     1       5.066  28.133  53.246  1.00  0.00     0.110 C 
HETATM   13  C   UNL     1       5.412  29.066  54.215  1.00  0.00     0.143 C 
ENDROOT
BRANCH   1  14
HETATM   14  N   UNL     1       6.014  28.656  56.570  1.00  0.00    -0.176 NA
HETATM   15  C   UNL     1       6.943  29.411  57.055  1.00  0.00     0.153 C 
BRANCH  15  16
HETATM   16  C   UNL     1       6.658  30.342  58.166  1.00  0.00     0.019 A 
HETATM   17  C   UNL     1       7.662  30.666  59.082  1.00  0.00     0.113 A 
HETATM   18  C   UNL     1       7.518  31.803  59.891  1.00  0.00     0.102 A 
HETATM   19  C   UNL     1       6.325  32.530  59.867  1.00  0.00     0.040 A 
HETATM   20  C   UNL     1       5.296  32.165  59.000  1.00  0.00     0.004 A 
HETATM   21  C   UNL     1       5.467  31.082  58.139  1.00  0.00     0.016 A 
BRANCH  17  22
HETATM   22  O   UNL     1       8.797  29.897  59.153  1.00  0.00    -0.352 OA
HETATM   23  C   UNL     1       9.833  30.526  58.392  1.00  0.00     0.210 C 
ENDBRANCH  17  22
BRANCH  18  24
HETATM   24  O   UNL     1       8.477  32.264  60.755  1.00  0.00    -0.353 OA
HETATM   25  C   UNL     1       8.053  32.254  62.119  1.00  0.00     0.210 C 
ENDBRANCH  18  24
ENDBRANCH  15  16
ENDBRANCH   1  14
BRANCH  13  26
HETATM   26  N   UNL     1       4.969  30.353  54.317  1.00  0.00    -0.383 N 
HETATM   27  H   UNL     1       4.966  30.850  55.201  1.00  0.00     0.157 HD
HETATM   28  H   UNL     1       5.210  30.982  53.542  1.00  0.00     0.157 HD
ENDBRANCH  13  26
BRANCH  12  29
HETATM   29  C   UNL     1       4.061  28.354  52.217  1.00  0.00     0.258 C 
HETATM   30  N   UNL     1       4.488  28.072  50.936  1.00  0.00    -0.352 N 
HETATM   31  H   UNL     1       5.457  27.778  50.839  1.00  0.00     0.163 HD
HETATM   32  O   UNL     1       2.901  28.662  52.481  1.00  0.00    -0.267 OA
BRANCH  30  33
HETATM   33  C   UNL     1       3.542  27.659  49.909  1.00  0.00     0.084 C 
HETATM   34  C   UNL     1       3.094  28.855  49.067  1.00  0.00     0.025 C 
HETATM   35  C   UNL     1       4.190  29.375  48.139  1.00  0.00     0.002 C 
HETATM   36  C   UNL     1       4.771  28.264  47.269  1.00  0.00     0.000 C 
HETATM   37  C   UNL     1       5.255  27.085  48.106  1.00  0.00     0.002 C 
HETATM   38  C   UNL     1       4.153  26.556  49.024  1.00  0.00     0.025 C 
ENDBRANCH  30  33
ENDBRANCH  12  29
TORSDOF 7
ENDMDL
