MODEL 1
REMARK VINA RESULT:      -9.6      0.000      0.000
REMARK  8 active torsions:
REMARK  status: ('A' for Active; 'I' for Inactive)
REMARK    1  A    between atoms: C_3  and  C_4 
REMARK    2  A    between atoms: N_5  and  N_6 
REMARK    3  A    between atoms: C_17  and  C_18 
REMARK       I    between atoms: C_18  and  N_19 
REMARK    4  A    between atoms: N_19  and  C_20 
REMARK    5  A    between atoms: C_20  and  C_21 
REMARK    6  A    between atoms: C_21  and  C_22 
REMARK    7  A    between atoms: C_29  and  N_30 
REMARK    8  A    between atoms: C_31  and  O_32 
ROOT
HETATM    1  N   UNL     1       5.046  28.504  55.817  1.00  0.00    -0.202 N 
HETATM    2  C   UNL     1       6.337  28.886  56.119  1.00  0.00     0.183 A 
HETATM    3  C   UNL     1       7.168  28.431  55.098  1.00  0.00     0.124 A 
HETATM    4  N   UNL     1       8.507  28.658  55.135  1.00  0.00    -0.242 NA
HETATM    5  C   UNL     1       8.929  29.372  56.196  1.00  0.00     0.086 A 
HETATM    6  C   UNL     1       8.055  29.833  57.214  1.00  0.00     0.088 A 
HETATM    7  N   UNL     1       6.735  29.591  57.204  1.00  0.00    -0.225 NA
HETATM    8  C   UNL     1      10.282  29.675  56.302  1.00  0.00     0.034 A 
HETATM    9  C   UNL     1      10.788  30.416  57.374  1.00  0.00     0.002 A 
HETATM   10  C   UNL     1       9.927  30.863  58.365  1.00  0.00     0.002 A 
HETATM   11  C   UNL     1       8.568  30.566  58.275  1.00  0.00     0.034 A 
HETATM   12  C   UNL     1       6.359  27.764  54.143  1.00  0.00     0.104 A 
HETATM   13  C   UNL     1       5.047  27.855  54.594  1.00  0.00     0.123 A 
ENDROOT
BRANCH  12  14
HETATM   14  C   UNL     1       6.727  27.151  52.885  1.00  0.00     0.257 C 
HETATM   15  N   UNL     1       7.845  26.341  53.005  1.00  0.00    -0.356 N 
HETATM   16  H   UNL     1       8.350  26.448  53.876  1.00  0.00     0.162 HD
HETATM   17  O   UNL     1       6.024  27.209  51.884  1.00  0.00    -0.267 OA
BRANCH  15  18
HETATM   18  C   UNL     1       7.764  24.973  52.532  1.00  0.00     0.127 C 
BRANCH  18  19
HETATM   19  C   UNL     1       6.778  24.088  53.294  1.00  0.00     0.053 C 
BRANCH  19  20
HETATM   20  C   UNL     1       7.428  22.817  53.787  1.00  0.00    -0.082 C 
HETATM   21  C   UNL     1       7.534  22.649  55.282  1.00  0.00     0.034 C 
HETATM   22  C   UNL     1       8.520  21.556  55.702  1.00  0.00     0.005 C 
HETATM   23  C   UNL     1       8.368  20.307  54.841  1.00  0.00     0.004 C 
HETATM   24  C   UNL     1       8.579  20.624  53.361  1.00  0.00     0.027 C 
HETATM   25  C   UNL     1       7.906  21.895  52.930  1.00  0.00    -0.024 C 
ENDBRANCH  19  20
ENDBRANCH  18  19
ENDBRANCH  15  18
ENDBRANCH  12  14
BRANCH  13  26
HETATM   26  N   UNL     1       3.868  27.450  54.032  1.00  0.00    -0.286 NA
HETATM   27  H   UNL     1       3.114  28.139  53.994  1.00  0.00     0.125 HD
HETATM   28  H   UNL     1       3.504  26.560  54.382  1.00  0.00     0.125 HD
ENDBRANCH  13  26
BRANCH   1  29
HETATM   29  N   UNL     1       3.896  28.842  56.479  1.00  0.00    -0.176 NA
HETATM   30  C   UNL     1       3.336  29.957  56.120  1.00  0.00     0.153 C 
BRANCH  30  31
HETATM   31  C   UNL     1       3.865  31.003  55.234  1.00  0.00     0.016 A 
HETATM   32  C   UNL     1       3.481  31.001  53.893  1.00  0.00     0.016 A 
HETATM   33  C   UNL     1       3.867  32.057  53.067  1.00  0.00     0.001 A 
HETATM   34  C   UNL     1       4.597  33.124  53.592  1.00  0.00     0.003 A 
HETATM   35  C   UNL     1       4.969  33.126  54.939  1.00  0.00     0.037 A 
HETATM   36  C   UNL     1       4.620  32.056  55.756  1.00  0.00     0.077 A 
BRANCH  36  37
HETATM   37  O   UNL     1       5.038  32.106  57.056  1.00  0.00    -0.360 OA
HETATM   38  H   UNL     1       5.913  32.538  57.093  1.00  0.00     0.217 HD
ENDBRANCH  36  37
ENDBRANCH  30  31
ENDBRANCH   1  29
TORSDOF 8
ENDMDL
MODEL 2
REMARK VINA RESULT:      -9.4      5.709      8.933
REMARK  8 active torsions:
REMARK  status: ('A' for Active; 'I' for Inactive)
REMARK    1  A    between atoms: C_3  and  C_4 
REMARK    2  A    between atoms: N_5  and  N_6 
REMARK    3  A    between atoms: C_17  and  C_18 
REMARK       I    between atoms: C_18  and  N_19 
REMARK    4  A    between atoms: N_19  and  C_20 
REMARK    5  A    between atoms: C_20  and  C_21 
REMARK    6  A    between atoms: C_21  and  C_22 
REMARK    7  A    between atoms: C_29  and  N_30 
REMARK    8  A    between atoms: C_31  and  O_32 
ROOT
HETATM    1  N   UNL     1       3.970  33.220  62.480  1.00  0.00    -0.202 N 
HETATM    2  C   UNL     1       4.225  33.068  61.133  1.00  0.00     0.183 A 
HETATM    3  C   UNL     1       5.507  32.540  60.997  1.00  0.00     0.124 A 
HETATM    4  N   UNL     1       6.033  32.291  59.770  1.00  0.00    -0.242 NA
HETATM    5  C   UNL     1       5.209  32.559  58.738  1.00  0.00     0.086 A 
HETATM    6  C   UNL     1       3.901  33.084  58.910  1.00  0.00     0.088 A 
HETATM    7  N   UNL     1       3.382  33.362  60.116  1.00  0.00    -0.225 NA
HETATM    8  C   UNL     1       5.654  32.309  57.445  1.00  0.00     0.034 A 
HETATM    9  C   UNL     1       4.850  32.559  56.329  1.00  0.00     0.002 A 
HETATM   10  C   UNL     1       3.573  33.072  56.506  1.00  0.00     0.002 A 
HETATM   11  C   UNL     1       3.113  33.330  57.796  1.00  0.00     0.034 A 
HETATM   12  C   UNL     1       6.041  32.356  62.298  1.00  0.00     0.104 A 
HETATM   13  C   UNL     1       5.058  32.750  63.197  1.00  0.00     0.123 A 
ENDROOT
BRANCH  12  14
HETATM   14  C   UNL     1       7.315  31.801  62.705  1.00  0.00     0.257 C 
HETATM   15  N   UNL     1       7.717  30.757  61.887  1.00  0.00    -0.356 N 
HETATM   16  H   UNL     1       6.997  30.408  61.267  1.00  0.00     0.162 HD
HETATM   17  O   UNL     1       8.023  32.316  63.561  1.00  0.00    -0.267 OA
BRANCH  15  18
HETATM   18  C   UNL     1       9.036  30.815  61.288  1.00  0.00     0.127 C 
BRANCH  18  19
HETATM   19  C   UNL     1       9.127  31.657  60.014  1.00  0.00     0.053 C 
BRANCH  19  20
HETATM   20  C   UNL     1       9.295  30.797  58.784  1.00  0.00    -0.082 C 
HETATM   21  C   UNL     1       8.222  29.768  58.528  1.00  0.00     0.034 C 
HETATM   22  C   UNL     1       8.634  28.700  57.512  1.00  0.00     0.005 C 
HETATM   23  C   UNL     1       9.348  29.317  56.314  1.00  0.00     0.004 C 
HETATM   24  C   UNL     1      10.589  30.095  56.748  1.00  0.00     0.027 C 
HETATM   25  C   UNL     1      10.360  30.934  57.972  1.00  0.00    -0.024 C 
ENDBRANCH  19  20
ENDBRANCH  18  19
ENDBRANCH  15  18
ENDBRANCH  12  14
BRANCH  13  26
HETATM   26  N   UNL     1       5.015  32.715  64.563  1.00  0.00    -0.286 NA
HETATM   27  H   UNL     1       4.770  31.822  64.995  1.00  0.00     0.125 HD
HETATM   28  H   UNL     1       4.475  33.468  65.000  1.00  0.00     0.125 HD
ENDBRANCH  13  26
BRANCH   1  29
HETATM   29  N   UNL     1       2.792  33.591  63.073  1.00  0.00    -0.176 NA
HETATM   30  C   UNL     1       2.611  34.867  63.236  1.00  0.00     0.153 C 
BRANCH  30  31
HETATM   31  C   UNL     1       3.576  35.958  63.047  1.00  0.00     0.016 A 
HETATM   32  C   UNL     1       3.512  36.712  61.874  1.00  0.00     0.016 A 
HETATM   33  C   UNL     1       4.331  37.833  61.733  1.00  0.00     0.001 A 
HETATM   34  C   UNL     1       5.177  38.216  62.776  1.00  0.00     0.003 A 
HETATM   35  C   UNL     1       5.228  37.464  63.952  1.00  0.00     0.037 A 
HETATM   36  C   UNL     1       4.441  36.324  64.081  1.00  0.00     0.077 A 
BRANCH  36  37
HETATM   37  O   UNL     1       4.559  35.618  65.245  1.00  0.00    -0.360 OA
HETATM   38  H   UNL     1       3.667  35.438  65.601  1.00  0.00     0.217 HD
ENDBRANCH  36  37
ENDBRANCH  30  31
ENDBRANCH   1  29
TORSDOF 8
ENDMDL
MODEL 3
REMARK VINA RESULT:      -9.3      2.157      4.752
REMARK  8 active torsions:
REMARK  status: ('A' for Active; 'I' for Inactive)
REMARK    1  A    between atoms: C_3  and  C_4 
REMARK    2  A    between atoms: N_5  and  N_6 
REMARK    3  A    between atoms: C_17  and  C_18 
REMARK       I    between atoms: C_18  and  N_19 
REMARK    4  A    between atoms: N_19  and  C_20 
REMARK    5  A    between atoms: C_20  and  C_21 
REMARK    6  A    between atoms: C_21  and  C_22 
REMARK    7  A    between atoms: C_29  and  N_30 
REMARK    8  A    between atoms: C_31  and  O_32 
ROOT
HETATM    1  N   UNL     1       4.567  28.082  54.514  1.00  0.00    -0.202 N 
HETATM    2  C   UNL     1       4.689  28.887  53.400  1.00  0.00     0.183 A 
HETATM    3  C   UNL     1       5.148  28.096  52.349  1.00  0.00     0.124 A 
HETATM    4  N   UNL     1       5.371  28.630  51.120  1.00  0.00    -0.242 NA
HETATM    5  C   UNL     1       5.078  29.940  51.012  1.00  0.00     0.086 A 
HETATM    6  C   UNL     1       4.599  30.717  52.100  1.00  0.00     0.088 A 
HETATM    7  N   UNL     1       4.403  30.208  53.326  1.00  0.00    -0.225 NA
HETATM    8  C   UNL     1       5.250  30.565  49.782  1.00  0.00     0.034 A 
HETATM    9  C   UNL     1       4.962  31.920  49.599  1.00  0.00     0.002 A 
HETATM   10  C   UNL     1       4.494  32.672  50.667  1.00  0.00     0.002 A 
HETATM   11  C   UNL     1       4.318  32.061  51.908  1.00  0.00     0.034 A 
HETATM   12  C   UNL     1       5.298  26.772  52.834  1.00  0.00     0.104 A 
HETATM   13  C   UNL     1       4.898  26.783  54.166  1.00  0.00     0.123 A 
ENDROOT
BRANCH  12  14
HETATM   14  C   UNL     1       5.704  25.571  52.136  1.00  0.00     0.257 C 
HETATM   15  N   UNL     1       7.034  25.616  51.747  1.00  0.00    -0.356 N 
HETATM   16  H   UNL     1       7.463  26.530  51.823  1.00  0.00     0.162 HD
HETATM   17  O   UNL     1       4.999  24.573  52.061  1.00  0.00    -0.267 OA
BRANCH  15  18
HETATM   18  C   UNL     1       7.905  24.521  52.127  1.00  0.00     0.127 C 
BRANCH  18  19
HETATM   19  C   UNL     1       8.045  24.305  53.634  1.00  0.00     0.053 C 
BRANCH  19  20
HETATM   20  C   UNL     1       8.072  22.838  53.992  1.00  0.00    -0.082 C 
HETATM   21  C   UNL     1       8.428  21.880  52.882  1.00  0.00     0.034 C 
HETATM   22  C   UNL     1       8.072  20.425  53.197  1.00  0.00     0.005 C 
HETATM   23  C   UNL     1       8.453  20.054  54.626  1.00  0.00     0.004 C 
HETATM   24  C   UNL     1       7.762  20.966  55.639  1.00  0.00     0.027 C 
HETATM   25  C   UNL     1       7.771  22.411  55.233  1.00  0.00    -0.024 C 
ENDBRANCH  19  20
ENDBRANCH  18  19
ENDBRANCH  15  18
ENDBRANCH  12  14
BRANCH  13  26
HETATM   26  N   UNL     1       4.775  25.775  55.081  1.00  0.00    -0.286 NA
HETATM   27  H   UNL     1       4.185  24.983  54.819  1.00  0.00     0.125 HD
HETATM   28  H   UNL     1       4.542  26.079  56.031  1.00  0.00     0.125 HD
ENDBRANCH  13  26
BRANCH   1  29
HETATM   29  N   UNL     1       4.036  28.413  55.732  1.00  0.00    -0.176 NA
HETATM   30  C   UNL     1       4.889  28.735  56.658  1.00  0.00     0.153 C 
BRANCH  30  31
HETATM   31  C   UNL     1       6.352  28.610  56.637  1.00  0.00     0.016 A 
HETATM   32  C   UNL     1       7.115  29.732  56.312  1.00  0.00     0.016 A 
HETATM   33  C   UNL     1       8.505  29.671  56.414  1.00  0.00     0.001 A 
HETATM   34  C   UNL     1       9.121  28.506  56.876  1.00  0.00     0.003 A 
HETATM   35  C   UNL     1       8.351  27.389  57.211  1.00  0.00     0.037 A 
HETATM   36  C   UNL     1       6.967  27.435  57.074  1.00  0.00     0.077 A 
BRANCH  36  37
HETATM   37  O   UNL     1       6.275  26.300  57.392  1.00  0.00    -0.360 OA
HETATM   38  H   UNL     1       6.900  25.552  57.455  1.00  0.00     0.217 HD
ENDBRANCH  36  37
ENDBRANCH  30  31
ENDBRANCH   1  29
TORSDOF 8
ENDMDL
MODEL 4
REMARK VINA RESULT:      -9.2      6.707     10.143
REMARK  8 active torsions:
REMARK  status: ('A' for Active; 'I' for Inactive)
REMARK    1  A    between atoms: C_3  and  C_4 
REMARK    2  A    between atoms: N_5  and  N_6 
REMARK    3  A    between atoms: C_17  and  C_18 
REMARK       I    between atoms: C_18  and  N_19 
REMARK    4  A    between atoms: N_19  and  C_20 
REMARK    5  A    between atoms: C_20  and  C_21 
REMARK    6  A    between atoms: C_21  and  C_22 
REMARK    7  A    between atoms: C_29  and  N_30 
REMARK    8  A    between atoms: C_31  and  O_32 
ROOT
HETATM    1  N   UNL     1       3.810  34.840  62.891  1.00  0.00    -0.202 N 
HETATM    2  C   UNL     1       4.509  35.992  62.596  1.00  0.00     0.183 A 
HETATM    3  C   UNL     1       4.414  36.210  61.223  1.00  0.00     0.124 A 
HETATM    4  N   UNL     1       5.020  37.279  60.643  1.00  0.00    -0.242 NA
HETATM    5  C   UNL     1       5.663  38.096  61.499  1.00  0.00     0.086 A 
HETATM    6  C   UNL     1       5.730  37.853  62.897  1.00  0.00     0.088 A 
HETATM    7  N   UNL     1       5.161  36.786  63.477  1.00  0.00    -0.225 NA
HETATM    8  C   UNL     1       6.290  39.231  60.997  1.00  0.00     0.034 A 
HETATM    9  C   UNL     1       6.971  40.124  61.829  1.00  0.00     0.002 A 
HETATM   10  C   UNL     1       7.032  39.880  63.193  1.00  0.00     0.002 A 
HETATM   11  C   UNL     1       6.410  38.745  63.713  1.00  0.00     0.034 A 
HETATM   12  C   UNL     1       3.627  35.168  60.670  1.00  0.00     0.104 A 
HETATM   13  C   UNL     1       3.236  34.354  61.728  1.00  0.00     0.123 A 
ENDROOT
BRANCH  12  14
HETATM   14  C   UNL     1       3.200  34.957  59.304  1.00  0.00     0.257 C 
HETATM   15  N   UNL     1       4.272  34.818  58.436  1.00  0.00    -0.356 N 
HETATM   16  H   UNL     1       5.168  35.078  58.830  1.00  0.00     0.162 HD
HETATM   17  O   UNL     1       2.034  34.751  58.994  1.00  0.00    -0.267 OA
BRANCH  15  18
HETATM   18  C   UNL     1       4.320  33.654  57.574  1.00  0.00     0.127 C 
BRANCH  18  19
HETATM   19  C   UNL     1       4.207  32.313  58.299  1.00  0.00     0.053 C 
BRANCH  19  20
HETATM   20  C   UNL     1       5.555  31.651  58.468  1.00  0.00    -0.082 C 
HETATM   21  C   UNL     1       6.510  32.303  59.437  1.00  0.00     0.034 C 
HETATM   22  C   UNL     1       7.955  31.825  59.280  1.00  0.00     0.005 C 
HETATM   23  C   UNL     1       8.026  30.312  59.099  1.00  0.00     0.004 C 
HETATM   24  C   UNL     1       7.218  29.861  57.883  1.00  0.00     0.027 C 
HETATM   25  C   UNL     1       5.888  30.548  57.772  1.00  0.00    -0.024 C 
ENDBRANCH  19  20
ENDBRANCH  18  19
ENDBRANCH  15  18
ENDBRANCH  12  14
BRANCH  13  26
HETATM   26  N   UNL     1       2.419  33.260  61.771  1.00  0.00    -0.286 NA
HETATM   27  H   UNL     1       1.478  33.400  62.144  1.00  0.00     0.125 HD
HETATM   28  H   UNL     1       2.836  32.424  62.192  1.00  0.00     0.125 HD
ENDBRANCH  13  26
BRANCH   1  29
HETATM   29  N   UNL     1       3.538  34.319  64.128  1.00  0.00    -0.176 NA
HETATM   30  C   UNL     1       4.458  33.560  64.643  1.00  0.00     0.153 C 
BRANCH  30  31
HETATM   31  C   UNL     1       5.668  33.028  64.004  1.00  0.00     0.016 A 
HETATM   32  C   UNL     1       6.902  33.591  64.334  1.00  0.00     0.016 A 
HETATM   33  C   UNL     1       8.073  33.016  63.840  1.00  0.00     0.001 A 
HETATM   34  C   UNL     1       8.008  31.864  63.054  1.00  0.00     0.003 A 
HETATM   35  C   UNL     1       6.771  31.298  62.736  1.00  0.00     0.037 A 
HETATM   36  C   UNL     1       5.599  31.891  63.196  1.00  0.00     0.077 A 
BRANCH  36  37
HETATM   37  O   UNL     1       4.421  31.305  62.826  1.00  0.00    -0.360 OA
HETATM   38  H   UNL     1       3.802  31.996  62.521  1.00  0.00     0.217 HD
ENDBRANCH  36  37
ENDBRANCH  30  31
ENDBRANCH   1  29
TORSDOF 8
ENDMDL
MODEL 5
REMARK VINA RESULT:      -9.1      3.635      6.871
REMARK  8 active torsions:
REMARK  status: ('A' for Active; 'I' for Inactive)
REMARK    1  A    between atoms: C_3  and  C_4 
REMARK    2  A    between atoms: N_5  and  N_6 
REMARK    3  A    between atoms: C_17  and  C_18 
REMARK       I    between atoms: C_18  and  N_19 
REMARK    4  A    between atoms: N_19  and  C_20 
REMARK    5  A    between atoms: C_20  and  C_21 
REMARK    6  A    between atoms: C_21  and  C_22 
REMARK    7  A    between atoms: C_29  and  N_30 
REMARK    8  A    between atoms: C_31  and  O_32 
ROOT
HETATM    1  N   UNL     1       5.050  26.407  55.316  1.00  0.00    -0.202 N 
HETATM    2  C   UNL     1       5.908  25.404  54.917  1.00  0.00     0.183 A 
HETATM    3  C   UNL     1       6.114  25.537  53.546  1.00  0.00     0.124 A 
HETATM    4  N   UNL     1       6.917  24.672  52.874  1.00  0.00    -0.242 NA
HETATM    5  C   UNL     1       7.502  23.732  53.642  1.00  0.00     0.086 A 
HETATM    6  C   UNL     1       7.281  23.630  55.041  1.00  0.00     0.088 A 
HETATM    7  N   UNL     1       6.468  24.461  55.711  1.00  0.00    -0.225 NA
HETATM    8  C   UNL     1       8.362  22.819  53.043  1.00  0.00     0.034 A 
HETATM    9  C   UNL     1       9.005  21.821  53.780  1.00  0.00     0.002 A 
HETATM   10  C   UNL     1       8.785  21.728  55.146  1.00  0.00     0.002 A 
HETATM   11  C   UNL     1       7.923  22.635  55.762  1.00  0.00     0.034 A 
HETATM   12  C   UNL     1       5.370  26.659  53.101  1.00  0.00     0.104 A 
HETATM   13  C   UNL     1       4.750  27.201  54.221  1.00  0.00     0.123 A 
ENDROOT
BRANCH  12  14
HETATM   14  C   UNL     1       5.278  27.244  51.780  1.00  0.00     0.257 C 
HETATM   15  N   UNL     1       5.542  26.321  50.780  1.00  0.00    -0.356 N 
HETATM   16  H   UNL     1       5.946  25.452  51.106  1.00  0.00     0.162 HD
HETATM   17  O   UNL     1       4.847  28.371  51.579  1.00  0.00    -0.267 OA
BRANCH  15  18
HETATM   18  C   UNL     1       4.574  26.160  49.713  1.00  0.00     0.127 C 
BRANCH  18  19
HETATM   19  C   UNL     1       4.857  26.986  48.458  1.00  0.00     0.053 C 
BRANCH  19  20
HETATM   20  C   UNL     1       3.591  27.554  47.862  1.00  0.00    -0.082 C 
HETATM   21  C   UNL     1       2.401  26.630  47.799  1.00  0.00     0.034 C 
HETATM   22  C   UNL     1       1.297  27.124  46.861  1.00  0.00     0.005 C 
HETATM   23  C   UNL     1       1.046  28.618  47.033  1.00  0.00     0.004 C 
HETATM   24  C   UNL     1       2.317  29.427  46.774  1.00  0.00     0.027 C 
HETATM   25  C   UNL     1       3.540  28.816  47.394  1.00  0.00    -0.024 C 
ENDBRANCH  19  20
ENDBRANCH  18  19
ENDBRANCH  15  18
ENDBRANCH  12  14
BRANCH  13  26
HETATM   26  N   UNL     1       3.979  28.319  54.375  1.00  0.00    -0.286 NA
HETATM   27  H   UNL     1       4.212  28.937  55.154  1.00  0.00     0.125 HD
HETATM   28  H   UNL     1       2.968  28.155  54.356  1.00  0.00     0.125 HD
ENDBRANCH  13  26
BRANCH   1  29
HETATM   29  N   UNL     1       4.671  26.728  56.592  1.00  0.00    -0.176 NA
HETATM   30  C   UNL     1       5.472  27.515  57.245  1.00  0.00     0.153 C 
BRANCH  30  31
HETATM   31  C   UNL     1       6.823  27.957  56.874  1.00  0.00     0.016 A 
HETATM   32  C   UNL     1       6.968  29.168  56.198  1.00  0.00     0.016 A 
HETATM   33  C   UNL     1       8.247  29.669  55.952  1.00  0.00     0.001 A 
HETATM   34  C   UNL     1       9.369  28.979  56.417  1.00  0.00     0.003 A 
HETATM   35  C   UNL     1       9.217  27.772  57.104  1.00  0.00     0.037 A 
HETATM   36  C   UNL     1       7.944  27.251  57.317  1.00  0.00     0.077 A 
BRANCH  36  37
HETATM   37  O   UNL     1       7.866  26.053  57.970  1.00  0.00    -0.360 OA
HETATM   38  H   UNL     1       7.938  26.208  58.931  1.00  0.00     0.217 HD
ENDBRANCH  36  37
ENDBRANCH  30  31
ENDBRANCH   1  29
TORSDOF 8
ENDMDL
MODEL 6
REMARK VINA RESULT:      -9.0      3.953      6.407
REMARK  8 active torsions:
REMARK  status: ('A' for Active; 'I' for Inactive)
REMARK    1  A    between atoms: C_3  and  C_4 
REMARK    2  A    between atoms: N_5  and  N_6 
REMARK    3  A    between atoms: C_17  and  C_18 
REMARK       I    between atoms: C_18  and  N_19 
REMARK    4  A    between atoms: N_19  and  C_20 
REMARK    5  A    between atoms: C_20  and  C_21 
REMARK    6  A    between atoms: C_21  and  C_22 
REMARK    7  A    between atoms: C_29  and  N_30 
REMARK    8  A    between atoms: C_31  and  O_32 
ROOT
HETATM    1  N   UNL     1       3.510  29.998  51.505  1.00  0.00    -0.202 N 
HETATM    2  C   UNL     1       3.441  28.978  50.579  1.00  0.00     0.183 A 
HETATM    3  C   UNL     1       4.389  28.019  50.928  1.00  0.00     0.124 A 
HETATM    4  N   UNL     1       4.552  26.895  50.182  1.00  0.00    -0.242 NA
HETATM    5  C   UNL     1       3.713  26.787  49.134  1.00  0.00     0.086 A 
HETATM    6  C   UNL     1       2.748  27.777  48.811  1.00  0.00     0.088 A 
HETATM    7  N   UNL     1       2.597  28.905  49.524  1.00  0.00    -0.225 NA
HETATM    8  C   UNL     1       3.790  25.656  48.329  1.00  0.00     0.034 A 
HETATM    9  C   UNL     1       2.947  25.477  47.228  1.00  0.00     0.002 A 
HETATM   10  C   UNL     1       2.006  26.449  46.920  1.00  0.00     0.002 A 
HETATM   11  C   UNL     1       1.917  27.590  47.716  1.00  0.00     0.034 A 
HETATM   12  C   UNL     1       5.044  28.462  52.105  1.00  0.00     0.104 A 
HETATM   13  C   UNL     1       4.458  29.671  52.460  1.00  0.00     0.123 A 
ENDROOT
BRANCH  12  14
HETATM   14  C   UNL     1       6.073  27.816  52.890  1.00  0.00     0.257 C 
HETATM   15  N   UNL     1       5.779  26.485  53.146  1.00  0.00    -0.356 N 
HETATM   16  H   UNL     1       4.826  26.217  52.930  1.00  0.00     0.162 HD
HETATM   17  O   UNL     1       7.150  28.342  53.141  1.00  0.00    -0.267 OA
BRANCH  15  18
HETATM   18  C   UNL     1       6.767  25.479  52.810  1.00  0.00     0.127 C 
BRANCH  18  19
HETATM   19  C   UNL     1       7.656  25.039  53.974  1.00  0.00     0.053 C 
BRANCH  19  20
HETATM   20  C   UNL     1       7.783  23.535  54.045  1.00  0.00    -0.082 C 
HETATM   21  C   UNL     1       7.759  22.920  55.422  1.00  0.00     0.034 C 
HETATM   22  C   UNL     1       8.266  21.477  55.452  1.00  0.00     0.005 C 
HETATM   23  C   UNL     1       7.710  20.666  54.285  1.00  0.00     0.004 C 
HETATM   24  C   UNL     1       8.083  21.297  52.945  1.00  0.00     0.027 C 
HETATM   25  C   UNL     1       7.932  22.790  52.933  1.00  0.00    -0.024 C 
ENDBRANCH  19  20
ENDBRANCH  18  19
ENDBRANCH  15  18
ENDBRANCH  12  14
BRANCH  13  26
HETATM   26  N   UNL     1       4.655  30.489  53.538  1.00  0.00    -0.286 NA
HETATM   27  H   UNL     1       5.566  30.944  53.612  1.00  0.00     0.125 HD
HETATM   28  H   UNL     1       4.398  30.083  54.443  1.00  0.00     0.125 HD
ENDBRANCH  13  26
BRANCH   1  29
HETATM   29  N   UNL     1       2.683  31.083  51.618  1.00  0.00    -0.176 NA
HETATM   30  C   UNL     1       2.930  32.077  50.818  1.00  0.00     0.153 C 
BRANCH  30  31
HETATM   31  C   UNL     1       4.090  32.276  49.939  1.00  0.00     0.016 A 
HETATM   32  C   UNL     1       3.924  32.107  48.564  1.00  0.00     0.016 A 
HETATM   33  C   UNL     1       4.976  32.418  47.703  1.00  0.00     0.001 A 
HETATM   34  C   UNL     1       6.169  32.933  48.214  1.00  0.00     0.003 A 
HETATM   35  C   UNL     1       6.325  33.111  49.591  1.00  0.00     0.037 A 
HETATM   36  C   UNL     1       5.292  32.765  50.456  1.00  0.00     0.077 A 
BRANCH  36  37
HETATM   37  O   UNL     1       5.518  32.938  51.793  1.00  0.00    -0.360 OA
HETATM   38  H   UNL     1       6.384  32.548  52.023  1.00  0.00     0.217 HD
ENDBRANCH  36  37
ENDBRANCH  30  31
ENDBRANCH   1  29
TORSDOF 8
ENDMDL
MODEL 7
REMARK VINA RESULT:      -9.0      5.305      7.925
REMARK  8 active torsions:
REMARK  status: ('A' for Active; 'I' for Inactive)
REMARK    1  A    between atoms: C_3  and  C_4 
REMARK    2  A    between atoms: N_5  and  N_6 
REMARK    3  A    between atoms: C_17  and  C_18 
REMARK       I    between atoms: C_18  and  N_19 
REMARK    4  A    between atoms: N_19  and  C_20 
REMARK    5  A    between atoms: C_20  and  C_21 
REMARK    6  A    between atoms: C_21  and  C_22 
REMARK    7  A    between atoms: C_29  and  N_30 
REMARK    8  A    between atoms: C_31  and  O_32 
ROOT
HETATM    1  N   UNL     1       3.653  33.004  61.762  1.00  0.00    -0.202 N 
HETATM    2  C   UNL     1       4.963  32.747  61.412  1.00  0.00     0.183 A 
HETATM    3  C   UNL     1       5.076  32.903  60.033  1.00  0.00     0.124 A 
HETATM    4  N   UNL     1       6.263  32.703  59.404  1.00  0.00    -0.242 NA
HETATM    5  C   UNL     1       7.288  32.388  60.219  1.00  0.00     0.086 A 
HETATM    6  C   UNL     1       7.143  32.249  61.624  1.00  0.00     0.088 A 
HETATM    7  N   UNL     1       5.970  32.415  62.254  1.00  0.00    -0.225 NA
HETATM    8  C   UNL     1       8.548  32.191  59.664  1.00  0.00     0.034 A 
HETATM    9  C   UNL     1       9.656  31.867  60.451  1.00  0.00     0.002 A 
HETATM   10  C   UNL     1       9.506  31.733  61.824  1.00  0.00     0.002 A 
HETATM   11  C   UNL     1       8.249  31.925  62.396  1.00  0.00     0.034 A 
HETATM   12  C   UNL     1       3.803  33.276  59.531  1.00  0.00     0.104 A 
HETATM   13  C   UNL     1       2.950  33.366  60.625  1.00  0.00     0.123 A 
ENDROOT
BRANCH  12  14
HETATM   14  C   UNL     1       3.399  33.596  58.179  1.00  0.00     0.257 C 
HETATM   15  N   UNL     1       4.256  33.054  57.234  1.00  0.00    -0.356 N 
HETATM   16  H   UNL     1       5.125  32.696  57.612  1.00  0.00     0.162 HD
HETATM   17  O   UNL     1       2.331  34.131  57.911  1.00  0.00    -0.267 OA
BRANCH  15  18
HETATM   18  C   UNL     1       3.694  32.242  56.173  1.00  0.00     0.127 C 
BRANCH  18  19
HETATM   19  C   UNL     1       3.180  30.872  56.616  1.00  0.00     0.053 C 
BRANCH  19  20
HETATM   20  C   UNL     1       4.254  29.814  56.527  1.00  0.00    -0.082 C 
HETATM   21  C   UNL     1       4.172  28.866  55.356  1.00  0.00     0.034 C 
HETATM   22  C   UNL     1       5.035  27.614  55.527  1.00  0.00     0.005 C 
HETATM   23  C   UNL     1       6.411  27.957  56.088  1.00  0.00     0.004 C 
HETATM   24  C   UNL     1       6.299  28.671  57.434  1.00  0.00     0.027 C 
HETATM   25  C   UNL     1       5.220  29.713  57.460  1.00  0.00    -0.024 C 
ENDBRANCH  19  20
ENDBRANCH  18  19
ENDBRANCH  15  18
ENDBRANCH  12  14
BRANCH  13  26
HETATM   26  N   UNL     1       1.642  33.753  60.722  1.00  0.00    -0.286 NA
HETATM   27  H   UNL     1       1.324  34.473  60.071  1.00  0.00     0.125 HD
HETATM   28  H   UNL     1       1.327  33.982  61.669  1.00  0.00     0.125 HD
ENDBRANCH  13  26
BRANCH   1  29
HETATM   29  N   UNL     1       3.123  33.085  63.022  1.00  0.00    -0.176 NA
HETATM   30  C   UNL     1       3.170  34.253  63.588  1.00  0.00     0.153 C 
BRANCH  30  31
HETATM   31  C   UNL     1       3.883  35.457  63.142  1.00  0.00     0.016 A 
HETATM   32  C   UNL     1       3.164  36.456  62.485  1.00  0.00     0.016 A 
HETATM   33  C   UNL     1       3.793  37.661  62.170  1.00  0.00     0.001 A 
HETATM   34  C   UNL     1       5.121  37.876  62.547  1.00  0.00     0.003 A 
HETATM   35  C   UNL     1       5.832  36.876  63.214  1.00  0.00     0.037 A 
HETATM   36  C   UNL     1       5.219  35.658  63.495  1.00  0.00     0.077 A 
BRANCH  36  37
HETATM   37  O   UNL     1       5.979  34.713  64.125  1.00  0.00    -0.360 OA
HETATM   38  H   UNL     1       5.427  33.927  64.305  1.00  0.00     0.217 HD
ENDBRANCH  36  37
ENDBRANCH  30  31
ENDBRANCH   1  29
TORSDOF 8
ENDMDL
MODEL 8
REMARK VINA RESULT:      -8.9      4.340      6.787
REMARK  8 active torsions:
REMARK  status: ('A' for Active; 'I' for Inactive)
REMARK    1  A    between atoms: C_3  and  C_4 
REMARK    2  A    between atoms: N_5  and  N_6 
REMARK    3  A    between atoms: C_17  and  C_18 
REMARK       I    between atoms: C_18  and  N_19 
REMARK    4  A    between atoms: N_19  and  C_20 
REMARK    5  A    between atoms: C_20  and  C_21 
REMARK    6  A    between atoms: C_21  and  C_22 
REMARK    7  A    between atoms: C_29  and  N_30 
REMARK    8  A    between atoms: C_31  and  O_32 
ROOT
HETATM    1  N   UNL     1       5.112  28.187  49.640  1.00  0.00    -0.202 N 
HETATM    2  C   UNL     1       5.224  29.542  49.875  1.00  0.00     0.183 A 
HETATM    3  C   UNL     1       4.788  29.789  51.174  1.00  0.00     0.124 A 
HETATM    4  N   UNL     1       4.778  31.050  51.679  1.00  0.00    -0.242 NA
HETATM    5  C   UNL     1       5.252  31.996  50.844  1.00  0.00     0.086 A 
HETATM    6  C   UNL     1       5.703  31.710  49.529  1.00  0.00     0.088 A 
HETATM    7  N   UNL     1       5.689  30.473  49.008  1.00  0.00    -0.225 NA
HETATM    8  C   UNL     1       5.305  33.313  51.287  1.00  0.00     0.034 A 
HETATM    9  C   UNL     1       5.789  34.343  50.475  1.00  0.00     0.002 A 
HETATM   10  C   UNL     1       6.228  34.055  49.191  1.00  0.00     0.002 A 
HETATM   11  C   UNL     1       6.179  32.740  48.731  1.00  0.00     0.034 A 
HETATM   12  C   UNL     1       4.410  28.549  51.749  1.00  0.00     0.104 A 
HETATM   13  C   UNL     1       4.654  27.571  50.793  1.00  0.00     0.123 A 
ENDROOT
BRANCH  12  14
HETATM   14  C   UNL     1       3.930  28.256  53.083  1.00  0.00     0.257 C 
HETATM   15  N   UNL     1       4.500  27.104  53.603  1.00  0.00    -0.356 N 
HETATM   16  H   UNL     1       4.998  26.540  52.926  1.00  0.00     0.162 HD
HETATM   17  O   UNL     1       3.241  29.034  53.729  1.00  0.00    -0.267 OA
BRANCH  15  18
HETATM   18  C   UNL     1       5.141  27.173  54.901  1.00  0.00     0.127 C 
BRANCH  18  19
HETATM   19  C   UNL     1       6.664  27.040  54.873  1.00  0.00     0.053 C 
BRANCH  19  20
HETATM   20  C   UNL     1       7.105  25.783  54.161  1.00  0.00    -0.082 C 
HETATM   21  C   UNL     1       7.033  24.500  54.951  1.00  0.00     0.034 C 
HETATM   22  C   UNL     1       7.832  23.355  54.325  1.00  0.00     0.005 C 
HETATM   23  C   UNL     1       7.625  23.290  52.816  1.00  0.00     0.004 C 
HETATM   24  C   UNL     1       8.026  24.602  52.144  1.00  0.00     0.027 C 
HETATM   25  C   UNL     1       7.557  25.815  52.893  1.00  0.00    -0.024 C 
ENDBRANCH  19  20
ENDBRANCH  18  19
ENDBRANCH  15  18
ENDBRANCH  12  14
BRANCH  13  26
HETATM   26  N   UNL     1       4.538  26.209  50.842  1.00  0.00    -0.286 NA
HETATM   27  H   UNL     1       4.086  25.814  51.669  1.00  0.00     0.125 HD
HETATM   28  H   UNL     1       5.399  25.693  50.640  1.00  0.00     0.125 HD
ENDBRANCH  13  26
BRANCH   1  29
HETATM   29  N   UNL     1       5.540  27.489  48.543  1.00  0.00    -0.176 NA
HETATM   30  C   UNL     1       4.700  27.405  47.555  1.00  0.00     0.153 C 
BRANCH  30  31
HETATM   31  C   UNL     1       3.283  27.793  47.525  1.00  0.00     0.016 A 
HETATM   32  C   UNL     1       2.937  29.017  46.953  1.00  0.00     0.016 A 
HETATM   33  C   UNL     1       1.590  29.346  46.796  1.00  0.00     0.001 A 
HETATM   34  C   UNL     1       0.601  28.435  47.173  1.00  0.00     0.003 A 
HETATM   35  C   UNL     1       0.954  27.205  47.735  1.00  0.00     0.037 A 
HETATM   36  C   UNL     1       2.295  26.891  47.928  1.00  0.00     0.077 A 
BRANCH  36  37
HETATM   37  O   UNL     1       2.572  25.685  48.508  1.00  0.00    -0.360 OA
HETATM   38  H   UNL     1       1.804  25.403  49.041  1.00  0.00     0.217 HD
ENDBRANCH  36  37
ENDBRANCH  30  31
ENDBRANCH   1  29
TORSDOF 8
ENDMDL
MODEL 9
REMARK VINA RESULT:      -8.7      3.749      6.001
REMARK  8 active torsions:
REMARK  status: ('A' for Active; 'I' for Inactive)
REMARK    1  A    between atoms: C_3  and  C_4 
REMARK    2  A    between atoms: N_5  and  N_6 
REMARK    3  A    between atoms: C_17  and  C_18 
REMARK       I    between atoms: C_18  and  N_19 
REMARK    4  A    between atoms: N_19  and  C_20 
REMARK    5  A    between atoms: C_20  and  C_21 
REMARK    6  A    between atoms: C_21  and  C_22 
REMARK    7  A    between atoms: C_29  and  N_30 
REMARK    8  A    between atoms: C_31  and  O_32 
ROOT
HETATM    1  N   UNL     1       5.203  29.051  50.645  1.00  0.00    -0.202 N 
HETATM    2  C   UNL     1       4.592  29.897  51.549  1.00  0.00     0.183 A 
HETATM    3  C   UNL     1       4.313  29.164  52.700  1.00  0.00     0.124 A 
HETATM    4  N   UNL     1       3.700  29.743  53.764  1.00  0.00    -0.242 NA
HETATM    5  C   UNL     1       3.433  31.055  53.617  1.00  0.00     0.086 A 
HETATM    6  C   UNL     1       3.742  31.778  52.434  1.00  0.00     0.088 A 
HETATM    7  N   UNL     1       4.321  31.210  51.365  1.00  0.00    -0.225 NA
HETATM    8  C   UNL     1       2.829  31.737  54.667  1.00  0.00     0.034 A 
HETATM    9  C   UNL     1       2.528  33.100  54.583  1.00  0.00     0.002 A 
HETATM   10  C   UNL     1       2.833  33.799  53.424  1.00  0.00     0.002 A 
HETATM   11  C   UNL     1       3.437  33.129  52.361  1.00  0.00     0.034 A 
HETATM   12  C   UNL     1       4.777  27.839  52.495  1.00  0.00     0.104 A 
HETATM   13  C   UNL     1       5.355  27.805  51.231  1.00  0.00     0.123 A 
ENDROOT
BRANCH  12  14
HETATM   14  C   UNL     1       4.765  26.705  53.395  1.00  0.00     0.257 C 
HETATM   15  N   UNL     1       4.236  25.571  52.800  1.00  0.00    -0.356 N 
HETATM   16  H   UNL     1       3.763  25.739  51.921  1.00  0.00     0.162 HD
HETATM   17  O   UNL     1       5.319  26.714  54.486  1.00  0.00    -0.267 OA
BRANCH  15  18
HETATM   18  C   UNL     1       5.012  24.347  52.828  1.00  0.00     0.127 C 
BRANCH  18  19
HETATM   19  C   UNL     1       6.524  24.548  52.942  1.00  0.00     0.053 C 
BRANCH  19  20
HETATM   20  C   UNL     1       7.194  23.386  53.637  1.00  0.00    -0.082 C 
HETATM   21  C   UNL     1       7.152  23.387  55.145  1.00  0.00     0.034 C 
HETATM   22  C   UNL     1       8.152  22.419  55.780  1.00  0.00     0.005 C 
HETATM   23  C   UNL     1       8.167  21.076  55.056  1.00  0.00     0.004 C 
HETATM   24  C   UNL     1       8.512  21.248  53.578  1.00  0.00     0.027 C 
HETATM   25  C   UNL     1       7.813  22.414  52.941  1.00  0.00    -0.024 C 
ENDBRANCH  19  20
ENDBRANCH  18  19
ENDBRANCH  15  18
ENDBRANCH  12  14
BRANCH  13  26
HETATM   26  N   UNL     1       6.012  26.810  50.564  1.00  0.00    -0.286 NA
HETATM   27  H   UNL     1       5.990  25.879  50.985  1.00  0.00     0.125 HD
HETATM   28  H   UNL     1       6.970  27.037  50.280  1.00  0.00     0.125 HD
ENDBRANCH  13  26
BRANCH   1  29
HETATM   29  N   UNL     1       5.754  29.376  49.435  1.00  0.00    -0.176 NA
HETATM   30  C   UNL     1       5.007  29.168  48.392  1.00  0.00     0.153 C 
BRANCH  30  31
HETATM   31  C   UNL     1       3.725  28.455  48.314  1.00  0.00     0.016 A 
HETATM   32  C   UNL     1       2.551  29.158  48.586  1.00  0.00     0.016 A 
HETATM   33  C   UNL     1       1.317  28.537  48.390  1.00  0.00     0.001 A 
HETATM   34  C   UNL     1       1.263  27.235  47.888  1.00  0.00     0.003 A 
HETATM   35  C   UNL     1       2.441  26.540  47.606  1.00  0.00     0.037 A 
HETATM   36  C   UNL     1       3.674  27.143  47.837  1.00  0.00     0.077 A 
BRANCH  36  37
HETATM   37  O   UNL     1       4.788  26.400  47.568  1.00  0.00    -0.360 OA
HETATM   38  H   UNL     1       4.515  25.529  47.220  1.00  0.00     0.217 HD
ENDBRANCH  36  37
ENDBRANCH  30  31
ENDBRANCH   1  29
TORSDOF 8
ENDMDL
MODEL 10
REMARK VINA RESULT:      -8.7      5.743      7.868
REMARK  8 active torsions:
REMARK  status: ('A' for Active; 'I' for Inactive)
REMARK    1  A    between atoms: C_3  and  C_4 
REMARK    2  A    between atoms: N_5  and  N_6 
REMARK    3  A    between atoms: C_17  and  C_18 
REMARK       I    between atoms: C_18  and  N_19 
REMARK    4  A    between atoms: N_19  and  C_20 
REMARK    5  A    between atoms: C_20  and  C_21 
REMARK    6  A    between atoms: C_21  and  C_22 
REMARK    7  A    between atoms: C_29  and  N_30 
REMARK    8  A    between atoms: C_31  and  O_32 
ROOT
HETATM    1  N   UNL     1       4.151  32.486  61.018  1.00  0.00    -0.202 N 
HETATM    2  C   UNL     1       4.757  32.791  62.220  1.00  0.00     0.183 A 
HETATM    3  C   UNL     1       6.129  32.607  62.066  1.00  0.00     0.124 A 
HETATM    4  N   UNL     1       6.983  32.827  63.099  1.00  0.00    -0.242 NA
HETATM    5  C   UNL     1       6.398  33.261  64.232  1.00  0.00     0.086 A 
HETATM    6  C   UNL     1       4.996  33.451  64.354  1.00  0.00     0.088 A 
HETATM    7  N   UNL     1       4.140  33.209  63.349  1.00  0.00    -0.225 NA
HETATM    8  C   UNL     1       7.199  33.538  65.334  1.00  0.00     0.034 A 
HETATM    9  C   UNL     1       6.658  33.995  66.540  1.00  0.00     0.002 A 
HETATM   10  C   UNL     1       5.288  34.179  66.651  1.00  0.00     0.002 A 
HETATM   11  C   UNL     1       4.471  33.904  65.555  1.00  0.00     0.034 A 
HETATM   12  C   UNL     1       6.365  32.191  60.731  1.00  0.00     0.104 A 
HETATM   13  C   UNL     1       5.129  32.158  60.095  1.00  0.00     0.123 A 
ENDROOT
BRANCH  12  14
HETATM   14  C   UNL     1       7.614  31.909  60.056  1.00  0.00     0.257 C 
HETATM   15  N   UNL     1       7.910  30.555  60.045  1.00  0.00    -0.356 N 
HETATM   16  H   UNL     1       7.335  29.995  60.663  1.00  0.00     0.162 HD
HETATM   17  O   UNL     1       8.236  32.753  59.424  1.00  0.00    -0.267 OA
BRANCH  15  18
HETATM   18  C   UNL     1       8.205  29.920  58.775  1.00  0.00     0.127 C 
BRANCH  18  19
HETATM   19  C   UNL     1       7.009  29.785  57.832  1.00  0.00     0.053 C 
BRANCH  19  20
HETATM   20  C   UNL     1       6.729  28.342  57.484  1.00  0.00    -0.082 C 
HETATM   21  C   UNL     1       7.900  27.394  57.545  1.00  0.00     0.034 C 
HETATM   22  C   UNL     1       7.644  26.066  56.828  1.00  0.00     0.005 C 
HETATM   23  C   UNL     1       6.254  25.522  57.141  1.00  0.00     0.004 C 
HETATM   24  C   UNL     1       5.167  26.519  56.743  1.00  0.00     0.027 C 
HETATM   25  C   UNL     1       5.499  27.934  57.119  1.00  0.00    -0.024 C 
ENDBRANCH  19  20
ENDBRANCH  18  19
ENDBRANCH  15  18
ENDBRANCH  12  14
BRANCH  13  26
HETATM   26  N   UNL     1       4.787  31.897  58.797  1.00  0.00    -0.286 NA
HETATM   27  H   UNL     1       4.328  32.649  58.280  1.00  0.00     0.125 HD
HETATM   28  H   UNL     1       4.281  31.018  58.651  1.00  0.00     0.125 HD
ENDBRANCH  13  26
BRANCH   1  29
HETATM   29  N   UNL     1       2.833  32.642  60.682  1.00  0.00    -0.176 NA
HETATM   30  C   UNL     1       2.449  33.856  60.423  1.00  0.00     0.153 C 
BRANCH  30  31
HETATM   31  C   UNL     1       3.185  35.111  60.625  1.00  0.00     0.016 A 
HETATM   32  C   UNL     1       3.951  35.614  59.573  1.00  0.00     0.016 A 
HETATM   33  C   UNL     1       4.551  36.867  59.699  1.00  0.00     0.001 A 
HETATM   34  C   UNL     1       4.351  37.625  60.855  1.00  0.00     0.003 A 
HETATM   35  C   UNL     1       3.573  37.121  61.900  1.00  0.00     0.037 A 
HETATM   36  C   UNL     1       3.005  35.855  61.794  1.00  0.00     0.077 A 
BRANCH  36  37
HETATM   37  O   UNL     1       2.280  35.409  62.863  1.00  0.00    -0.360 OA
HETATM   38  H   UNL     1       1.891  34.540  62.645  1.00  0.00     0.217 HD
ENDBRANCH  36  37
ENDBRANCH  30  31
ENDBRANCH   1  29
TORSDOF 8
ENDMDL
