MODEL 1
REMARK VINA RESULT:     -10.4      0.000      0.000
REMARK  3 active torsions:
REMARK  status: ('A' for Active; 'I' for Inactive)
REMARK    1  A    between atoms: C_7  and  C_8 
REMARK       I    between atoms: C_8  and  N_9 
REMARK    2  A    between atoms: N_9  and  C_10 
REMARK    3  A    between atoms: C_17  and  C_18 
REMARK       I    between atoms: C_18  and  N_19 
ROOT
HETATM    1  C   UNL     1       7.997  26.617  56.928  1.00  0.00     0.258 C 
HETATM    2  N   UNL     1       8.400  27.827  56.384  1.00  0.00    -0.323 N 
HETATM    3  O   UNL     1       7.764  26.411  58.112  1.00  0.00    -0.267 OA
HETATM    4  H   UNL     1       8.439  27.910  55.379  1.00  0.00     0.169 HD
ENDROOT
BRANCH   2   5
HETATM    5  C   UNL     1       8.798  28.984  57.091  1.00  0.00     0.036 A 
HETATM    6  C   UNL     1       7.911  29.782  57.826  1.00  0.00     0.046 A 
HETATM    7  C   UNL     1       8.414  30.868  58.575  1.00  0.00     0.030 A 
HETATM    8  C   UNL     1       9.774  31.147  58.522  1.00  0.00     0.063 A 
HETATM    9  C   UNL     1       7.874  31.834  59.480  1.00  0.00     0.156 A 
HETATM   10  N   UNL     1       9.950  32.245  59.317  1.00  0.00    -0.277 N 
HETATM   11  C   UNL     1      10.681  30.387  57.784  1.00  0.00     0.034 A 
HETATM   12  H   UNL     1      10.817  32.735  59.503  1.00  0.00     0.189 HD
HETATM   13  N   UNL     1       8.833  32.678  59.923  1.00  0.00    -0.168 NA
HETATM   14  C   UNL     1      10.166  29.286  57.088  1.00  0.00     0.032 A 
BRANCH   9  15
HETATM   15  C   UNL     1       6.486  31.945  59.949  1.00  0.00     0.270 C 
HETATM   16  N   UNL     1       6.324  31.657  61.278  1.00  0.00    -0.365 N 
HETATM   17  H   UNL     1       7.134  31.370  61.813  1.00  0.00     0.159 HD
HETATM   18  H   UNL     1       5.398  31.655  61.677  1.00  0.00     0.159 HD
HETATM   19  O   UNL     1       5.530  32.241  59.242  1.00  0.00    -0.266 OA
ENDBRANCH   9  15
ENDBRANCH   2   5
BRANCH   1  20
HETATM   20  C   UNL     1       7.839  25.499  55.949  1.00  0.00     0.057 A 
HETATM   21  C   UNL     1       6.829  25.513  54.985  1.00  0.00     0.047 A 
HETATM   22  C   UNL     1       5.879  26.665  54.812  1.00  0.00     0.071 C 
HETATM   23  N   UNL     1       6.625  24.472  54.127  1.00  0.00    -0.252 NA
HETATM   24  C   UNL     1       7.417  23.392  54.198  1.00  0.00     0.070 A 
HETATM   25  C   UNL     1       8.480  23.304  55.119  1.00  0.00    -0.006 A 
HETATM   26  C   UNL     1       7.187  22.324  53.346  1.00  0.00     0.074 A 
HETATM   27  C   UNL     1       8.690  24.385  55.986  1.00  0.00     0.033 A 
HETATM   28  C   UNL     1       9.288  22.152  55.163  1.00  0.00     0.017 A 
HETATM   29  C   UNL     1       9.032  21.089  54.301  1.00  0.00     0.043 A 
HETATM   30  C   UNL     1       7.982  21.186  53.400  1.00  0.00     0.118 A 
HETATM   31  F   UNL     1       7.731  20.164  52.572  1.00  0.00    -0.206 F 
ENDBRANCH   1  20
TORSDOF 3
ENDMDL
MODEL 2
REMARK VINA RESULT:     -10.3      1.988      2.715
REMARK  3 active torsions:
REMARK  status: ('A' for Active; 'I' for Inactive)
REMARK    1  A    between atoms: C_7  and  C_8 
REMARK       I    between atoms: C_8  and  N_9 
REMARK    2  A    between atoms: N_9  and  C_10 
REMARK    3  A    between atoms: C_17  and  C_18 
REMARK       I    between atoms: C_18  and  N_19 
ROOT
HETATM    1  C   UNL     1       5.746  26.268  56.208  1.00  0.00     0.258 C 
HETATM    2  N   UNL     1       6.255  27.532  55.951  1.00  0.00    -0.323 N 
HETATM    3  O   UNL     1       4.866  26.007  57.018  1.00  0.00    -0.267 OA
HETATM    4  H   UNL     1       6.888  27.643  55.172  1.00  0.00     0.169 HD
ENDROOT
BRANCH   2   5
HETATM    5  C   UNL     1       6.005  28.713  56.685  1.00  0.00     0.036 A 
HETATM    6  C   UNL     1       6.972  29.345  57.480  1.00  0.00     0.046 A 
HETATM    7  C   UNL     1       6.660  30.571  58.106  1.00  0.00     0.030 A 
HETATM    8  C   UNL     1       5.382  31.096  57.956  1.00  0.00     0.063 A 
HETATM    9  C   UNL     1       7.361  31.531  58.900  1.00  0.00     0.156 A 
HETATM   10  N   UNL     1       5.377  32.255  58.679  1.00  0.00    -0.277 N 
HETATM   11  C   UNL     1       4.390  30.482  57.189  1.00  0.00     0.034 A 
HETATM   12  H   UNL     1       4.603  32.896  58.807  1.00  0.00     0.189 HD
HETATM   13  N   UNL     1       6.554  32.559  59.250  1.00  0.00    -0.168 NA
HETATM   14  C   UNL     1       4.737  29.292  56.539  1.00  0.00     0.032 A 
BRANCH   9  15
HETATM   15  C   UNL     1       8.774  31.503  59.298  1.00  0.00     0.270 C 
HETATM   16  N   UNL     1       9.070  30.546  60.233  1.00  0.00    -0.365 N 
HETATM   17  H   UNL     1       8.317  29.972  60.591  1.00  0.00     0.159 HD
HETATM   18  H   UNL     1      10.004  30.487  60.606  1.00  0.00     0.159 HD
HETATM   19  O   UNL     1       9.636  32.264  58.875  1.00  0.00    -0.266 OA
ENDBRANCH   9  15
ENDBRANCH   2   5
BRANCH   1  20
HETATM   20  C   UNL     1       6.347  25.163  55.402  1.00  0.00     0.057 A 
HETATM   21  C   UNL     1       5.958  24.932  54.080  1.00  0.00     0.047 A 
HETATM   22  C   UNL     1       4.973  25.803  53.353  1.00  0.00     0.071 C 
HETATM   23  N   UNL     1       6.442  23.887  53.350  1.00  0.00    -0.252 NA
HETATM   24  C   UNL     1       7.327  23.046  53.905  1.00  0.00     0.070 A 
HETATM   25  C   UNL     1       7.798  23.219  55.222  1.00  0.00    -0.006 A 
HETATM   26  C   UNL     1       7.793  21.968  53.170  1.00  0.00     0.074 A 
HETATM   27  C   UNL     1       7.305  24.305  55.959  1.00  0.00     0.033 A 
HETATM   28  C   UNL     1       8.726  22.313  55.769  1.00  0.00     0.017 A 
HETATM   29  C   UNL     1       9.174  21.233  55.013  1.00  0.00     0.043 A 
HETATM   30  C   UNL     1       8.703  21.071  53.718  1.00  0.00     0.118 A 
HETATM   31  F   UNL     1       9.128  20.032  52.989  1.00  0.00    -0.206 F 
ENDBRANCH   1  20
TORSDOF 3
ENDMDL
MODEL 3
REMARK VINA RESULT:     -10.0      3.361      4.154
REMARK  3 active torsions:
REMARK  status: ('A' for Active; 'I' for Inactive)
REMARK    1  A    between atoms: C_7  and  C_8 
REMARK       I    between atoms: C_8  and  N_9 
REMARK    2  A    between atoms: N_9  and  C_10 
REMARK    3  A    between atoms: C_17  and  C_18 
REMARK       I    between atoms: C_18  and  N_19 
ROOT
HETATM    1  C   UNL     1       6.894  26.707  55.302  1.00  0.00     0.258 C 
HETATM    2  N   UNL     1       5.564  26.898  55.644  1.00  0.00    -0.323 N 
HETATM    3  O   UNL     1       7.689  27.593  55.017  1.00  0.00    -0.267 OA
HETATM    4  H   UNL     1       5.039  26.104  55.983  1.00  0.00     0.169 HD
ENDROOT
BRANCH   2   5
HETATM    5  C   UNL     1       4.827  28.099  55.549  1.00  0.00     0.036 A 
HETATM    6  C   UNL     1       4.547  28.921  56.650  1.00  0.00     0.046 A 
HETATM    7  C   UNL     1       3.882  30.149  56.446  1.00  0.00     0.030 A 
HETATM    8  C   UNL     1       3.476  30.488  55.161  1.00  0.00     0.063 A 
HETATM    9  C   UNL     1       3.496  31.260  57.259  1.00  0.00     0.156 A 
HETATM   10  N   UNL     1       2.854  31.698  55.283  1.00  0.00    -0.277 N 
HETATM   11  C   UNL     1       3.719  29.683  54.047  1.00  0.00     0.034 A 
HETATM   12  H   UNL     1       2.420  32.243  54.547  1.00  0.00     0.189 HD
HETATM   13  N   UNL     1       2.859  32.203  56.528  1.00  0.00    -0.168 NA
HETATM   14  C   UNL     1       4.423  28.493  54.267  1.00  0.00     0.032 A 
BRANCH   9  15
HETATM   15  C   UNL     1       3.750  31.452  58.692  1.00  0.00     0.270 C 
HETATM   16  N   UNL     1       3.140  30.525  59.494  1.00  0.00    -0.365 N 
HETATM   17  H   UNL     1       2.555  29.821  59.061  1.00  0.00     0.159 HD
HETATM   18  H   UNL     1       3.214  30.607  60.496  1.00  0.00     0.159 HD
HETATM   19  O   UNL     1       4.421  32.359  59.170  1.00  0.00    -0.266 OA
ENDBRANCH   9  15
ENDBRANCH   2   5
BRANCH   1  20
HETATM   20  C   UNL     1       7.356  25.286  55.301  1.00  0.00     0.057 A 
HETATM   21  C   UNL     1       7.974  24.721  56.419  1.00  0.00     0.047 A 
HETATM   22  C   UNL     1       8.160  25.462  57.713  1.00  0.00     0.071 C 
HETATM   23  N   UNL     1       8.464  23.449  56.416  1.00  0.00    -0.252 NA
HETATM   24  C   UNL     1       8.351  22.699  55.309  1.00  0.00     0.070 A 
HETATM   25  C   UNL     1       7.715  23.177  54.145  1.00  0.00    -0.006 A 
HETATM   26  C   UNL     1       8.878  21.418  55.299  1.00  0.00     0.074 A 
HETATM   27  C   UNL     1       7.202  24.481  54.164  1.00  0.00     0.033 A 
HETATM   28  C   UNL     1       7.619  22.359  53.003  1.00  0.00     0.017 A 
HETATM   29  C   UNL     1       8.163  21.078  53.015  1.00  0.00     0.043 A 
HETATM   30  C   UNL     1       8.788  20.619  54.165  1.00  0.00     0.118 A 
HETATM   31  F   UNL     1       9.315  19.389  54.181  1.00  0.00    -0.206 F 
ENDBRANCH   1  20
TORSDOF 3
ENDMDL
MODEL 4
REMARK VINA RESULT:      -9.9      4.943      7.785
REMARK  3 active torsions:
REMARK  status: ('A' for Active; 'I' for Inactive)
REMARK    1  A    between atoms: C_7  and  C_8 
REMARK       I    between atoms: C_8  and  N_9 
REMARK    2  A    between atoms: N_9  and  C_10 
REMARK    3  A    between atoms: C_17  and  C_18 
REMARK       I    between atoms: C_18  and  N_19 
ROOT
HETATM    1  C   UNL     1       6.672  26.147  53.494  1.00  0.00     0.258 C 
HETATM    2  N   UNL     1       5.362  26.215  53.045  1.00  0.00    -0.323 N 
HETATM    3  O   UNL     1       7.524  27.011  53.335  1.00  0.00    -0.267 OA
HETATM    4  H   UNL     1       4.716  25.498  53.345  1.00  0.00     0.169 HD
ENDROOT
BRANCH   2   5
HETATM    5  C   UNL     1       4.813  27.180  52.172  1.00  0.00     0.036 A 
HETATM    6  C   UNL     1       4.929  27.112  50.777  1.00  0.00     0.046 A 
HETATM    7  C   UNL     1       4.270  28.073  49.979  1.00  0.00     0.030 A 
HETATM    8  C   UNL     1       3.562  29.093  50.604  1.00  0.00     0.063 A 
HETATM    9  C   UNL     1       4.083  28.299  48.580  1.00  0.00     0.156 A 
HETATM   10  N   UNL     1       3.063  29.862  49.591  1.00  0.00    -0.277 N 
HETATM   11  C   UNL     1       3.444  29.201  51.990  1.00  0.00     0.034 A 
HETATM   12  H   UNL     1       2.505  30.703  49.677  1.00  0.00     0.189 HD
HETATM   13  N   UNL     1       3.342  29.408  48.358  1.00  0.00    -0.168 NA
HETATM   14  C   UNL     1       4.066  28.210  52.759  1.00  0.00     0.032 A 
BRANCH   9  15
HETATM   15  C   UNL     1       4.563  27.469  47.467  1.00  0.00     0.270 C 
HETATM   16  N   UNL     1       5.867  27.703  47.121  1.00  0.00    -0.365 N 
HETATM   17  H   UNL     1       6.377  28.424  47.617  1.00  0.00     0.159 HD
HETATM   18  H   UNL     1       6.268  27.218  46.334  1.00  0.00     0.159 HD
HETATM   19  O   UNL     1       3.884  26.648  46.862  1.00  0.00    -0.266 OA
ENDBRANCH   9  15
ENDBRANCH   2   5
BRANCH   1  20
HETATM   20  C   UNL     1       7.029  24.900  54.235  1.00  0.00     0.057 A 
HETATM   21  C   UNL     1       7.118  24.882  55.629  1.00  0.00     0.047 A 
HETATM   22  C   UNL     1       6.801  26.076  56.484  1.00  0.00     0.071 C 
HETATM   23  N   UNL     1       7.509  23.773  56.320  1.00  0.00    -0.252 NA
HETATM   24  C   UNL     1       7.818  22.652  55.653  1.00  0.00     0.070 A 
HETATM   25  C   UNL     1       7.728  22.570  54.248  1.00  0.00    -0.006 A 
HETATM   26  C   UNL     1       8.244  21.538  56.356  1.00  0.00     0.074 A 
HETATM   27  C   UNL     1       7.311  23.710  53.548  1.00  0.00     0.033 A 
HETATM   28  C   UNL     1       8.063  21.374  53.584  1.00  0.00     0.017 A 
HETATM   29  C   UNL     1       8.496  20.270  54.313  1.00  0.00     0.043 A 
HETATM   30  C   UNL     1       8.582  20.363  55.694  1.00  0.00     0.118 A 
HETATM   31  F   UNL     1       9.001  19.305  56.399  1.00  0.00    -0.206 F 
ENDBRANCH   1  20
TORSDOF 3
ENDMDL
MODEL 5
REMARK VINA RESULT:      -9.8      5.491     10.209
REMARK  3 active torsions:
REMARK  status: ('A' for Active; 'I' for Inactive)
REMARK    1  A    between atoms: C_7  and  C_8 
REMARK       I    between atoms: C_8  and  N_9 
REMARK    2  A    between atoms: N_9  and  C_10 
REMARK    3  A    between atoms: C_17  and  C_18 
REMARK       I    between atoms: C_18  and  N_19 
ROOT
HETATM    1  C   UNL     1       6.995  31.934  59.831  1.00  0.00     0.258 C 
HETATM    2  N   UNL     1       7.420  30.635  59.601  1.00  0.00    -0.323 N 
HETATM    3  O   UNL     1       6.581  32.709  58.977  1.00  0.00    -0.267 OA
HETATM    4  H   UNL     1       7.620  30.049  60.399  1.00  0.00     0.169 HD
ENDROOT
BRANCH   2   5
HETATM    5  C   UNL     1       7.639  30.023  58.347  1.00  0.00     0.036 A 
HETATM    6  C   UNL     1       6.615  29.448  57.580  1.00  0.00     0.046 A 
HETATM    7  C   UNL     1       6.913  28.940  56.298  1.00  0.00     0.030 A 
HETATM    8  C   UNL     1       8.227  28.978  55.848  1.00  0.00     0.063 A 
HETATM    9  C   UNL     1       6.170  28.369  55.217  1.00  0.00     0.156 A 
HETATM   10  N   UNL     1       8.204  28.406  54.607  1.00  0.00    -0.277 N 
HETATM   11  C   UNL     1       9.273  29.523  56.593  1.00  0.00     0.034 A 
HETATM   12  H   UNL     1       8.990  28.254  53.986  1.00  0.00     0.189 HD
HETATM   13  N   UNL     1       6.982  28.041  54.186  1.00  0.00    -0.168 NA
HETATM   14  C   UNL     1       8.946  30.065  57.842  1.00  0.00     0.032 A 
BRANCH   9  15
HETATM   15  C   UNL     1       4.718  28.166  55.138  1.00  0.00     0.270 C 
HETATM   16  N   UNL     1       4.181  27.557  56.240  1.00  0.00    -0.365 N 
HETATM   17  H   UNL     1       4.803  27.273  56.987  1.00  0.00     0.159 HD
HETATM   18  H   UNL     1       3.200  27.327  56.254  1.00  0.00     0.159 HD
HETATM   19  O   UNL     1       4.018  28.476  54.181  1.00  0.00    -0.266 OA
ENDBRANCH   9  15
ENDBRANCH   2   5
BRANCH   1  20
HETATM   20  C   UNL     1       7.056  32.384  61.254  1.00  0.00     0.057 A 
HETATM   21  C   UNL     1       8.244  32.324  61.986  1.00  0.00     0.047 A 
HETATM   22  C   UNL     1       9.549  31.876  61.391  1.00  0.00     0.071 C 
HETATM   23  N   UNL     1       8.307  32.665  63.304  1.00  0.00    -0.252 NA
HETATM   24  C   UNL     1       7.197  33.079  63.934  1.00  0.00     0.070 A 
HETATM   25  C   UNL     1       5.960  33.199  63.267  1.00  0.00    -0.006 A 
HETATM   26  C   UNL     1       7.257  33.394  65.281  1.00  0.00     0.074 A 
HETATM   27  C   UNL     1       5.911  32.860  61.908  1.00  0.00     0.033 A 
HETATM   28  C   UNL     1       4.817  33.635  63.964  1.00  0.00     0.017 A 
HETATM   29  C   UNL     1       4.902  33.939  65.320  1.00  0.00     0.043 A 
HETATM   30  C   UNL     1       6.123  33.816  65.966  1.00  0.00     0.118 A 
HETATM   31  F   UNL     1       6.209  34.104  67.271  1.00  0.00    -0.206 F 
ENDBRANCH   1  20
TORSDOF 3
ENDMDL
MODEL 6
REMARK VINA RESULT:      -9.8      3.500      6.044
REMARK  3 active torsions:
REMARK  status: ('A' for Active; 'I' for Inactive)
REMARK    1  A    between atoms: C_7  and  C_8 
REMARK       I    between atoms: C_8  and  N_9 
REMARK    2  A    between atoms: N_9  and  C_10 
REMARK    3  A    between atoms: C_17  and  C_18 
REMARK       I    between atoms: C_18  and  N_19 
ROOT
HETATM    1  C   UNL     1       7.500  31.481  59.556  1.00  0.00     0.258 C 
HETATM    2  N   UNL     1       6.872  31.222  60.764  1.00  0.00    -0.323 N 
HETATM    3  O   UNL     1       8.257  32.417  59.333  1.00  0.00    -0.267 OA
HETATM    4  H   UNL     1       6.371  30.351  60.867  1.00  0.00     0.169 HD
ENDROOT
BRANCH   2   5
HETATM    5  C   UNL     1       6.827  32.068  61.895  1.00  0.00     0.036 A 
HETATM    6  C   UNL     1       5.696  32.815  62.254  1.00  0.00     0.046 A 
HETATM    7  C   UNL     1       5.711  33.562  63.452  1.00  0.00     0.030 A 
HETATM    8  C   UNL     1       6.869  33.577  64.219  1.00  0.00     0.063 A 
HETATM    9  C   UNL     1       4.775  34.360  64.181  1.00  0.00     0.156 A 
HETATM   10  N   UNL     1       6.589  34.388  65.284  1.00  0.00    -0.277 N 
HETATM   11  C   UNL     1       8.018  32.863  63.880  1.00  0.00     0.034 A 
HETATM   12  H   UNL     1       7.210  34.639  66.044  1.00  0.00     0.189 HD
HETATM   13  N   UNL     1       5.334  34.865  65.304  1.00  0.00    -0.168 NA
HETATM   14  C   UNL     1       7.964  32.091  62.714  1.00  0.00     0.032 A 
BRANCH   9  15
HETATM   15  C   UNL     1       3.368  34.617  63.849  1.00  0.00     0.270 C 
HETATM   16  N   UNL     1       3.109  35.913  63.491  1.00  0.00    -0.365 N 
HETATM   17  H   UNL     1       3.869  36.581  63.511  1.00  0.00     0.159 HD
HETATM   18  H   UNL     1       2.161  36.196  63.298  1.00  0.00     0.159 HD
HETATM   19  O   UNL     1       2.472  33.782  63.898  1.00  0.00    -0.266 OA
ENDBRANCH   9  15
ENDBRANCH   2   5
BRANCH   1  20
HETATM   20  C   UNL     1       7.205  30.506  58.462  1.00  0.00     0.057 A 
HETATM   21  C   UNL     1       6.219  30.762  57.506  1.00  0.00     0.047 A 
HETATM   22  C   UNL     1       5.438  32.045  57.460  1.00  0.00     0.071 C 
HETATM   23  N   UNL     1       5.888  29.858  56.541  1.00  0.00    -0.252 NA
HETATM   24  C   UNL     1       6.525  28.678  56.493  1.00  0.00     0.070 A 
HETATM   25  C   UNL     1       7.553  28.347  57.399  1.00  0.00    -0.006 A 
HETATM   26  C   UNL     1       6.163  27.750  55.531  1.00  0.00     0.074 A 
HETATM   27  C   UNL     1       7.896  29.290  58.377  1.00  0.00     0.033 A 
HETATM   28  C   UNL     1       8.196  27.097  57.316  1.00  0.00     0.017 A 
HETATM   29  C   UNL     1       7.810  26.178  56.345  1.00  0.00     0.043 A 
HETATM   30  C   UNL     1       6.796  26.514  55.460  1.00  0.00     0.118 A 
HETATM   31  F   UNL     1       6.419  25.631  54.526  1.00  0.00    -0.206 F 
ENDBRANCH   1  20
TORSDOF 3
ENDMDL
MODEL 7
REMARK VINA RESULT:      -9.8      3.863      9.150
REMARK  3 active torsions:
REMARK  status: ('A' for Active; 'I' for Inactive)
REMARK    1  A    between atoms: C_7  and  C_8 
REMARK       I    between atoms: C_8  and  N_9 
REMARK    2  A    between atoms: N_9  and  C_10 
REMARK    3  A    between atoms: C_17  and  C_18 
REMARK       I    between atoms: C_18  and  N_19 
ROOT
HETATM    1  C   UNL     1       7.709  28.035  55.506  1.00  0.00     0.258 C 
HETATM    2  N   UNL     1       7.157  26.786  55.748  1.00  0.00    -0.323 N 
HETATM    3  O   UNL     1       8.334  28.354  54.503  1.00  0.00    -0.267 OA
HETATM    4  H   UNL     1       6.556  26.676  56.551  1.00  0.00     0.169 HD
ENDROOT
BRANCH   2   5
HETATM    5  C   UNL     1       7.363  25.608  54.997  1.00  0.00     0.036 A 
HETATM    6  C   UNL     1       7.860  24.418  55.549  1.00  0.00     0.046 A 
HETATM    7  C   UNL     1       7.947  23.263  54.742  1.00  0.00     0.030 A 
HETATM    8  C   UNL     1       7.584  23.350  53.404  1.00  0.00     0.063 A 
HETATM    9  C   UNL     1       8.310  21.894  54.938  1.00  0.00     0.156 A 
HETATM   10  N   UNL     1       7.793  22.102  52.889  1.00  0.00    -0.277 N 
HETATM   11  C   UNL     1       7.107  24.523  52.817  1.00  0.00     0.034 A 
HETATM   12  H   UNL     1       7.646  21.799  51.933  1.00  0.00     0.189 HD
HETATM   13  N   UNL     1       8.215  21.194  53.784  1.00  0.00    -0.168 NA
HETATM   14  C   UNL     1       6.983  25.642  53.648  1.00  0.00     0.032 A 
BRANCH   9  15
HETATM   15  C   UNL     1       8.707  21.243  56.193  1.00  0.00     0.270 C 
HETATM   16  N   UNL     1       9.542  20.171  56.023  1.00  0.00    -0.365 N 
HETATM   17  H   UNL     1       9.790  19.896  55.081  1.00  0.00     0.159 HD
HETATM   18  H   UNL     1       9.825  19.629  56.824  1.00  0.00     0.159 HD
HETATM   19  O   UNL     1       8.330  21.583  57.308  1.00  0.00    -0.266 OA
ENDBRANCH   9  15
ENDBRANCH   2   5
BRANCH   1  20
HETATM   20  C   UNL     1       7.492  29.048  56.583  1.00  0.00     0.057 A 
HETATM   21  C   UNL     1       6.368  29.878  56.585  1.00  0.00     0.047 A 
HETATM   22  C   UNL     1       5.273  29.775  55.562  1.00  0.00     0.071 C 
HETATM   23  N   UNL     1       6.185  30.855  57.519  1.00  0.00    -0.252 NA
HETATM   24  C   UNL     1       7.106  31.033  58.479  1.00  0.00     0.070 A 
HETATM   25  C   UNL     1       8.255  30.222  58.572  1.00  0.00    -0.006 A 
HETATM   26  C   UNL     1       6.932  32.046  59.407  1.00  0.00     0.074 A 
HETATM   27  C   UNL     1       8.426  29.212  57.615  1.00  0.00     0.033 A 
HETATM   28  C   UNL     1       9.199  30.442  59.593  1.00  0.00     0.017 A 
HETATM   29  C   UNL     1       9.005  31.472  60.510  1.00  0.00     0.043 A 
HETATM   30  C   UNL     1       7.871  32.264  60.408  1.00  0.00     0.118 A 
HETATM   31  F   UNL     1       7.683  33.258  61.286  1.00  0.00    -0.206 F 
ENDBRANCH   1  20
TORSDOF 3
ENDMDL
MODEL 8
REMARK VINA RESULT:      -9.8      2.114      2.388
REMARK  3 active torsions:
REMARK  status: ('A' for Active; 'I' for Inactive)
REMARK    1  A    between atoms: C_7  and  C_8 
REMARK       I    between atoms: C_8  and  N_9 
REMARK    2  A    between atoms: N_9  and  C_10 
REMARK    3  A    between atoms: C_17  and  C_18 
REMARK       I    between atoms: C_18  and  N_19 
ROOT
HETATM    1  C   UNL     1       6.449  26.636  55.827  1.00  0.00     0.258 C 
HETATM    2  N   UNL     1       7.415  27.614  56.000  1.00  0.00    -0.323 N 
HETATM    3  O   UNL     1       5.295  26.696  56.230  1.00  0.00    -0.267 OA
HETATM    4  H   UNL     1       8.295  27.510  55.515  1.00  0.00     0.169 HD
ENDROOT
BRANCH   2   5
HETATM    5  C   UNL     1       7.324  28.761  56.820  1.00  0.00     0.036 A 
HETATM    6  C   UNL     1       6.414  29.803  56.590  1.00  0.00     0.046 A 
HETATM    7  C   UNL     1       6.331  30.867  57.513  1.00  0.00     0.030 A 
HETATM    8  C   UNL     1       7.192  30.879  58.604  1.00  0.00     0.063 A 
HETATM    9  C   UNL     1       5.516  32.031  57.675  1.00  0.00     0.156 A 
HETATM   10  N   UNL     1       6.893  32.021  59.291  1.00  0.00    -0.277 N 
HETATM   11  C   UNL     1       8.123  29.870  58.851  1.00  0.00     0.034 A 
HETATM   12  H   UNL     1       7.334  32.362  60.137  1.00  0.00     0.189 HD
HETATM   13  N   UNL     1       5.879  32.734  58.772  1.00  0.00    -0.168 NA
HETATM   14  C   UNL     1       8.154  28.800  57.948  1.00  0.00     0.032 A 
BRANCH   9  15
HETATM   15  C   UNL     1       4.391  32.460  56.834  1.00  0.00     0.270 C 
HETATM   16  N   UNL     1       4.769  32.986  55.627  1.00  0.00    -0.365 N 
HETATM   17  H   UNL     1       5.757  33.066  55.423  1.00  0.00     0.159 HD
HETATM   18  H   UNL     1       4.068  33.357  55.005  1.00  0.00     0.159 HD
HETATM   19  O   UNL     1       3.211  32.394  57.155  1.00  0.00    -0.266 OA
ENDBRANCH   9  15
ENDBRANCH   2   5
BRANCH   1  20
HETATM   20  C   UNL     1       6.894  25.426  55.072  1.00  0.00     0.057 A 
HETATM   21  C   UNL     1       7.031  25.444  53.682  1.00  0.00     0.047 A 
HETATM   22  C   UNL     1       6.811  26.680  52.855  1.00  0.00     0.071 C 
HETATM   23  N   UNL     1       7.369  24.333  52.967  1.00  0.00    -0.252 NA
HETATM   24  C   UNL     1       7.587  23.175  53.609  1.00  0.00     0.070 A 
HETATM   25  C   UNL     1       7.502  23.071  55.012  1.00  0.00    -0.006 A 
HETATM   26  C   UNL     1       7.901  22.042  52.877  1.00  0.00     0.074 A 
HETATM   27  C   UNL     1       7.167  24.222  55.738  1.00  0.00     0.033 A 
HETATM   28  C   UNL     1       7.735  21.836  55.648  1.00  0.00     0.017 A 
HETATM   29  C   UNL     1       8.042  20.710  54.890  1.00  0.00     0.043 A 
HETATM   30  C   UNL     1       8.122  20.824  53.509  1.00  0.00     0.118 A 
HETATM   31  F   UNL     1       8.412  19.742  52.776  1.00  0.00    -0.206 F 
ENDBRANCH   1  20
TORSDOF 3
ENDMDL
MODEL 9
REMARK VINA RESULT:      -9.6      5.843      8.825
REMARK  3 active torsions:
REMARK  status: ('A' for Active; 'I' for Inactive)
REMARK    1  A    between atoms: C_7  and  C_8 
REMARK       I    between atoms: C_8  and  N_9 
REMARK    2  A    between atoms: N_9  and  C_10 
REMARK    3  A    between atoms: C_17  and  C_18 
REMARK       I    between atoms: C_18  and  N_19 
ROOT
HETATM    1  C   UNL     1       6.144  25.703  51.788  1.00  0.00     0.258 C 
HETATM    2  N   UNL     1       5.544  25.419  53.005  1.00  0.00    -0.323 N 
HETATM    3  O   UNL     1       7.276  25.372  51.458  1.00  0.00    -0.267 OA
HETATM    4  H   UNL     1       4.564  25.633  53.116  1.00  0.00     0.169 HD
ENDROOT
BRANCH   2   5
HETATM    5  C   UNL     1       6.165  24.873  54.150  1.00  0.00     0.036 A 
HETATM    6  C   UNL     1       6.648  23.558  54.213  1.00  0.00     0.046 A 
HETATM    7  C   UNL     1       7.335  23.127  55.368  1.00  0.00     0.030 A 
HETATM    8  C   UNL     1       7.472  24.005  56.435  1.00  0.00     0.063 A 
HETATM    9  C   UNL     1       8.020  21.940  55.777  1.00  0.00     0.156 A 
HETATM   10  N   UNL     1       8.151  23.308  57.395  1.00  0.00    -0.277 N 
HETATM   11  C   UNL     1       6.986  25.313  56.414  1.00  0.00     0.034 A 
HETATM   12  H   UNL     1       8.416  23.633  58.318  1.00  0.00     0.189 HD
HETATM   13  N   UNL     1       8.512  22.067  57.031  1.00  0.00    -0.168 NA
HETATM   14  C   UNL     1       6.349  25.734  55.240  1.00  0.00     0.032 A 
BRANCH   9  15
HETATM   15  C   UNL     1       8.241  20.718  54.993  1.00  0.00     0.270 C 
HETATM   16  N   UNL     1       9.010  19.781  55.629  1.00  0.00    -0.365 N 
HETATM   17  H   UNL     1       9.383  20.001  56.545  1.00  0.00     0.159 HD
HETATM   18  H   UNL     1       9.259  18.931  55.148  1.00  0.00     0.159 HD
HETATM   19  O   UNL     1       7.814  20.525  53.861  1.00  0.00    -0.266 OA
ENDBRANCH   9  15
ENDBRANCH   2   5
BRANCH   1  20
HETATM   20  C   UNL     1       5.302  26.475  50.825  1.00  0.00     0.057 A 
HETATM   21  C   UNL     1       5.081  27.845  50.987  1.00  0.00     0.047 A 
HETATM   22  C   UNL     1       5.718  28.652  52.083  1.00  0.00     0.071 C 
HETATM   23  N   UNL     1       4.261  28.554  50.160  1.00  0.00    -0.252 NA
HETATM   24  C   UNL     1       3.641  27.928  49.148  1.00  0.00     0.070 A 
HETATM   25  C   UNL     1       3.828  26.554  48.891  1.00  0.00    -0.006 A 
HETATM   26  C   UNL     1       2.785  28.645  48.329  1.00  0.00     0.074 A 
HETATM   27  C   UNL     1       4.685  25.839  49.739  1.00  0.00     0.033 A 
HETATM   28  C   UNL     1       3.157  25.935  47.820  1.00  0.00     0.017 A 
HETATM   29  C   UNL     1       2.296  26.675  47.016  1.00  0.00     0.043 A 
HETATM   30  C   UNL     1       2.118  28.026  47.278  1.00  0.00     0.118 A 
HETATM   31  F   UNL     1       1.288  28.741  46.509  1.00  0.00    -0.206 F 
ENDBRANCH   1  20
TORSDOF 3
ENDMDL
MODEL 10
REMARK VINA RESULT:      -9.3      4.073      9.240
REMARK  3 active torsions:
REMARK  status: ('A' for Active; 'I' for Inactive)
REMARK    1  A    between atoms: C_7  and  C_8 
REMARK       I    between atoms: C_8  and  N_9 
REMARK    2  A    between atoms: N_9  and  C_10 
REMARK    3  A    between atoms: C_17  and  C_18 
REMARK       I    between atoms: C_18  and  N_19 
ROOT
HETATM    1  C   UNL     1       7.599  29.061  57.113  1.00  0.00     0.258 C 
HETATM    2  N   UNL     1       6.969  27.833  57.248  1.00  0.00    -0.323 N 
HETATM    3  O   UNL     1       8.342  29.381  56.195  1.00  0.00    -0.267 OA
HETATM    4  H   UNL     1       6.279  27.727  57.979  1.00  0.00     0.169 HD
ENDROOT
BRANCH   2   5
HETATM    5  C   UNL     1       7.201  26.671  56.480  1.00  0.00     0.036 A 
HETATM    6  C   UNL     1       6.601  26.438  55.234  1.00  0.00     0.046 A 
HETATM    7  C   UNL     1       6.962  25.291  54.495  1.00  0.00     0.030 A 
HETATM    8  C   UNL     1       7.869  24.394  55.047  1.00  0.00     0.063 A 
HETATM    9  C   UNL     1       6.652  24.755  53.206  1.00  0.00     0.156 A 
HETATM   10  N   UNL     1       8.000  23.395  54.124  1.00  0.00    -0.277 N 
HETATM   11  C   UNL     1       8.467  24.584  56.293  1.00  0.00     0.034 A 
HETATM   12  H   UNL     1       8.573  22.562  54.198  1.00  0.00     0.189 HD
HETATM   13  N   UNL     1       7.296  23.583  52.996  1.00  0.00    -0.168 NA
HETATM   14  C   UNL     1       8.131  25.753  56.986  1.00  0.00     0.032 A 
BRANCH   9  15
HETATM   15  C   UNL     1       5.793  25.347  52.173  1.00  0.00     0.270 C 
HETATM   16  N   UNL     1       4.543  24.793  52.105  1.00  0.00    -0.365 N 
HETATM   17  H   UNL     1       4.320  24.025  52.726  1.00  0.00     0.159 HD
HETATM   18  H   UNL     1       3.901  25.099  51.391  1.00  0.00     0.159 HD
HETATM   19  O   UNL     1       6.134  26.239  51.406  1.00  0.00    -0.266 OA
ENDBRANCH   9  15
ENDBRANCH   2   5
BRANCH   1  20
HETATM   20  C   UNL     1       7.313  30.048  58.198  1.00  0.00     0.057 A 
HETATM   21  C   UNL     1       6.277  30.977  58.081  1.00  0.00     0.047 A 
HETATM   22  C   UNL     1       5.340  31.014  56.908  1.00  0.00     0.071 C 
HETATM   23  N   UNL     1       6.042  31.930  59.028  1.00  0.00    -0.252 NA
HETATM   24  C   UNL     1       6.823  31.987  60.117  1.00  0.00     0.070 A 
HETATM   25  C   UNL     1       7.873  31.070  60.333  1.00  0.00    -0.006 A 
HETATM   26  C   UNL     1       6.601  32.975  61.062  1.00  0.00     0.074 A 
HETATM   27  C   UNL     1       8.095  30.086  59.361  1.00  0.00     0.033 A 
HETATM   28  C   UNL     1       8.671  31.164  61.489  1.00  0.00     0.017 A 
HETATM   29  C   UNL     1       8.433  32.172  62.420  1.00  0.00     0.043 A 
HETATM   30  C   UNL     1       7.399  33.069  62.197  1.00  0.00     0.118 A 
HETATM   31  F   UNL     1       7.169  34.041  63.088  1.00  0.00    -0.206 F 
ENDBRANCH   1  20
TORSDOF 3
ENDMDL
