MODEL 1
REMARK VINA RESULT:      -9.5      0.000      0.000
REMARK  4 active torsions:
REMARK  status: ('A' for Active; 'I' for Inactive)
REMARK    1  A    between atoms: C_3  and  N_4 
REMARK    2  A    between atoms: N_4  and  C_5 
REMARK    3  A    between atoms: C_5  and  C_6 
REMARK    4  A    between atoms: C_8  and  C_9 
REMARK       I    between atoms: C_9  and  N_10 
ROOT
HETATM    1  N   UNL     1       7.319  25.949  55.624  1.00  0.00    -0.372 N 
HETATM    2  H   UNL     1       6.464  26.440  55.365  1.00  0.00     0.161 HD
ENDROOT
BRANCH   1   3
HETATM    3  C   UNL     1       7.529  24.778  54.929  1.00  0.00     0.107 A 
HETATM    4  C   UNL     1       7.545  24.753  53.521  1.00  0.00    -0.017 A 
HETATM    5  C   UNL     1       7.307  25.976  52.674  1.00  0.00     0.052 C 
HETATM    6  C   UNL     1       7.806  23.544  52.860  1.00  0.00     0.024 A 
HETATM    7  C   UNL     1       8.058  22.380  53.587  1.00  0.00    -0.009 A 
HETATM    8  C   UNL     1       8.030  22.451  54.992  1.00  0.00     0.043 A 
HETATM    9  C   UNL     1       8.336  21.151  52.968  1.00  0.00     0.014 A 
HETATM   10  N   UNL     1       7.777  23.631  55.581  1.00  0.00    -0.342 N 
HETATM   11  C   UNL     1       8.265  21.304  55.760  1.00  0.00     0.030 A 
HETATM   12  H   UNL     1       7.730  23.651  56.591  1.00  0.00     0.167 HD
HETATM   13  C   UNL     1       8.540  20.089  55.132  1.00  0.00     0.002 A 
HETATM   14  C   UNL     1       8.578  20.014  53.741  1.00  0.00     0.001 A 
ENDBRANCH   1   3
BRANCH   1  15
HETATM   15  C   UNL     1       7.785  26.250  56.969  1.00  0.00     0.160 C 
BRANCH  15  16
HETATM   16  C   UNL     1       7.883  27.730  57.247  1.00  0.00    -0.040 A 
HETATM   17  C   UNL     1       9.117  28.399  57.246  1.00  0.00     0.026 A 
HETATM   18  C   UNL     1       9.194  29.770  57.536  1.00  0.00     0.032 A 
HETATM   19  C   UNL     1       8.031  30.485  57.828  1.00  0.00     0.017 A 
HETATM   20  C   UNL     1       6.801  29.827  57.850  1.00  0.00     0.002 A 
HETATM   21  C   UNL     1       6.727  28.460  57.570  1.00  0.00     0.009 A 
BRANCH  18  22
HETATM   22  C   UNL     1      10.529  30.415  57.479  1.00  0.00     0.249 C 
HETATM   23  N   UNL     1      11.578  29.664  57.037  1.00  0.00    -0.366 N 
HETATM   24  H   UNL     1      11.467  28.779  56.561  1.00  0.00     0.159 HD
HETATM   25  H   UNL     1      12.461  30.146  56.908  1.00  0.00     0.159 HD
HETATM   26  O   UNL     1      10.661  31.589  57.800  1.00  0.00    -0.268 OA
ENDBRANCH  18  22
ENDBRANCH  15  16
ENDBRANCH   1  15
TORSDOF 4
ENDMDL
MODEL 2
REMARK VINA RESULT:      -9.4      1.055      1.990
REMARK  4 active torsions:
REMARK  status: ('A' for Active; 'I' for Inactive)
REMARK    1  A    between atoms: C_3  and  N_4 
REMARK    2  A    between atoms: N_4  and  C_5 
REMARK    3  A    between atoms: C_5  and  C_6 
REMARK    4  A    between atoms: C_8  and  C_9 
REMARK       I    between atoms: C_9  and  N_10 
ROOT
HETATM    1  N   UNL     1       6.845  26.368  55.037  1.00  0.00    -0.372 N 
HETATM    2  H   UNL     1       6.033  26.534  55.631  1.00  0.00     0.161 HD
ENDROOT
BRANCH   1   3
HETATM    3  C   UNL     1       7.376  25.101  55.150  1.00  0.00     0.107 A 
HETATM    4  C   UNL     1       7.915  24.637  56.366  1.00  0.00    -0.017 A 
HETATM    5  C   UNL     1       7.983  25.482  57.611  1.00  0.00     0.052 C 
HETATM    6  C   UNL     1       8.403  23.325  56.442  1.00  0.00     0.024 A 
HETATM    7  C   UNL     1       8.347  22.483  55.331  1.00  0.00    -0.009 A 
HETATM    8  C   UNL     1       7.802  22.990  54.136  1.00  0.00     0.043 A 
HETATM    9  C   UNL     1       8.812  21.159  55.364  1.00  0.00     0.014 A 
HETATM   10  N   UNL     1       7.346  24.253  54.111  1.00  0.00    -0.342 N 
HETATM   11  C   UNL     1       7.738  22.183  52.993  1.00  0.00     0.030 A 
HETATM   12  H   UNL     1       6.988  24.605  53.233  1.00  0.00     0.167 HD
HETATM   13  C   UNL     1       8.205  20.869  53.040  1.00  0.00     0.002 A 
HETATM   14  C   UNL     1       8.737  20.359  54.223  1.00  0.00     0.001 A 
ENDBRANCH   1   3
BRANCH   1  15
HETATM   15  C   UNL     1       7.568  27.578  54.677  1.00  0.00     0.160 C 
BRANCH  15  16
HETATM   16  C   UNL     1       7.785  28.510  55.843  1.00  0.00    -0.040 A 
HETATM   17  C   UNL     1       9.048  29.053  56.125  1.00  0.00     0.026 A 
HETATM   18  C   UNL     1       9.241  29.895  57.231  1.00  0.00     0.032 A 
HETATM   19  C   UNL     1       8.165  30.202  58.067  1.00  0.00     0.017 A 
HETATM   20  C   UNL     1       6.909  29.653  57.807  1.00  0.00     0.002 A 
HETATM   21  C   UNL     1       6.721  28.808  56.710  1.00  0.00     0.009 A 
BRANCH  18  22
HETATM   22  C   UNL     1      10.596  30.460  57.443  1.00  0.00     0.249 C 
HETATM   23  N   UNL     1      11.667  29.680  57.118  1.00  0.00    -0.366 N 
HETATM   24  H   UNL     1      11.594  28.840  56.561  1.00  0.00     0.159 HD
HETATM   25  H   UNL     1      12.581  30.116  57.172  1.00  0.00     0.159 HD
HETATM   26  O   UNL     1      10.730  31.599  57.873  1.00  0.00    -0.268 OA
ENDBRANCH  18  22
ENDBRANCH  15  16
ENDBRANCH   1  15
TORSDOF 4
ENDMDL
MODEL 3
REMARK VINA RESULT:      -9.4      1.562      2.009
REMARK  4 active torsions:
REMARK  status: ('A' for Active; 'I' for Inactive)
REMARK    1  A    between atoms: C_3  and  N_4 
REMARK    2  A    between atoms: N_4  and  C_5 
REMARK    3  A    between atoms: C_5  and  C_6 
REMARK    4  A    between atoms: C_8  and  C_9 
REMARK       I    between atoms: C_9  and  N_10 
ROOT
HETATM    1  N   UNL     1       7.493  26.581  55.764  1.00  0.00    -0.372 N 
HETATM    2  H   UNL     1       6.967  27.201  55.148  1.00  0.00     0.161 HD
ENDROOT
BRANCH   1   3
HETATM    3  C   UNL     1       7.590  25.284  55.308  1.00  0.00     0.107 A 
HETATM    4  C   UNL     1       7.467  24.976  53.940  1.00  0.00    -0.017 A 
HETATM    5  C   UNL     1       7.194  26.014  52.884  1.00  0.00     0.052 C 
HETATM    6  C   UNL     1       7.618  23.646  53.521  1.00  0.00     0.024 A 
HETATM    7  C   UNL     1       7.896  22.639  54.447  1.00  0.00    -0.009 A 
HETATM    8  C   UNL     1       8.008  22.994  55.805  1.00  0.00     0.043 A 
HETATM    9  C   UNL     1       8.068  21.298  54.073  1.00  0.00     0.014 A 
HETATM   10  N   UNL     1       7.858  24.281  56.158  1.00  0.00    -0.342 N 
HETATM   11  C   UNL     1       8.275  22.013  56.769  1.00  0.00     0.030 A 
HETATM   12  H   UNL     1       7.911  24.505  57.143  1.00  0.00     0.167 HD
HETATM   13  C   UNL     1       8.442  20.683  56.382  1.00  0.00     0.002 A 
HETATM   14  C   UNL     1       8.341  20.328  55.038  1.00  0.00     0.001 A 
ENDBRANCH   1   3
BRANCH   1  15
HETATM   15  C   UNL     1       7.514  27.013  57.153  1.00  0.00     0.160 C 
BRANCH  15  16
HETATM   16  C   UNL     1       8.395  28.215  57.389  1.00  0.00    -0.040 A 
HETATM   17  C   UNL     1       8.044  29.215  58.308  1.00  0.00     0.026 A 
HETATM   18  C   UNL     1       8.859  30.342  58.494  1.00  0.00     0.032 A 
HETATM   19  C   UNL     1      10.039  30.476  57.759  1.00  0.00     0.017 A 
HETATM   20  C   UNL     1      10.389  29.497  56.829  1.00  0.00     0.002 A 
HETATM   21  C   UNL     1       9.571  28.380  56.638  1.00  0.00     0.009 A 
BRANCH  18  22
HETATM   22  C   UNL     1       8.441  31.338  59.511  1.00  0.00     0.249 C 
HETATM   23  N   UNL     1       7.621  30.914  60.515  1.00  0.00    -0.366 N 
HETATM   24  H   UNL     1       7.452  29.939  60.721  1.00  0.00     0.159 HD
HETATM   25  H   UNL     1       7.426  31.579  61.256  1.00  0.00     0.159 HD
HETATM   26  O   UNL     1       8.847  32.492  59.448  1.00  0.00    -0.268 OA
ENDBRANCH  18  22
ENDBRANCH  15  16
ENDBRANCH   1  15
TORSDOF 4
ENDMDL
MODEL 4
REMARK VINA RESULT:      -9.3      1.863      2.968
REMARK  4 active torsions:
REMARK  status: ('A' for Active; 'I' for Inactive)
REMARK    1  A    between atoms: C_3  and  N_4 
REMARK    2  A    between atoms: N_4  and  C_5 
REMARK    3  A    between atoms: C_5  and  C_6 
REMARK    4  A    between atoms: C_8  and  C_9 
REMARK       I    between atoms: C_9  and  N_10 
ROOT
HETATM    1  N   UNL     1       7.063  27.255  55.131  1.00  0.00    -0.372 N 
HETATM    2  H   UNL     1       6.343  27.571  55.780  1.00  0.00     0.161 HD
ENDROOT
BRANCH   1   3
HETATM    3  C   UNL     1       7.366  25.915  55.236  1.00  0.00     0.107 A 
HETATM    4  C   UNL     1       7.594  25.309  56.487  1.00  0.00    -0.017 A 
HETATM    5  C   UNL     1       7.556  26.068  57.787  1.00  0.00     0.052 C 
HETATM    6  C   UNL     1       7.855  23.933  56.544  1.00  0.00     0.024 A 
HETATM    7  C   UNL     1       7.881  23.168  55.377  1.00  0.00    -0.009 A 
HETATM    8  C   UNL     1       7.650  23.816  54.149  1.00  0.00     0.043 A 
HETATM    9  C   UNL     1       8.126  21.786  55.387  1.00  0.00     0.014 A 
HETATM   10  N   UNL     1       7.402  25.136  54.143  1.00  0.00    -0.342 N 
HETATM   11  C   UNL     1       7.678  23.088  52.952  1.00  0.00     0.030 A 
HETATM   12  H   UNL     1       7.271  25.584  53.247  1.00  0.00     0.167 HD
HETATM   13  C   UNL     1       7.924  21.715  52.977  1.00  0.00     0.002 A 
HETATM   14  C   UNL     1       8.144  21.066  54.191  1.00  0.00     0.001 A 
ENDBRANCH   1   3
BRANCH   1  15
HETATM   15  C   UNL     1       7.959  28.312  54.687  1.00  0.00     0.160 C 
BRANCH  15  16
HETATM   16  C   UNL     1       8.621  29.048  55.827  1.00  0.00    -0.040 A 
HETATM   17  C   UNL     1       7.885  29.512  56.927  1.00  0.00     0.026 A 
HETATM   18  C   UNL     1       8.510  30.221  57.965  1.00  0.00     0.032 A 
HETATM   19  C   UNL     1       9.883  30.471  57.908  1.00  0.00     0.017 A 
HETATM   20  C   UNL     1      10.621  30.030  56.809  1.00  0.00     0.002 A 
HETATM   21  C   UNL     1       9.995  29.332  55.773  1.00  0.00     0.009 A 
BRANCH  18  22
HETATM   22  C   UNL     1       7.673  30.647  59.114  1.00  0.00     0.249 C 
HETATM   23  N   UNL     1       8.139  30.385  60.369  1.00  0.00    -0.366 N 
HETATM   24  H   UNL     1       9.092  30.110  60.562  1.00  0.00     0.159 HD
HETATM   25  H   UNL     1       7.607  30.769  61.142  1.00  0.00     0.159 HD
HETATM   26  O   UNL     1       6.616  31.234  58.923  1.00  0.00    -0.268 OA
ENDBRANCH  18  22
ENDBRANCH  15  16
ENDBRANCH   1  15
TORSDOF 4
ENDMDL
MODEL 5
REMARK VINA RESULT:      -9.0      4.575      7.058
REMARK  4 active torsions:
REMARK  status: ('A' for Active; 'I' for Inactive)
REMARK    1  A    between atoms: C_3  and  N_4 
REMARK    2  A    between atoms: N_4  and  C_5 
REMARK    3  A    between atoms: C_5  and  C_6 
REMARK    4  A    between atoms: C_8  and  C_9 
REMARK       I    between atoms: C_9  and  N_10 
ROOT
HETATM    1  N   UNL     1       5.861  25.478  53.032  1.00  0.00    -0.372 N 
HETATM    2  H   UNL     1       5.196  26.032  53.571  1.00  0.00     0.161 HD
ENDROOT
BRANCH   1   3
HETATM    3  C   UNL     1       6.489  24.488  53.756  1.00  0.00     0.107 A 
HETATM    4  C   UNL     1       6.593  24.559  55.159  1.00  0.00    -0.017 A 
HETATM    5  C   UNL     1       6.065  25.716  55.966  1.00  0.00     0.052 C 
HETATM    6  C   UNL     1       7.202  23.505  55.855  1.00  0.00     0.024 A 
HETATM    7  C   UNL     1       7.691  22.393  55.168  1.00  0.00    -0.009 A 
HETATM    8  C   UNL     1       7.567  22.366  53.766  1.00  0.00     0.043 A 
HETATM    9  C   UNL     1       8.296  21.309  55.823  1.00  0.00     0.014 A 
HETATM   10  N   UNL     1       6.975  23.398  53.143  1.00  0.00    -0.342 N 
HETATM   11  C   UNL     1       8.054  21.274  53.037  1.00  0.00     0.030 A 
HETATM   12  H   UNL     1       6.926  23.370  52.134  1.00  0.00     0.167 HD
HETATM   13  C   UNL     1       8.655  20.204  53.701  1.00  0.00     0.002 A 
HETATM   14  C   UNL     1       8.772  20.221  55.090  1.00  0.00     0.001 A 
ENDBRANCH   1   3
BRANCH   1  15
HETATM   15  C   UNL     1       6.398  26.172  51.871  1.00  0.00     0.160 C 
BRANCH  15  16
HETATM   16  C   UNL     1       5.329  26.733  50.966  1.00  0.00    -0.040 A 
HETATM   17  C   UNL     1       4.842  26.009  49.867  1.00  0.00     0.026 A 
HETATM   18  C   UNL     1       3.869  26.556  49.017  1.00  0.00     0.032 A 
HETATM   19  C   UNL     1       3.373  27.838  49.263  1.00  0.00     0.017 A 
HETATM   20  C   UNL     1       3.864  28.575  50.341  1.00  0.00     0.002 A 
HETATM   21  C   UNL     1       4.839  28.031  51.181  1.00  0.00     0.009 A 
BRANCH  18  22
HETATM   22  C   UNL     1       3.376  25.716  47.898  1.00  0.00     0.249 C 
HETATM   23  N   UNL     1       2.825  24.507  48.208  1.00  0.00    -0.366 N 
HETATM   24  H   UNL     1       2.551  24.244  49.145  1.00  0.00     0.159 HD
HETATM   25  H   UNL     1       2.402  23.990  47.445  1.00  0.00     0.159 HD
HETATM   26  O   UNL     1       3.447  26.120  46.744  1.00  0.00    -0.268 OA
ENDBRANCH  18  22
ENDBRANCH  15  16
ENDBRANCH   1  15
TORSDOF 4
ENDMDL
MODEL 6
REMARK VINA RESULT:      -9.0      2.261      2.971
REMARK  4 active torsions:
REMARK  status: ('A' for Active; 'I' for Inactive)
REMARK    1  A    between atoms: C_3  and  N_4 
REMARK    2  A    between atoms: N_4  and  C_5 
REMARK    3  A    between atoms: C_5  and  C_6 
REMARK    4  A    between atoms: C_8  and  C_9 
REMARK       I    between atoms: C_9  and  N_10 
ROOT
HETATM    1  N   UNL     1       6.914  25.949  56.412  1.00  0.00    -0.372 N 
HETATM    2  H   UNL     1       6.009  25.871  56.875  1.00  0.00     0.161 HD
ENDROOT
BRANCH   1   3
HETATM    3  C   UNL     1       7.178  24.936  55.515  1.00  0.00     0.107 A 
HETATM    4  C   UNL     1       7.356  25.200  54.143  1.00  0.00    -0.017 A 
HETATM    5  C   UNL     1       7.243  26.579  53.549  1.00  0.00     0.052 C 
HETATM    6  C   UNL     1       7.666  24.141  53.277  1.00  0.00     0.024 A 
HETATM    7  C   UNL     1       7.808  22.843  53.769  1.00  0.00    -0.009 A 
HETATM    8  C   UNL     1       7.619  22.626  55.147  1.00  0.00     0.043 A 
HETATM    9  C   UNL     1       8.130  21.755  52.943  1.00  0.00     0.014 A 
HETATM   10  N   UNL     1       7.325  23.671  55.938  1.00  0.00    -0.342 N 
HETATM   11  C   UNL     1       7.741  21.337  55.681  1.00  0.00     0.030 A 
HETATM   12  H   UNL     1       7.163  23.486  56.919  1.00  0.00     0.167 HD
HETATM   13  C   UNL     1       8.060  20.265  54.847  1.00  0.00     0.002 A 
HETATM   14  C   UNL     1       8.257  20.474  53.483  1.00  0.00     0.001 A 
ENDBRANCH   1   3
BRANCH   1  15
HETATM   15  C   UNL     1       7.896  26.710  57.169  1.00  0.00     0.160 C 
BRANCH  15  16
HETATM   16  C   UNL     1       7.436  28.108  57.503  1.00  0.00    -0.040 A 
HETATM   17  C   UNL     1       6.097  28.497  57.350  1.00  0.00     0.026 A 
HETATM   18  C   UNL     1       5.689  29.809  57.636  1.00  0.00     0.032 A 
HETATM   19  C   UNL     1       6.625  30.746  58.081  1.00  0.00     0.017 A 
HETATM   20  C   UNL     1       7.963  30.375  58.219  1.00  0.00     0.002 A 
HETATM   21  C   UNL     1       8.368  29.071  57.925  1.00  0.00     0.009 A 
BRANCH  18  22
HETATM   22  C   UNL     1       4.250  30.135  57.487  1.00  0.00     0.249 C 
HETATM   23  N   UNL     1       3.542  30.412  58.619  1.00  0.00    -0.366 N 
HETATM   24  H   UNL     1       3.973  30.607  59.512  1.00  0.00     0.159 HD
HETATM   25  H   UNL     1       2.587  30.731  58.493  1.00  0.00     0.159 HD
HETATM   26  O   UNL     1       3.738  30.173  56.375  1.00  0.00    -0.268 OA
ENDBRANCH  18  22
ENDBRANCH  15  16
ENDBRANCH   1  15
TORSDOF 4
ENDMDL
MODEL 7
REMARK VINA RESULT:      -8.9      1.843      2.239
REMARK  4 active torsions:
REMARK  status: ('A' for Active; 'I' for Inactive)
REMARK    1  A    between atoms: C_3  and  N_4 
REMARK    2  A    between atoms: N_4  and  C_5 
REMARK    3  A    between atoms: C_5  and  C_6 
REMARK    4  A    between atoms: C_8  and  C_9 
REMARK       I    between atoms: C_9  and  N_10 
ROOT
HETATM    1  N   UNL     1       6.859  25.984  54.894  1.00  0.00    -0.372 N 
HETATM    2  H   UNL     1       7.555  26.704  54.701  1.00  0.00     0.161 HD
ENDROOT
BRANCH   1   3
HETATM    3  C   UNL     1       7.239  24.716  54.511  1.00  0.00     0.107 A 
HETATM    4  C   UNL     1       7.515  24.409  53.164  1.00  0.00    -0.017 A 
HETATM    5  C   UNL     1       7.389  25.412  52.048  1.00  0.00     0.052 C 
HETATM    6  C   UNL     1       7.940  23.115  52.831  1.00  0.00     0.024 A 
HETATM    7  C   UNL     1       8.100  22.145  53.821  1.00  0.00    -0.009 A 
HETATM    8  C   UNL     1       7.811  22.497  55.153  1.00  0.00     0.043 A 
HETATM    9  C   UNL     1       8.535  20.842  53.536  1.00  0.00     0.014 A 
HETATM   10  N   UNL     1       7.408  23.749  55.425  1.00  0.00    -0.342 N 
HETATM   11  C   UNL     1       7.946  21.551  56.177  1.00  0.00     0.030 A 
HETATM   12  H   UNL     1       7.176  23.968  56.384  1.00  0.00     0.167 HD
HETATM   13  C   UNL     1       8.379  20.258  55.878  1.00  0.00     0.002 A 
HETATM   14  C   UNL     1       8.675  19.906  54.563  1.00  0.00     0.001 A 
ENDBRANCH   1   3
BRANCH   1  15
HETATM   15  C   UNL     1       5.498  26.491  54.977  1.00  0.00     0.160 C 
BRANCH  15  16
HETATM   16  C   UNL     1       5.378  27.743  55.809  1.00  0.00    -0.040 A 
HETATM   17  C   UNL     1       6.430  28.186  56.626  1.00  0.00     0.026 A 
HETATM   18  C   UNL     1       6.293  29.337  57.418  1.00  0.00     0.032 A 
HETATM   19  C   UNL     1       5.096  30.057  57.396  1.00  0.00     0.017 A 
HETATM   20  C   UNL     1       4.038  29.615  56.603  1.00  0.00     0.002 A 
HETATM   21  C   UNL     1       4.173  28.464  55.822  1.00  0.00     0.009 A 
BRANCH  18  22
HETATM   22  C   UNL     1       7.461  29.764  58.226  1.00  0.00     0.249 C 
HETATM   23  N   UNL     1       7.595  31.095  58.494  1.00  0.00    -0.366 N 
HETATM   24  H   UNL     1       6.853  31.767  58.355  1.00  0.00     0.159 HD
HETATM   25  H   UNL     1       8.339  31.359  59.129  1.00  0.00     0.159 HD
HETATM   26  O   UNL     1       8.256  28.934  58.649  1.00  0.00    -0.268 OA
ENDBRANCH  18  22
ENDBRANCH  15  16
ENDBRANCH   1  15
TORSDOF 4
ENDMDL
MODEL 8
REMARK VINA RESULT:      -8.6      2.631      3.559
REMARK  4 active torsions:
REMARK  status: ('A' for Active; 'I' for Inactive)
REMARK    1  A    between atoms: C_3  and  N_4 
REMARK    2  A    between atoms: N_4  and  C_5 
REMARK    3  A    between atoms: C_5  and  C_6 
REMARK    4  A    between atoms: C_8  and  C_9 
REMARK       I    between atoms: C_9  and  N_10 
ROOT
HETATM    1  N   UNL     1       5.727  25.669  53.917  1.00  0.00    -0.372 N 
HETATM    2  H   UNL     1       4.804  25.776  54.336  1.00  0.00     0.161 HD
ENDROOT
BRANCH   1   3
HETATM    3  C   UNL     1       6.424  24.566  54.361  1.00  0.00     0.107 A 
HETATM    4  C   UNL     1       6.650  24.345  55.733  1.00  0.00    -0.017 A 
HETATM    5  C   UNL     1       6.184  25.292  56.807  1.00  0.00     0.052 C 
HETATM    6  C   UNL     1       7.326  23.184  56.137  1.00  0.00     0.024 A 
HETATM    7  C   UNL     1       7.763  22.254  55.193  1.00  0.00    -0.009 A 
HETATM    8  C   UNL     1       7.517  22.519  53.832  1.00  0.00     0.043 A 
HETATM    9  C   UNL     1       8.432  21.074  55.552  1.00  0.00     0.014 A 
HETATM   10  N   UNL     1       6.864  23.642  53.493  1.00  0.00    -0.342 N 
HETATM   11  C   UNL     1       7.948  21.617  52.851  1.00  0.00     0.030 A 
HETATM   12  H   UNL     1       6.727  23.825  52.508  1.00  0.00     0.167 HD
HETATM   13  C   UNL     1       8.613  20.448  53.222  1.00  0.00     0.002 A 
HETATM   14  C   UNL     1       8.852  20.177  54.568  1.00  0.00     0.001 A 
ENDBRANCH   1   3
BRANCH   1  15
HETATM   15  C   UNL     1       6.300  26.916  53.432  1.00  0.00     0.160 C 
BRANCH  15  16
HETATM   16  C   UNL     1       6.581  27.908  54.534  1.00  0.00    -0.040 A 
HETATM   17  C   UNL     1       5.545  28.590  55.190  1.00  0.00     0.026 A 
HETATM   18  C   UNL     1       5.824  29.533  56.192  1.00  0.00     0.032 A 
HETATM   19  C   UNL     1       7.149  29.799  56.546  1.00  0.00     0.017 A 
HETATM   20  C   UNL     1       8.187  29.141  55.887  1.00  0.00     0.002 A 
HETATM   21  C   UNL     1       7.908  28.210  54.884  1.00  0.00     0.009 A 
BRANCH  18  22
HETATM   22  C   UNL     1       4.676  30.185  56.868  1.00  0.00     0.249 C 
HETATM   23  N   UNL     1       4.349  29.755  58.120  1.00  0.00    -0.366 N 
HETATM   24  H   UNL     1       4.954  29.176  58.685  1.00  0.00     0.159 HD
HETATM   25  H   UNL     1       3.628  30.277  58.607  1.00  0.00     0.159 HD
HETATM   26  O   UNL     1       4.069  31.094  56.314  1.00  0.00    -0.268 OA
ENDBRANCH  18  22
ENDBRANCH  15  16
ENDBRANCH   1  15
TORSDOF 4
ENDMDL
MODEL 9
REMARK VINA RESULT:      -8.4      5.847      8.985
REMARK  4 active torsions:
REMARK  status: ('A' for Active; 'I' for Inactive)
REMARK    1  A    between atoms: C_3  and  N_4 
REMARK    2  A    between atoms: N_4  and  C_5 
REMARK    3  A    between atoms: C_5  and  C_6 
REMARK    4  A    between atoms: C_8  and  C_9 
REMARK       I    between atoms: C_9  and  N_10 
ROOT
HETATM    1  N   UNL     1       7.053  31.198  61.000  1.00  0.00    -0.372 N 
HETATM    2  H   UNL     1       7.358  30.792  61.884  1.00  0.00     0.161 HD
ENDROOT
BRANCH   1   3
HETATM    3  C   UNL     1       7.911  30.966  59.947  1.00  0.00     0.107 A 
HETATM    4  C   UNL     1       9.268  31.338  60.011  1.00  0.00    -0.017 A 
HETATM    5  C   UNL     1       9.875  32.034  61.200  1.00  0.00     0.052 C 
HETATM    6  C   UNL     1      10.111  31.040  58.931  1.00  0.00     0.024 A 
HETATM    7  C   UNL     1       9.616  30.375  57.809  1.00  0.00    -0.009 A 
HETATM    8  C   UNL     1       8.252  30.025  57.788  1.00  0.00     0.043 A 
HETATM    9  C   UNL     1      10.425  30.045  56.710  1.00  0.00     0.014 A 
HETATM   10  N   UNL     1       7.484  30.329  58.846  1.00  0.00    -0.342 N 
HETATM   11  C   UNL     1       7.711  29.366  56.676  1.00  0.00     0.030 A 
HETATM   12  H   UNL     1       6.501  30.096  58.794  1.00  0.00     0.167 HD
HETATM   13  C   UNL     1       8.527  29.046  55.590  1.00  0.00     0.002 A 
HETATM   14  C   UNL     1       9.880  29.382  55.609  1.00  0.00     0.001 A 
ENDBRANCH   1   3
BRANCH   1  15
HETATM   15  C   UNL     1       6.162  32.339  61.154  1.00  0.00     0.160 C 
BRANCH  15  16
HETATM   16  C   UNL     1       6.342  33.060  62.467  1.00  0.00    -0.040 A 
HETATM   17  C   UNL     1       5.677  34.265  62.741  1.00  0.00     0.026 A 
HETATM   18  C   UNL     1       5.877  34.939  63.955  1.00  0.00     0.032 A 
HETATM   19  C   UNL     1       6.747  34.408  64.910  1.00  0.00     0.017 A 
HETATM   20  C   UNL     1       7.428  33.221  64.641  1.00  0.00     0.002 A 
HETATM   21  C   UNL     1       7.234  32.556  63.428  1.00  0.00     0.009 A 
BRANCH  18  22
HETATM   22  C   UNL     1       5.110  36.188  64.188  1.00  0.00     0.249 C 
HETATM   23  N   UNL     1       5.133  36.722  65.443  1.00  0.00    -0.366 N 
HETATM   24  H   UNL     1       5.793  36.440  66.155  1.00  0.00     0.159 HD
HETATM   25  H   UNL     1       4.689  37.626  65.562  1.00  0.00     0.159 HD
HETATM   26  O   UNL     1       4.502  36.720  63.268  1.00  0.00    -0.268 OA
ENDBRANCH  18  22
ENDBRANCH  15  16
ENDBRANCH   1  15
TORSDOF 4
ENDMDL
MODEL 10
REMARK VINA RESULT:      -8.2      4.697      7.184
REMARK  4 active torsions:
REMARK  status: ('A' for Active; 'I' for Inactive)
REMARK    1  A    between atoms: C_3  and  N_4 
REMARK    2  A    between atoms: N_4  and  C_5 
REMARK    3  A    between atoms: C_5  and  C_6 
REMARK    4  A    between atoms: C_8  and  C_9 
REMARK       I    between atoms: C_9  and  N_10 
ROOT
HETATM    1  N   UNL     1       4.042  26.928  53.243  1.00  0.00    -0.372 N 
HETATM    2  H   UNL     1       3.126  26.710  53.634  1.00  0.00     0.161 HD
ENDROOT
BRANCH   1   3
HETATM    3  C   UNL     1       5.078  26.212  53.803  1.00  0.00     0.107 A 
HETATM    4  C   UNL     1       5.515  26.462  55.119  1.00  0.00    -0.017 A 
HETATM    5  C   UNL     1       4.919  27.532  55.995  1.00  0.00     0.052 C 
HETATM    6  C   UNL     1       6.544  25.676  55.659  1.00  0.00     0.024 A 
HETATM    7  C   UNL     1       7.122  24.653  54.907  1.00  0.00    -0.009 A 
HETATM    8  C   UNL     1       6.654  24.441  53.597  1.00  0.00     0.043 A 
HETATM    9  C   UNL     1       8.145  23.834  55.411  1.00  0.00     0.014 A 
HETATM   10  N   UNL     1       5.666  25.217  53.122  1.00  0.00    -0.342 N 
HETATM   11  C   UNL     1       7.215  23.431  52.804  1.00  0.00     0.030 A 
HETATM   12  H   UNL     1       5.369  25.066  52.168  1.00  0.00     0.167 HD
HETATM   13  C   UNL     1       8.232  22.626  53.317  1.00  0.00     0.002 A 
HETATM   14  C   UNL     1       8.693  22.825  54.617  1.00  0.00     0.001 A 
ENDBRANCH   1   3
BRANCH   1  15
HETATM   15  C   UNL     1       4.129  28.255  52.653  1.00  0.00     0.160 C 
BRANCH  15  16
HETATM   16  C   UNL     1       4.504  28.231  51.191  1.00  0.00    -0.040 A 
HETATM   17  C   UNL     1       4.015  27.244  50.322  1.00  0.00     0.026 A 
HETATM   18  C   UNL     1       4.397  27.219  48.972  1.00  0.00     0.032 A 
HETATM   19  C   UNL     1       5.275  28.186  48.480  1.00  0.00     0.017 A 
HETATM   20  C   UNL     1       5.783  29.161  49.339  1.00  0.00     0.002 A 
HETATM   21  C   UNL     1       5.408  29.180  50.685  1.00  0.00     0.009 A 
BRANCH  18  22
HETATM   22  C   UNL     1       3.808  26.168  48.106  1.00  0.00     0.249 C 
HETATM   23  N   UNL     1       3.157  25.135  48.715  1.00  0.00    -0.366 N 
HETATM   24  H   UNL     1       2.879  25.149  49.686  1.00  0.00     0.159 HD
HETATM   25  H   UNL     1       2.675  24.480  48.109  1.00  0.00     0.159 HD
HETATM   26  O   UNL     1       3.893  26.253  46.887  1.00  0.00    -0.268 OA
ENDBRANCH  18  22
ENDBRANCH  15  16
ENDBRANCH   1  15
TORSDOF 4
ENDMDL
