MODEL 1
REMARK VINA RESULT:      -8.4      0.000      0.000
REMARK  8 active torsions:
REMARK  status: ('A' for Active; 'I' for Inactive)
REMARK    1  A    between atoms: C_3  and  N_4 
REMARK       I    between atoms: N_4  and  C_5 
REMARK    2  A    between atoms: C_5  and  C_6 
REMARK    3  A    between atoms: C_6  and  C_7 
REMARK    4  A    between atoms: C_7  and  C_8 
REMARK    5  A    between atoms: C_8  and  O_9 
REMARK    6  A    between atoms: O_9  and  C_10 
REMARK    7  A    between atoms: C_18  and  C_19 
REMARK    8  A    between atoms: C_22  and  O_23 
ROOT
HETATM    1  N   UNL     1       9.143  30.294  59.496  1.00  0.00    -0.327 N 
HETATM    2  C   UNL     1       9.354  31.609  59.884  1.00  0.00     0.222 C 
HETATM    3  O   UNL     1       9.268  32.601  59.170  1.00  0.00    -0.273 OA
HETATM    4  H   UNL     1       8.872  29.667  60.242  1.00  0.00     0.169 HD
ENDROOT
BRANCH   1   5
HETATM    5  C   UNL     1       8.863  29.842  58.184  1.00  0.00     0.041 A 
HETATM    6  C   UNL     1       9.803  29.704  57.155  1.00  0.00    -0.033 A 
HETATM    7  C   UNL     1      11.289  29.864  57.318  1.00  0.00     0.050 C 
HETATM    8  C   UNL     1       9.344  29.343  55.877  1.00  0.00     0.046 A 
HETATM    9  C   UNL     1       8.000  29.059  55.638  1.00  0.00     0.072 A 
HETATM   10  C   UNL     1       7.056  29.078  56.672  1.00  0.00    -0.019 A 
HETATM   11  C   UNL     1       7.521  29.472  57.943  1.00  0.00     0.040 A 
BRANCH   9  12
HETATM   12  O   UNL     1       7.696  28.749  54.342  1.00  0.00    -0.360 OA
HETATM   13  H   UNL     1       6.751  28.552  54.268  1.00  0.00     0.217 HD
ENDBRANCH   9  12
BRANCH  10  14
HETATM   14  C   UNL     1       5.602  28.682  56.436  1.00  0.00     0.013 C 
HETATM   15  C   UNL     1       5.350  27.240  56.895  1.00  0.00     0.015 C 
HETATM   16  C   UNL     1       4.550  29.596  57.084  1.00  0.00     0.015 C 
ENDBRANCH  10  14
ENDBRANCH   1   5
BRANCH   2  17
HETATM   17  C   UNL     1       9.633  31.715  61.376  1.00  0.00     0.105 C 
BRANCH  17  18
HETATM   18  C   UNL     1       8.668  30.904  62.239  1.00  0.00     0.036 C 
BRANCH  18  19
HETATM   19  C   UNL     1       7.248  31.469  62.263  1.00  0.00     0.176 C 
BRANCH  19  20
HETATM   20  O   UNL     1       7.330  32.815  62.743  1.00  0.00    -0.350 OA
BRANCH  20  21
HETATM   21  C   UNL     1       6.574  33.130  63.833  1.00  0.00     0.086 A 
HETATM   22  C   UNL     1       5.200  32.972  63.979  1.00  0.00     0.152 A 
HETATM   23  N   UNL     1       4.510  33.296  65.102  1.00  0.00    -0.270 NA
HETATM   24  C   UNL     1       5.225  33.812  66.124  1.00  0.00     0.116 A 
HETATM   25  C   UNL     1       6.594  34.014  66.079  1.00  0.00     0.022 A 
HETATM   26  C   UNL     1       7.273  33.663  64.914  1.00  0.00     0.039 A 
ENDBRANCH  20  21
ENDBRANCH  19  20
ENDBRANCH  18  19
ENDBRANCH  17  18
ENDBRANCH   2  17
TORSDOF 8
ENDMDL
MODEL 2
REMARK VINA RESULT:      -8.3      4.709      7.579
REMARK  8 active torsions:
REMARK  status: ('A' for Active; 'I' for Inactive)
REMARK    1  A    between atoms: C_3  and  N_4 
REMARK       I    between atoms: N_4  and  C_5 
REMARK    2  A    between atoms: C_5  and  C_6 
REMARK    3  A    between atoms: C_6  and  C_7 
REMARK    4  A    between atoms: C_7  and  C_8 
REMARK    5  A    between atoms: C_8  and  O_9 
REMARK    6  A    between atoms: O_9  and  C_10 
REMARK    7  A    between atoms: C_18  and  C_19 
REMARK    8  A    between atoms: C_22  and  O_23 
ROOT
HETATM    1  N   UNL     1       7.671  25.750  55.219  1.00  0.00    -0.327 N 
HETATM    2  C   UNL     1       6.565  26.299  55.852  1.00  0.00     0.222 C 
HETATM    3  O   UNL     1       5.493  25.742  56.054  1.00  0.00    -0.273 OA
HETATM    4  H   UNL     1       8.558  26.167  55.472  1.00  0.00     0.169 HD
ENDROOT
BRANCH   1   5
HETATM    5  C   UNL     1       7.745  24.470  54.620  1.00  0.00     0.041 A 
HETATM    6  C   UNL     1       7.672  24.211  53.246  1.00  0.00    -0.033 A 
HETATM    7  C   UNL     1       7.658  25.261  52.171  1.00  0.00     0.050 C 
HETATM    8  C   UNL     1       7.654  22.872  52.820  1.00  0.00     0.046 A 
HETATM    9  C   UNL     1       7.777  21.817  53.724  1.00  0.00     0.072 A 
HETATM   10  C   UNL     1       7.966  22.048  55.092  1.00  0.00    -0.019 A 
HETATM   11  C   UNL     1       7.950  23.394  55.512  1.00  0.00     0.040 A 
BRANCH   9  12
HETATM   12  O   UNL     1       7.717  20.570  53.168  1.00  0.00    -0.360 OA
HETATM   13  H   UNL     1       6.791  20.310  53.052  1.00  0.00     0.217 HD
ENDBRANCH   9  12
BRANCH  10  14
HETATM   14  C   UNL     1       8.190  20.903  56.074  1.00  0.00     0.013 C 
HETATM   15  C   UNL     1       9.510  20.179  55.775  1.00  0.00     0.015 C 
HETATM   16  C   UNL     1       8.164  21.287  57.561  1.00  0.00     0.015 C 
ENDBRANCH  10  14
ENDBRANCH   1   5
BRANCH   2  17
HETATM   17  C   UNL     1       6.854  27.699  56.371  1.00  0.00     0.105 C 
BRANCH  17  18
HETATM   18  C   UNL     1       7.441  28.635  55.317  1.00  0.00     0.036 C 
BRANCH  18  19
HETATM   19  C   UNL     1       8.838  29.150  55.666  1.00  0.00     0.176 C 
BRANCH  19  20
HETATM   20  O   UNL     1       9.069  28.856  57.049  1.00  0.00    -0.350 OA
BRANCH  20  21
HETATM   21  C   UNL     1       9.253  29.919  57.883  1.00  0.00     0.086 A 
HETATM   22  C   UNL     1      10.199  30.930  57.762  1.00  0.00     0.152 A 
HETATM   23  N   UNL     1      10.320  31.970  58.626  1.00  0.00    -0.270 NA
HETATM   24  C   UNL     1       9.460  31.995  59.667  1.00  0.00     0.116 A 
HETATM   25  C   UNL     1       8.486  31.035  59.881  1.00  0.00     0.022 A 
HETATM   26  C   UNL     1       8.385  29.985  58.970  1.00  0.00     0.039 A 
ENDBRANCH  20  21
ENDBRANCH  19  20
ENDBRANCH  18  19
ENDBRANCH  17  18
ENDBRANCH   2  17
TORSDOF 8
ENDMDL
MODEL 3
REMARK VINA RESULT:      -7.8      3.002      4.814
REMARK  8 active torsions:
REMARK  status: ('A' for Active; 'I' for Inactive)
REMARK    1  A    between atoms: C_3  and  N_4 
REMARK       I    between atoms: N_4  and  C_5 
REMARK    2  A    between atoms: C_5  and  C_6 
REMARK    3  A    between atoms: C_6  and  C_7 
REMARK    4  A    between atoms: C_7  and  C_8 
REMARK    5  A    between atoms: C_8  and  O_9 
REMARK    6  A    between atoms: O_9  and  C_10 
REMARK    7  A    between atoms: C_18  and  C_19 
REMARK    8  A    between atoms: C_22  and  O_23 
ROOT
HETATM    1  N   UNL     1       7.912  28.693  55.638  1.00  0.00    -0.327 N 
HETATM    2  C   UNL     1       8.324  28.513  56.950  1.00  0.00     0.222 C 
HETATM    3  O   UNL     1       7.943  27.637  57.717  1.00  0.00    -0.273 OA
HETATM    4  H   UNL     1       8.573  29.180  55.046  1.00  0.00     0.169 HD
ENDROOT
BRANCH   1   5
HETATM    5  C   UNL     1       6.918  27.946  54.961  1.00  0.00     0.041 A 
HETATM    6  C   UNL     1       5.590  28.346  54.770  1.00  0.00    -0.033 A 
HETATM    7  C   UNL     1       5.041  29.702  55.117  1.00  0.00     0.050 C 
HETATM    8  C   UNL     1       4.701  27.441  54.168  1.00  0.00     0.046 A 
HETATM    9  C   UNL     1       5.129  26.197  53.703  1.00  0.00     0.072 A 
HETATM   10  C   UNL     1       6.474  25.816  53.777  1.00  0.00    -0.019 A 
HETATM   11  C   UNL     1       7.352  26.719  54.411  1.00  0.00     0.040 A 
BRANCH   9  12
HETATM   12  O   UNL     1       4.148  25.412  53.165  1.00  0.00    -0.360 OA
HETATM   13  H   UNL     1       3.397  25.369  53.774  1.00  0.00     0.217 HD
ENDBRANCH   9  12
BRANCH  10  14
HETATM   14  C   UNL     1       6.966  24.496  53.191  1.00  0.00     0.013 C 
HETATM   15  C   UNL     1       7.888  24.744  51.989  1.00  0.00     0.015 C 
HETATM   16  C   UNL     1       7.680  23.556  54.174  1.00  0.00     0.015 C 
ENDBRANCH  10  14
ENDBRANCH   1   5
BRANCH   2  17
HETATM   17  C   UNL     1       9.409  29.505  57.338  1.00  0.00     0.105 C 
BRANCH  17  18
HETATM   18  C   UNL     1       9.200  30.136  58.713  1.00  0.00     0.036 C 
BRANCH  18  19
HETATM   19  C   UNL     1       9.910  31.480  58.884  1.00  0.00     0.176 C 
BRANCH  19  20
HETATM   20  O   UNL     1       8.903  32.466  59.135  1.00  0.00    -0.350 OA
BRANCH  20  21
HETATM   21  C   UNL     1       8.210  32.356  60.305  1.00  0.00     0.086 A 
HETATM   22  C   UNL     1       6.830  32.367  60.470  1.00  0.00     0.152 A 
HETATM   23  N   UNL     1       6.204  32.240  61.667  1.00  0.00    -0.270 NA
HETATM   24  C   UNL     1       6.994  32.106  62.753  1.00  0.00     0.116 A 
HETATM   25  C   UNL     1       8.378  32.088  62.698  1.00  0.00     0.022 A 
HETATM   26  C   UNL     1       8.988  32.214  61.452  1.00  0.00     0.039 A 
ENDBRANCH  20  21
ENDBRANCH  19  20
ENDBRANCH  18  19
ENDBRANCH  17  18
ENDBRANCH   2  17
TORSDOF 8
ENDMDL
MODEL 4
REMARK VINA RESULT:      -7.7      4.444      9.827
REMARK  8 active torsions:
REMARK  status: ('A' for Active; 'I' for Inactive)
REMARK    1  A    between atoms: C_3  and  N_4 
REMARK       I    between atoms: N_4  and  C_5 
REMARK    2  A    between atoms: C_5  and  C_6 
REMARK    3  A    between atoms: C_6  and  C_7 
REMARK    4  A    between atoms: C_7  and  C_8 
REMARK    5  A    between atoms: C_8  and  O_9 
REMARK    6  A    between atoms: O_9  and  C_10 
REMARK    7  A    between atoms: C_18  and  C_19 
REMARK    8  A    between atoms: C_22  and  O_23 
ROOT
HETATM    1  N   UNL     1       7.288  28.750  56.878  1.00  0.00    -0.327 N 
HETATM    2  C   UNL     1       7.206  27.400  57.186  1.00  0.00     0.222 C 
HETATM    3  O   UNL     1       7.731  26.839  58.140  1.00  0.00    -0.273 OA
HETATM    4  H   UNL     1       6.520  29.109  56.326  1.00  0.00     0.169 HD
ENDROOT
BRANCH   1   5
HETATM    5  C   UNL     1       8.055  29.722  57.566  1.00  0.00     0.041 A 
HETATM    6  C   UNL     1       9.407  30.003  57.333  1.00  0.00    -0.033 A 
HETATM    7  C   UNL     1      10.224  29.429  56.210  1.00  0.00     0.050 C 
HETATM    8  C   UNL     1      10.051  30.924  58.175  1.00  0.00     0.046 A 
HETATM    9  C   UNL     1       9.360  31.603  59.179  1.00  0.00     0.072 A 
HETATM   10  C   UNL     1       7.983  31.427  59.361  1.00  0.00    -0.019 A 
HETATM   11  C   UNL     1       7.353  30.476  58.532  1.00  0.00     0.040 A 
BRANCH   9  12
HETATM   12  O   UNL     1      10.122  32.448  59.936  1.00  0.00    -0.360 OA
HETATM   13  H   UNL     1      11.058  32.227  59.826  1.00  0.00     0.217 HD
ENDBRANCH   9  12
BRANCH  10  14
HETATM   14  C   UNL     1       7.203  32.230  60.397  1.00  0.00     0.013 C 
HETATM   15  C   UNL     1       5.732  32.369  59.983  1.00  0.00     0.015 C 
HETATM   16  C   UNL     1       7.261  31.696  61.837  1.00  0.00     0.015 C 
ENDBRANCH  10  14
ENDBRANCH   1   5
BRANCH   2  17
HETATM   17  C   UNL     1       6.288  26.661  56.225  1.00  0.00     0.105 C 
BRANCH  17  18
HETATM   18  C   UNL     1       6.546  25.157  56.164  1.00  0.00     0.036 C 
BRANCH  18  19
HETATM   19  C   UNL     1       7.645  24.764  55.177  1.00  0.00     0.176 C 
BRANCH  19  20
HETATM   20  O   UNL     1       7.097  23.774  54.299  1.00  0.00    -0.350 OA
BRANCH  20  21
HETATM   21  C   UNL     1       7.651  22.529  54.350  1.00  0.00     0.086 A 
HETATM   22  C   UNL     1       8.056  21.834  55.485  1.00  0.00     0.152 A 
HETATM   23  N   UNL     1       8.591  20.587  55.465  1.00  0.00    -0.270 NA
HETATM   24  C   UNL     1       8.738  20.010  54.253  1.00  0.00     0.116 A 
HETATM   25  C   UNL     1       8.371  20.618  53.064  1.00  0.00     0.022 A 
HETATM   26  C   UNL     1       7.819  21.896  53.121  1.00  0.00     0.039 A 
ENDBRANCH  20  21
ENDBRANCH  19  20
ENDBRANCH  18  19
ENDBRANCH  17  18
ENDBRANCH   2  17
TORSDOF 8
ENDMDL
MODEL 5
REMARK VINA RESULT:      -7.7      4.670      7.597
REMARK  8 active torsions:
REMARK  status: ('A' for Active; 'I' for Inactive)
REMARK    1  A    between atoms: C_3  and  N_4 
REMARK       I    between atoms: N_4  and  C_5 
REMARK    2  A    between atoms: C_5  and  C_6 
REMARK    3  A    between atoms: C_6  and  C_7 
REMARK    4  A    between atoms: C_7  and  C_8 
REMARK    5  A    between atoms: C_8  and  O_9 
REMARK    6  A    between atoms: O_9  and  C_10 
REMARK    7  A    between atoms: C_18  and  C_19 
REMARK    8  A    between atoms: C_22  and  O_23 
ROOT
HETATM    1  N   UNL     1       5.232  26.610  54.719  1.00  0.00    -0.327 N 
HETATM    2  C   UNL     1       5.458  27.919  54.318  1.00  0.00     0.222 C 
HETATM    3  O   UNL     1       6.309  28.300  53.524  1.00  0.00    -0.273 OA
HETATM    4  H   UNL     1       4.295  26.420  55.047  1.00  0.00     0.169 HD
ENDROOT
BRANCH   1   5
HETATM    5  C   UNL     1       5.992  25.476  54.344  1.00  0.00     0.041 A 
HETATM    6  C   UNL     1       5.906  24.810  53.115  1.00  0.00    -0.033 A 
HETATM    7  C   UNL     1       5.104  25.283  51.935  1.00  0.00     0.050 C 
HETATM    8  C   UNL     1       6.654  23.635  52.939  1.00  0.00     0.046 A 
HETATM    9  C   UNL     1       7.520  23.166  53.927  1.00  0.00     0.072 A 
HETATM   10  C   UNL     1       7.714  23.873  55.120  1.00  0.00    -0.019 A 
HETATM   11  C   UNL     1       6.934  25.033  55.300  1.00  0.00     0.040 A 
BRANCH   9  12
HETATM   12  O   UNL     1       8.162  21.998  53.627  1.00  0.00    -0.360 OA
HETATM   13  H   UNL     1       9.076  22.039  53.944  1.00  0.00     0.217 HD
ENDBRANCH   9  12
BRANCH  10  14
HETATM   14  C   UNL     1       8.724  23.415  56.167  1.00  0.00     0.013 C 
HETATM   15  C   UNL     1       8.970  24.519  57.205  1.00  0.00     0.015 C 
HETATM   16  C   UNL     1       8.375  22.114  56.906  1.00  0.00     0.015 C 
ENDBRANCH  10  14
ENDBRANCH   1   5
BRANCH   2  17
HETATM   17  C   UNL     1       4.441  28.874  54.925  1.00  0.00     0.105 C 
BRANCH  17  18
HETATM   18  C   UNL     1       5.020  29.771  56.018  1.00  0.00     0.036 C 
BRANCH  18  19
HETATM   19  C   UNL     1       5.033  29.120  57.401  1.00  0.00     0.176 C 
BRANCH  19  20
HETATM   20  O   UNL     1       6.175  28.257  57.457  1.00  0.00    -0.350 OA
BRANCH  20  21
HETATM   21  C   UNL     1       7.391  28.854  57.612  1.00  0.00     0.086 A 
HETATM   22  C   UNL     1       7.724  29.868  58.502  1.00  0.00     0.152 A 
HETATM   23  N   UNL     1       8.964  30.410  58.612  1.00  0.00    -0.270 NA
HETATM   24  C   UNL     1       9.914  29.922  57.787  1.00  0.00     0.116 A 
HETATM   25  C   UNL     1       9.685  28.918  56.862  1.00  0.00     0.022 A 
HETATM   26  C   UNL     1       8.402  28.379  56.779  1.00  0.00     0.039 A 
ENDBRANCH  20  21
ENDBRANCH  19  20
ENDBRANCH  18  19
ENDBRANCH  17  18
ENDBRANCH   2  17
TORSDOF 8
ENDMDL
MODEL 6
REMARK VINA RESULT:      -7.7      2.327      3.910
REMARK  8 active torsions:
REMARK  status: ('A' for Active; 'I' for Inactive)
REMARK    1  A    between atoms: C_3  and  N_4 
REMARK       I    between atoms: N_4  and  C_5 
REMARK    2  A    between atoms: C_5  and  C_6 
REMARK    3  A    between atoms: C_6  and  C_7 
REMARK    4  A    between atoms: C_7  and  C_8 
REMARK    5  A    between atoms: C_8  and  O_9 
REMARK    6  A    between atoms: O_9  and  C_10 
REMARK    7  A    between atoms: C_18  and  C_19 
REMARK    8  A    between atoms: C_22  and  O_23 
ROOT
HETATM    1  N   UNL     1       8.672  28.992  57.839  1.00  0.00    -0.327 N 
HETATM    2  C   UNL     1       9.529  29.673  56.987  1.00  0.00     0.222 C 
HETATM    3  O   UNL     1       9.461  29.712  55.765  1.00  0.00    -0.273 OA
HETATM    4  H   UNL     1       8.621  29.361  58.779  1.00  0.00     0.169 HD
ENDROOT
BRANCH   1   5
HETATM    5  C   UNL     1       7.601  28.151  57.452  1.00  0.00     0.041 A 
HETATM    6  C   UNL     1       6.272  28.557  57.275  1.00  0.00    -0.033 A 
HETATM    7  C   UNL     1       5.795  29.982  57.315  1.00  0.00     0.050 C 
HETATM    8  C   UNL     1       5.307  27.577  56.992  1.00  0.00     0.046 A 
HETATM    9  C   UNL     1       5.656  26.237  56.820  1.00  0.00     0.072 A 
HETATM   10  C   UNL     1       6.991  25.819  56.878  1.00  0.00    -0.019 A 
HETATM   11  C   UNL     1       7.948  26.806  57.194  1.00  0.00     0.040 A 
BRANCH   9  12
HETATM   12  O   UNL     1       4.609  25.394  56.576  1.00  0.00    -0.360 OA
HETATM   13  H   UNL     1       4.827  24.506  56.894  1.00  0.00     0.217 HD
ENDBRANCH   9  12
BRANCH  10  14
HETATM   14  C   UNL     1       7.391  24.373  56.603  1.00  0.00     0.013 C 
HETATM   15  C   UNL     1       7.452  24.103  55.093  1.00  0.00     0.015 C 
HETATM   16  C   UNL     1       8.712  23.914  57.239  1.00  0.00     0.015 C 
ENDBRANCH  10  14
ENDBRANCH   1   5
BRANCH   2  17
HETATM   17  C   UNL     1      10.565  30.476  57.760  1.00  0.00     0.105 C 
BRANCH  17  18
HETATM   18  C   UNL     1       9.972  31.637  58.555  1.00  0.00     0.036 C 
BRANCH  18  19
HETATM   19  C   UNL     1       9.664  31.287  60.011  1.00  0.00     0.176 C 
BRANCH  19  20
HETATM   20  O   UNL     1       8.242  31.174  60.132  1.00  0.00    -0.350 OA
BRANCH  20  21
HETATM   21  C   UNL     1       7.664  31.783  61.207  1.00  0.00     0.086 A 
HETATM   22  C   UNL     1       6.349  32.221  61.320  1.00  0.00     0.152 A 
HETATM   23  N   UNL     1       5.835  32.811  62.428  1.00  0.00    -0.270 NA
HETATM   24  C   UNL     1       6.676  32.981  63.470  1.00  0.00     0.116 A 
HETATM   25  C   UNL     1       8.003  32.585  63.458  1.00  0.00     0.022 A 
HETATM   26  C   UNL     1       8.497  31.976  62.307  1.00  0.00     0.039 A 
ENDBRANCH  20  21
ENDBRANCH  19  20
ENDBRANCH  18  19
ENDBRANCH  17  18
ENDBRANCH   2  17
TORSDOF 8
ENDMDL
MODEL 7
REMARK VINA RESULT:      -7.6      8.067     12.154
REMARK  8 active torsions:
REMARK  status: ('A' for Active; 'I' for Inactive)
REMARK    1  A    between atoms: C_3  and  N_4 
REMARK       I    between atoms: N_4  and  C_5 
REMARK    2  A    between atoms: C_5  and  C_6 
REMARK    3  A    between atoms: C_6  and  C_7 
REMARK    4  A    between atoms: C_7  and  C_8 
REMARK    5  A    between atoms: C_8  and  O_9 
REMARK    6  A    between atoms: O_9  and  C_10 
REMARK    7  A    between atoms: C_18  and  C_19 
REMARK    8  A    between atoms: C_22  and  O_23 
ROOT
HETATM    1  N   UNL     1       6.593  25.599  53.041  1.00  0.00    -0.327 N 
HETATM    2  C   UNL     1       5.399  25.402  52.362  1.00  0.00     0.222 C 
HETATM    3  O   UNL     1       4.443  24.741  52.749  1.00  0.00    -0.273 OA
HETATM    4  H   UNL     1       7.092  26.443  52.790  1.00  0.00     0.169 HD
ENDROOT
BRANCH   1   5
HETATM    5  C   UNL     1       6.961  25.013  54.275  1.00  0.00     0.041 A 
HETATM    6  C   UNL     1       6.805  25.605  55.535  1.00  0.00    -0.033 A 
HETATM    7  C   UNL     1       6.079  26.895  55.795  1.00  0.00     0.050 C 
HETATM    8  C   UNL     1       7.320  24.934  56.656  1.00  0.00     0.046 A 
HETATM    9  C   UNL     1       7.913  23.676  56.545  1.00  0.00     0.072 A 
HETATM   10  C   UNL     1       7.981  23.009  55.316  1.00  0.00    -0.019 A 
HETATM   11  C   UNL     1       7.490  23.705  54.192  1.00  0.00     0.040 A 
BRANCH   9  12
HETATM   12  O   UNL     1       8.391  23.157  57.715  1.00  0.00    -0.360 OA
HETATM   13  H   UNL     1       8.081  22.246  57.816  1.00  0.00     0.217 HD
ENDBRANCH   9  12
BRANCH  10  14
HETATM   14  C   UNL     1       8.547  21.597  55.201  1.00  0.00     0.013 C 
HETATM   15  C   UNL     1       7.632  20.585  55.905  1.00  0.00     0.015 C 
HETATM   16  C   UNL     1       8.820  21.103  53.772  1.00  0.00     0.015 C 
ENDBRANCH  10  14
ENDBRANCH   1   5
BRANCH   2  17
HETATM   17  C   UNL     1       5.357  26.192  51.063  1.00  0.00     0.105 C 
BRANCH  17  18
HETATM   18  C   UNL     1       5.362  27.706  51.266  1.00  0.00     0.036 C 
BRANCH  18  19
HETATM   19  C   UNL     1       4.002  28.361  51.019  1.00  0.00     0.176 C 
BRANCH  19  20
HETATM   20  O   UNL     1       3.990  28.823  49.664  1.00  0.00    -0.350 OA
BRANCH  20  21
HETATM   21  C   UNL     1       3.337  28.045  48.753  1.00  0.00     0.086 A 
HETATM   22  C   UNL     1       3.905  27.250  47.764  1.00  0.00     0.152 A 
HETATM   23  N   UNL     1       3.193  26.489  46.895  1.00  0.00    -0.270 NA
HETATM   24  C   UNL     1       1.849  26.531  47.013  1.00  0.00     0.116 A 
HETATM   25  C   UNL     1       1.185  27.294  47.959  1.00  0.00     0.022 A 
HETATM   26  C   UNL     1       1.947  28.058  48.840  1.00  0.00     0.039 A 
ENDBRANCH  20  21
ENDBRANCH  19  20
ENDBRANCH  18  19
ENDBRANCH  17  18
ENDBRANCH   2  17
TORSDOF 8
ENDMDL
MODEL 8
REMARK VINA RESULT:      -7.6      3.620      5.147
REMARK  8 active torsions:
REMARK  status: ('A' for Active; 'I' for Inactive)
REMARK    1  A    between atoms: C_3  and  N_4 
REMARK       I    between atoms: N_4  and  C_5 
REMARK    2  A    between atoms: C_5  and  C_6 
REMARK    3  A    between atoms: C_6  and  C_7 
REMARK    4  A    between atoms: C_7  and  C_8 
REMARK    5  A    between atoms: C_8  and  O_9 
REMARK    6  A    between atoms: O_9  and  C_10 
REMARK    7  A    between atoms: C_18  and  C_19 
REMARK    8  A    between atoms: C_22  and  O_23 
ROOT
HETATM    1  N   UNL     1       7.777  27.026  56.681  1.00  0.00    -0.327 N 
HETATM    2  C   UNL     1       6.699  27.748  57.173  1.00  0.00     0.222 C 
HETATM    3  O   UNL     1       5.530  27.384  57.198  1.00  0.00    -0.273 OA
HETATM    4  H   UNL     1       8.674  27.276  57.075  1.00  0.00     0.169 HD
ENDROOT
BRANCH   1   5
HETATM    5  C   UNL     1       7.718  25.763  56.045  1.00  0.00     0.041 A 
HETATM    6  C   UNL     1       8.274  24.577  56.540  1.00  0.00    -0.033 A 
HETATM    7  C   UNL     1       8.891  24.418  57.902  1.00  0.00     0.050 C 
HETATM    8  C   UNL     1       8.219  23.427  55.735  1.00  0.00     0.046 A 
HETATM    9  C   UNL     1       7.570  23.431  54.500  1.00  0.00     0.072 A 
HETATM   10  C   UNL     1       6.906  24.571  54.030  1.00  0.00    -0.019 A 
HETATM   11  C   UNL     1       6.995  25.728  54.831  1.00  0.00     0.040 A 
BRANCH   9  12
HETATM   12  O   UNL     1       7.621  22.249  53.816  1.00  0.00    -0.360 OA
HETATM   13  H   UNL     1       7.512  21.512  54.434  1.00  0.00     0.217 HD
ENDBRANCH   9  12
BRANCH  10  14
HETATM   14  C   UNL     1       6.119  24.558  52.724  1.00  0.00     0.013 C 
HETATM   15  C   UNL     1       4.649  24.924  52.970  1.00  0.00     0.015 C 
HETATM   16  C   UNL     1       6.669  25.456  51.605  1.00  0.00     0.015 C 
ENDBRANCH  10  14
ENDBRANCH   1   5
BRANCH   2  17
HETATM   17  C   UNL     1       7.144  29.067  57.787  1.00  0.00     0.105 C 
BRANCH  17  18
HETATM   18  C   UNL     1       8.660  29.252  57.814  1.00  0.00     0.036 C 
BRANCH  18  19
HETATM   19  C   UNL     1       9.117  30.429  58.676  1.00  0.00     0.176 C 
BRANCH  19  20
HETATM   20  O   UNL     1       8.803  30.110  60.036  1.00  0.00    -0.350 OA
BRANCH  20  21
HETATM   21  C   UNL     1       8.222  31.094  60.781  1.00  0.00     0.086 A 
HETATM   22  C   UNL     1       7.176  31.929  60.404  1.00  0.00     0.152 A 
HETATM   23  N   UNL     1       6.636  32.883  61.204  1.00  0.00    -0.270 NA
HETATM   24  C   UNL     1       7.174  33.017  62.436  1.00  0.00     0.116 A 
HETATM   25  C   UNL     1       8.220  32.240  62.905  1.00  0.00     0.022 A 
HETATM   26  C   UNL     1       8.746  31.265  62.060  1.00  0.00     0.039 A 
ENDBRANCH  20  21
ENDBRANCH  19  20
ENDBRANCH  18  19
ENDBRANCH  17  18
ENDBRANCH   2  17
TORSDOF 8
ENDMDL
MODEL 9
REMARK VINA RESULT:      -7.5      2.858      8.767
REMARK  8 active torsions:
REMARK  status: ('A' for Active; 'I' for Inactive)
REMARK    1  A    between atoms: C_3  and  N_4 
REMARK       I    between atoms: N_4  and  C_5 
REMARK    2  A    between atoms: C_5  and  C_6 
REMARK    3  A    between atoms: C_6  and  C_7 
REMARK    4  A    between atoms: C_7  and  C_8 
REMARK    5  A    between atoms: C_8  and  O_9 
REMARK    6  A    between atoms: O_9  and  C_10 
REMARK    7  A    between atoms: C_18  and  C_19 
REMARK    8  A    between atoms: C_22  and  O_23 
ROOT
HETATM    1  N   UNL     1       6.843  31.526  60.387  1.00  0.00    -0.327 N 
HETATM    2  C   UNL     1       7.642  31.652  59.259  1.00  0.00     0.222 C 
HETATM    3  O   UNL     1       8.617  32.383  59.137  1.00  0.00    -0.273 OA
HETATM    4  H   UNL     1       6.355  30.644  60.467  1.00  0.00     0.169 HD
ENDROOT
BRANCH   1   5
HETATM    5  C   UNL     1       6.959  32.273  61.584  1.00  0.00     0.041 A 
HETATM    6  C   UNL     1       7.824  31.978  62.645  1.00  0.00    -0.033 A 
HETATM    7  C   UNL     1       8.880  30.909  62.624  1.00  0.00     0.050 C 
HETATM    8  C   UNL     1       7.741  32.760  63.809  1.00  0.00     0.046 A 
HETATM    9  C   UNL     1       6.875  33.850  63.896  1.00  0.00     0.072 A 
HETATM   10  C   UNL     1       6.081  34.239  62.810  1.00  0.00    -0.019 A 
HETATM   11  C   UNL     1       6.149  33.428  61.659  1.00  0.00     0.040 A 
BRANCH   9  12
HETATM   12  O   UNL     1       6.884  34.501  65.098  1.00  0.00    -0.360 OA
HETATM   13  H   UNL     1       7.518  34.075  65.693  1.00  0.00     0.217 HD
ENDBRANCH   9  12
BRANCH  10  14
HETATM   14  C   UNL     1       5.198  35.481  62.867  1.00  0.00     0.013 C 
HETATM   15  C   UNL     1       5.953  36.709  62.340  1.00  0.00     0.015 C 
HETATM   16  C   UNL     1       3.853  35.376  62.132  1.00  0.00     0.015 C 
ENDBRANCH  10  14
ENDBRANCH   1   5
BRANCH   2  17
HETATM   17  C   UNL     1       7.220  30.686  58.163  1.00  0.00     0.105 C 
BRANCH  17  18
HETATM   18  C   UNL     1       8.061  29.412  58.110  1.00  0.00     0.036 C 
BRANCH  18  19
HETATM   19  C   UNL     1       7.271  28.175  57.683  1.00  0.00     0.176 C 
BRANCH  19  20
HETATM   20  O   UNL     1       7.995  27.027  58.139  1.00  0.00    -0.350 OA
BRANCH  20  21
HETATM   21  C   UNL     1       7.838  25.875  57.426  1.00  0.00     0.086 A 
HETATM   22  C   UNL     1       8.661  24.755  57.444  1.00  0.00     0.152 A 
HETATM   23  N   UNL     1       8.438  23.633  56.713  1.00  0.00    -0.270 NA
HETATM   24  C   UNL     1       7.347  23.633  55.919  1.00  0.00     0.116 A 
HETATM   25  C   UNL     1       6.467  24.699  55.824  1.00  0.00     0.022 A 
HETATM   26  C   UNL     1       6.722  25.833  56.593  1.00  0.00     0.039 A 
ENDBRANCH  20  21
ENDBRANCH  19  20
ENDBRANCH  18  19
ENDBRANCH  17  18
ENDBRANCH   2  17
TORSDOF 8
ENDMDL
MODEL 10
REMARK VINA RESULT:      -7.4      6.742     11.952
REMARK  8 active torsions:
REMARK  status: ('A' for Active; 'I' for Inactive)
REMARK    1  A    between atoms: C_3  and  N_4 
REMARK       I    between atoms: N_4  and  C_5 
REMARK    2  A    between atoms: C_5  and  C_6 
REMARK    3  A    between atoms: C_6  and  C_7 
REMARK    4  A    between atoms: C_7  and  C_8 
REMARK    5  A    between atoms: C_8  and  O_9 
REMARK    6  A    between atoms: O_9  and  C_10 
REMARK    7  A    between atoms: C_18  and  C_19 
REMARK    8  A    between atoms: C_22  and  O_23 
ROOT
HETATM    1  N   UNL     1       6.720  25.715  52.829  1.00  0.00    -0.327 N 
HETATM    2  C   UNL     1       5.445  25.388  52.388  1.00  0.00     0.222 C 
HETATM    3  O   UNL     1       4.579  24.811  53.033  1.00  0.00    -0.273 OA
HETATM    4  H   UNL     1       7.149  26.497  52.352  1.00  0.00     0.169 HD
ENDROOT
BRANCH   1   5
HETATM    5  C   UNL     1       7.285  25.376  54.082  1.00  0.00     0.041 A 
HETATM    6  C   UNL     1       7.867  24.144  54.404  1.00  0.00    -0.033 A 
HETATM    7  C   UNL     1       8.126  23.032  53.426  1.00  0.00     0.050 C 
HETATM    8  C   UNL     1       8.289  23.931  55.727  1.00  0.00     0.046 A 
HETATM    9  C   UNL     1       8.201  24.935  56.692  1.00  0.00     0.072 A 
HETATM   10  C   UNL     1       7.730  26.213  56.371  1.00  0.00    -0.019 A 
HETATM   11  C   UNL     1       7.280  26.406  55.049  1.00  0.00     0.040 A 
BRANCH   9  12
HETATM   12  O   UNL     1       8.624  24.575  57.940  1.00  0.00    -0.360 OA
HETATM   13  H   UNL     1       7.957  24.011  58.359  1.00  0.00     0.217 HD
ENDBRANCH   9  12
BRANCH  10  14
HETATM   14  C   UNL     1       7.714  27.342  57.397  1.00  0.00     0.013 C 
HETATM   15  C   UNL     1       8.909  28.282  57.190  1.00  0.00     0.015 C 
HETATM   16  C   UNL     1       6.429  28.183  57.443  1.00  0.00     0.015 C 
ENDBRANCH  10  14
ENDBRANCH   1   5
BRANCH   2  17
HETATM   17  C   UNL     1       5.186  25.916  50.985  1.00  0.00     0.105 C 
BRANCH  17  18
HETATM   18  C   UNL     1       4.758  27.382  50.952  1.00  0.00     0.036 C 
BRANCH  18  19
HETATM   19  C   UNL     1       5.353  28.165  49.781  1.00  0.00     0.176 C 
BRANCH  19  20
HETATM   20  O   UNL     1       4.266  28.787  49.086  1.00  0.00    -0.350 OA
BRANCH  20  21
HETATM   21  C   UNL     1       3.456  27.972  48.352  1.00  0.00     0.086 A 
HETATM   22  C   UNL     1       3.846  26.978  47.462  1.00  0.00     0.152 A 
HETATM   23  N   UNL     1       2.982  26.191  46.770  1.00  0.00    -0.270 NA
HETATM   24  C   UNL     1       1.666  26.415  46.970  1.00  0.00     0.116 A 
HETATM   25  C   UNL     1       1.174  27.383  47.830  1.00  0.00     0.022 A 
HETATM   26  C   UNL     1       2.088  28.168  48.530  1.00  0.00     0.039 A 
ENDBRANCH  20  21
ENDBRANCH  19  20
ENDBRANCH  18  19
ENDBRANCH  17  18
ENDBRANCH   2  17
TORSDOF 8
ENDMDL
