MODEL 1
REMARK VINA RESULT:     -10.7      0.000      0.000
REMARK  4 active torsions:
REMARK  status: ('A' for Active; 'I' for Inactive)
REMARK       I    between atoms: N_10  and  C_11 
REMARK    1  A    between atoms: C_11  and  C_12 
REMARK    2  A    between atoms: C_12  and  O_13 
REMARK    3  A    between atoms: O_13  and  C_14 
REMARK    4  A    between atoms: C_15  and  C_16 
ROOT
HETATM    1  C   UNL     1       8.793  20.526  56.024  1.00  0.00     0.001 A 
HETATM    2  C   UNL     1       8.298  21.815  56.249  1.00  0.00     0.014 A 
HETATM    3  C   UNL     1       7.781  22.556  55.167  1.00  0.00     0.000 A 
HETATM    4  C   UNL     1       7.782  21.974  53.895  1.00  0.00     0.043 A 
HETATM    5  N   UNL     1       7.232  22.888  53.021  1.00  0.00    -0.358 N 
HETATM    6  H   UNL     1       7.114  22.734  52.030  1.00  0.00     0.166 HD
HETATM    7  C   UNL     1       6.874  24.011  53.705  1.00  0.00     0.020 A 
HETATM    8  C   UNL     1       7.206  23.854  55.035  1.00  0.00    -0.005 A 
HETATM    9  C   UNL     1       6.955  24.892  56.077  1.00  0.00     0.167 C 
HETATM   10  N   UNL     1       6.389  26.124  55.486  1.00  0.00    -0.346 N 
HETATM   11  C   UNL     1       6.274  27.304  56.220  1.00  0.00     0.244 C 
HETATM   12  O   UNL     1       5.552  28.236  55.852  1.00  0.00    -0.271 OA
HETATM   13  C   UNL     1       5.542  25.986  54.282  1.00  0.00     0.132 C 
HETATM   14  C   UNL     1       6.238  25.224  53.137  1.00  0.00     0.077 C 
HETATM   15  C   UNL     1       8.277  20.686  53.656  1.00  0.00     0.030 A 
HETATM   16  C   UNL     1       8.782  19.973  54.747  1.00  0.00     0.002 A 
ENDROOT
BRANCH  11  17
HETATM   17  C   UNL     1       7.058  27.426  57.528  1.00  0.00     0.278 C 
BRANCH  17  18
HETATM   18  O   UNL     1       7.205  28.799  57.867  1.00  0.00    -0.341 OA
BRANCH  18  19
HETATM   19  C   UNL     1       8.435  29.363  57.646  1.00  0.00     0.077 A 
HETATM   20  C   UNL     1       8.918  30.229  58.647  1.00  0.00    -0.001 A 
HETATM   21  C   UNL     1      10.183  30.826  58.461  1.00  0.00     0.012 A 
HETATM   22  C   UNL     1      10.933  30.587  57.310  1.00  0.00     0.001 A 
HETATM   23  C   UNL     1      10.432  29.749  56.320  1.00  0.00     0.003 A 
HETATM   24  C   UNL     1       9.186  29.140  56.486  1.00  0.00     0.037 A 
BRANCH  20  25
HETATM   25  C   UNL     1       8.114  30.491  59.907  1.00  0.00     0.144 C 
HETATM   26  S   UNL     1       9.179  30.655  61.382  1.00  0.00    -0.148 SA
HETATM   27  C   UNL     1       8.098  31.806  62.256  1.00  0.00     0.085 C 
HETATM   28  C   UNL     1       7.641  32.836  61.242  1.00  0.00     0.085 C 
HETATM   29  S   UNL     1       7.039  31.971  59.767  1.00  0.00    -0.148 SA
ENDBRANCH  20  25
ENDBRANCH  18  19
ENDBRANCH  17  18
ENDBRANCH  11  17
TORSDOF 4
ENDMDL
MODEL 2
REMARK VINA RESULT:      -9.9      5.458      8.332
REMARK  4 active torsions:
REMARK  status: ('A' for Active; 'I' for Inactive)
REMARK       I    between atoms: N_10  and  C_11 
REMARK    1  A    between atoms: C_11  and  C_12 
REMARK    2  A    between atoms: C_12  and  O_13 
REMARK    3  A    between atoms: O_13  and  C_14 
REMARK    4  A    between atoms: C_15  and  C_16 
ROOT
HETATM    1  C   UNL     1       8.619  20.324  53.349  1.00  0.00     0.001 A 
HETATM    2  C   UNL     1       8.061  21.531  52.914  1.00  0.00     0.014 A 
HETATM    3  C   UNL     1       7.633  22.479  53.865  1.00  0.00     0.000 A 
HETATM    4  C   UNL     1       7.778  22.177  55.223  1.00  0.00     0.043 A 
HETATM    5  N   UNL     1       7.291  23.249  55.940  1.00  0.00    -0.358 N 
HETATM    6  H   UNL     1       7.266  23.301  56.949  1.00  0.00     0.166 HD
HETATM    7  C   UNL     1       6.862  24.214  55.078  1.00  0.00     0.020 A 
HETATM    8  C   UNL     1       7.044  23.774  53.783  1.00  0.00    -0.005 A 
HETATM    9  C   UNL     1       6.684  24.579  52.580  1.00  0.00     0.167 C 
HETATM   10  N   UNL     1       6.038  25.855  52.957  1.00  0.00    -0.346 N 
HETATM   11  C   UNL     1       5.419  26.672  52.012  1.00  0.00     0.244 C 
HETATM   12  O   UNL     1       5.141  27.852  52.248  1.00  0.00    -0.271 OA
HETATM   13  C   UNL     1       6.435  26.476  54.238  1.00  0.00     0.132 C 
HETATM   14  C   UNL     1       6.281  25.528  55.444  1.00  0.00     0.077 C 
HETATM   15  C   UNL     1       8.332  20.971  55.673  1.00  0.00     0.030 A 
HETATM   16  C   UNL     1       8.751  20.051  54.708  1.00  0.00     0.002 A 
ENDROOT
BRANCH  11  17
HETATM   17  C   UNL     1       5.098  26.080  50.637  1.00  0.00     0.278 C 
BRANCH  17  18
HETATM   18  O   UNL     1       4.903  27.133  49.701  1.00  0.00    -0.341 OA
BRANCH  18  19
HETATM   19  C   UNL     1       3.890  26.971  48.792  1.00  0.00     0.077 A 
HETATM   20  C   UNL     1       2.933  28.003  48.728  1.00  0.00    -0.001 A 
HETATM   21  C   UNL     1       1.876  27.880  47.802  1.00  0.00     0.012 A 
HETATM   22  C   UNL     1       1.762  26.758  46.982  1.00  0.00     0.001 A 
HETATM   23  C   UNL     1       2.700  25.736  47.074  1.00  0.00     0.003 A 
HETATM   24  C   UNL     1       3.759  25.840  47.977  1.00  0.00     0.037 A 
BRANCH  20  25
HETATM   25  C   UNL     1       3.051  29.233  49.610  1.00  0.00     0.144 C 
HETATM   26  S   UNL     1       4.031  30.556  48.820  1.00  0.00    -0.148 SA
HETATM   27  C   UNL     1       3.155  31.923  49.609  1.00  0.00     0.085 C 
HETATM   28  C   UNL     1       1.677  31.601  49.530  1.00  0.00     0.085 C 
HETATM   29  S   UNL     1       1.420  29.904  50.113  1.00  0.00    -0.148 SA
ENDBRANCH  20  25
ENDBRANCH  18  19
ENDBRANCH  17  18
ENDBRANCH  11  17
TORSDOF 4
ENDMDL
MODEL 3
REMARK VINA RESULT:      -9.7      4.561     10.583
REMARK  4 active torsions:
REMARK  status: ('A' for Active; 'I' for Inactive)
REMARK       I    between atoms: N_10  and  C_11 
REMARK    1  A    between atoms: C_11  and  C_12 
REMARK    2  A    between atoms: C_12  and  O_13 
REMARK    3  A    between atoms: O_13  and  C_14 
REMARK    4  A    between atoms: C_15  and  C_16 
ROOT
HETATM    1  C   UNL     1       6.820  34.033  66.787  1.00  0.00     0.001 A 
HETATM    2  C   UNL     1       6.936  33.775  65.417  1.00  0.00     0.014 A 
HETATM    3  C   UNL     1       5.774  33.716  64.622  1.00  0.00     0.000 A 
HETATM    4  C   UNL     1       4.533  33.919  65.236  1.00  0.00     0.043 A 
HETATM    5  N   UNL     1       3.566  33.812  64.258  1.00  0.00    -0.358 N 
HETATM    6  H   UNL     1       2.573  33.909  64.421  1.00  0.00     0.166 HD
HETATM    7  C   UNL     1       4.161  33.567  63.057  1.00  0.00     0.020 A 
HETATM    8  C   UNL     1       5.526  33.488  63.237  1.00  0.00    -0.005 A 
HETATM    9  C   UNL     1       6.491  33.230  62.130  1.00  0.00     0.167 C 
HETATM   10  N   UNL     1       5.792  32.991  60.848  1.00  0.00    -0.346 N 
HETATM   11  C   UNL     1       6.464  32.516  59.723  1.00  0.00     0.244 C 
HETATM   12  O   UNL     1       5.978  32.588  58.590  1.00  0.00    -0.271 OA
HETATM   13  C   UNL     1       4.498  33.672  60.631  1.00  0.00     0.132 C 
HETATM   14  C   UNL     1       3.476  33.399  61.753  1.00  0.00     0.077 C 
HETATM   15  C   UNL     1       4.402  34.176  66.606  1.00  0.00     0.030 A 
HETATM   16  C   UNL     1       5.571  34.231  67.370  1.00  0.00     0.002 A 
ENDROOT
BRANCH  11  17
HETATM   17  C   UNL     1       7.856  31.906  59.910  1.00  0.00     0.278 C 
BRANCH  17  18
HETATM   18  O   UNL     1       7.859  30.572  59.418  1.00  0.00    -0.341 OA
BRANCH  18  19
HETATM   19  C   UNL     1       8.832  30.251  58.507  1.00  0.00     0.077 A 
HETATM   20  C   UNL     1       8.609  29.098  57.728  1.00  0.00    -0.001 A 
HETATM   21  C   UNL     1       9.584  28.736  56.775  1.00  0.00     0.012 A 
HETATM   22  C   UNL     1      10.750  29.482  56.615  1.00  0.00     0.001 A 
HETATM   23  C   UNL     1      10.968  30.604  57.408  1.00  0.00     0.003 A 
HETATM   24  C   UNL     1      10.014  30.986  58.353  1.00  0.00     0.037 A 
BRANCH  20  25
HETATM   25  C   UNL     1       7.339  28.283  57.888  1.00  0.00     0.144 C 
HETATM   26  S   UNL     1       5.940  28.999  56.958  1.00  0.00    -0.148 SA
HETATM   27  C   UNL     1       5.119  27.424  56.629  1.00  0.00     0.085 C 
HETATM   28  C   UNL     1       6.198  26.448  56.205  1.00  0.00     0.085 C 
HETATM   29  S   UNL     1       7.558  26.528  57.401  1.00  0.00    -0.148 SA
ENDBRANCH  20  25
ENDBRANCH  18  19
ENDBRANCH  17  18
ENDBRANCH  11  17
TORSDOF 4
ENDMDL
MODEL 4
REMARK VINA RESULT:      -9.1      1.970      3.972
REMARK  4 active torsions:
REMARK  status: ('A' for Active; 'I' for Inactive)
REMARK       I    between atoms: N_10  and  C_11 
REMARK    1  A    between atoms: C_11  and  C_12 
REMARK    2  A    between atoms: C_12  and  O_13 
REMARK    3  A    between atoms: O_13  and  C_14 
REMARK    4  A    between atoms: C_15  and  C_16 
ROOT
HETATM    1  C   UNL     1       4.915  28.393  50.497  1.00  0.00     0.001 A 
HETATM    2  C   UNL     1       5.436  28.232  51.785  1.00  0.00     0.014 A 
HETATM    3  C   UNL     1       5.638  26.932  52.293  1.00  0.00     0.000 A 
HETATM    4  C   UNL     1       5.304  25.840  51.487  1.00  0.00     0.043 A 
HETATM    5  N   UNL     1       5.589  24.695  52.201  1.00  0.00    -0.358 N 
HETATM    6  H   UNL     1       5.441  23.755  51.862  1.00  0.00     0.166 HD
HETATM    7  C   UNL     1       6.104  25.036  53.417  1.00  0.00     0.020 A 
HETATM    8  C   UNL     1       6.140  26.411  53.521  1.00  0.00    -0.005 A 
HETATM    9  C   UNL     1       6.648  27.135  54.723  1.00  0.00     0.167 C 
HETATM   10  N   UNL     1       7.020  26.194  55.802  1.00  0.00    -0.346 N 
HETATM   11  C   UNL     1       7.313  26.636  57.092  1.00  0.00     0.244 C 
HETATM   12  O   UNL     1       7.900  25.922  57.911  1.00  0.00    -0.271 OA
HETATM   13  C   UNL     1       7.517  24.858  55.411  1.00  0.00     0.132 C 
HETATM   14  C   UNL     1       6.551  24.103  54.478  1.00  0.00     0.077 C 
HETATM   15  C   UNL     1       4.779  25.987  50.197  1.00  0.00     0.030 A 
HETATM   16  C   UNL     1       4.591  27.286  49.717  1.00  0.00     0.002 A 
ENDROOT
BRANCH  11  17
HETATM   17  C   UNL     1       6.905  28.058  57.484  1.00  0.00     0.278 C 
BRANCH  17  18
HETATM   18  O   UNL     1       7.742  28.518  58.537  1.00  0.00    -0.341 OA
BRANCH  18  19
HETATM   19  C   UNL     1       8.751  29.380  58.194  1.00  0.00     0.077 A 
HETATM   20  C   UNL     1       8.942  30.493  59.037  1.00  0.00    -0.001 A 
HETATM   21  C   UNL     1       9.974  31.402  58.722  1.00  0.00     0.012 A 
HETATM   22  C   UNL     1      10.774  31.223  57.595  1.00  0.00     0.001 A 
HETATM   23  C   UNL     1      10.558  30.133  56.759  1.00  0.00     0.003 A 
HETATM   24  C   UNL     1       9.549  29.216  57.055  1.00  0.00     0.037 A 
BRANCH  20  25
HETATM   25  C   UNL     1       8.081  30.693  60.270  1.00  0.00     0.144 C 
HETATM   26  S   UNL     1       9.080  30.843  61.792  1.00  0.00    -0.148 SA
HETATM   27  C   UNL     1       7.931  31.936  62.654  1.00  0.00     0.085 C 
HETATM   28  C   UNL     1       7.485  32.982  61.653  1.00  0.00     0.085 C 
HETATM   29  S   UNL     1       6.969  32.145  60.130  1.00  0.00    -0.148 SA
ENDBRANCH  20  25
ENDBRANCH  18  19
ENDBRANCH  17  18
ENDBRANCH  11  17
TORSDOF 4
ENDMDL
MODEL 5
REMARK VINA RESULT:      -8.9      5.344     10.748
REMARK  4 active torsions:
REMARK  status: ('A' for Active; 'I' for Inactive)
REMARK       I    between atoms: N_10  and  C_11 
REMARK    1  A    between atoms: C_11  and  C_12 
REMARK    2  A    between atoms: C_12  and  O_13 
REMARK    3  A    between atoms: O_13  and  C_14 
REMARK    4  A    between atoms: C_15  and  C_16 
ROOT
HETATM    1  C   UNL     1       3.317  36.231  61.498  1.00  0.00     0.001 A 
HETATM    2  C   UNL     1       4.194  35.159  61.297  1.00  0.00     0.014 A 
HETATM    3  C   UNL     1       5.127  34.829  62.300  1.00  0.00     0.000 A 
HETATM    4  C   UNL     1       5.147  35.592  63.472  1.00  0.00     0.043 A 
HETATM    5  N   UNL     1       6.135  35.077  64.284  1.00  0.00    -0.358 N 
HETATM    6  H   UNL     1       6.375  35.440  65.196  1.00  0.00     0.166 HD
HETATM    7  C   UNL     1       6.719  34.011  63.667  1.00  0.00     0.020 A 
HETATM    8  C   UNL     1       6.134  33.829  62.432  1.00  0.00    -0.005 A 
HETATM    9  C   UNL     1       6.529  32.748  61.482  1.00  0.00     0.167 C 
HETATM   10  N   UNL     1       7.671  31.964  62.001  1.00  0.00    -0.346 N 
HETATM   11  C   UNL     1       8.355  31.047  61.203  1.00  0.00     0.244 C 
HETATM   12  O   UNL     1       9.099  30.188  61.685  1.00  0.00    -0.271 OA
HETATM   13  C   UNL     1       7.798  31.819  63.467  1.00  0.00     0.132 C 
HETATM   14  C   UNL     1       7.814  33.170  64.208  1.00  0.00     0.077 C 
HETATM   15  C   UNL     1       4.278  36.669  63.686  1.00  0.00     0.030 A 
HETATM   16  C   UNL     1       3.361  36.973  62.676  1.00  0.00     0.002 A 
ENDROOT
BRANCH  11  17
HETATM   17  C   UNL     1       8.151  31.108  59.688  1.00  0.00     0.278 C 
BRANCH  17  18
HETATM   18  O   UNL     1       8.177  29.791  59.152  1.00  0.00    -0.341 OA
BRANCH  18  19
HETATM   19  C   UNL     1       8.743  29.638  57.913  1.00  0.00     0.077 A 
HETATM   20  C   UNL     1       7.904  29.145  56.895  1.00  0.00    -0.001 A 
HETATM   21  C   UNL     1       8.446  28.979  55.603  1.00  0.00     0.012 A 
HETATM   22  C   UNL     1       9.783  29.272  55.337  1.00  0.00     0.001 A 
HETATM   23  C   UNL     1      10.605  29.734  56.358  1.00  0.00     0.003 A 
HETATM   24  C   UNL     1      10.090  29.915  57.643  1.00  0.00     0.037 A 
BRANCH  20  25
HETATM   25  C   UNL     1       6.445  28.831  57.171  1.00  0.00     0.144 C 
HETATM   26  S   UNL     1       5.380  30.306  57.010  1.00  0.00    -0.148 SA
HETATM   27  C   UNL     1       3.912  29.407  56.463  1.00  0.00     0.085 C 
HETATM   28  C   UNL     1       4.374  28.399  55.431  1.00  0.00     0.085 C 
HETATM   29  S   UNL     1       5.794  27.492  56.098  1.00  0.00    -0.148 SA
ENDBRANCH  20  25
ENDBRANCH  18  19
ENDBRANCH  17  18
ENDBRANCH  11  17
TORSDOF 4
ENDMDL
MODEL 6
REMARK VINA RESULT:      -8.9      4.708      7.344
REMARK  4 active torsions:
REMARK  status: ('A' for Active; 'I' for Inactive)
REMARK       I    between atoms: N_10  and  C_11 
REMARK    1  A    between atoms: C_11  and  C_12 
REMARK    2  A    between atoms: C_12  and  O_13 
REMARK    3  A    between atoms: O_13  and  C_14 
REMARK    4  A    between atoms: C_15  and  C_16 
ROOT
HETATM    1  C   UNL     1       8.080  21.035  52.961  1.00  0.00     0.001 A 
HETATM    2  C   UNL     1       7.620  22.345  53.138  1.00  0.00     0.014 A 
HETATM    3  C   UNL     1       7.741  22.957  54.402  1.00  0.00     0.000 A 
HETATM    4  C   UNL     1       8.321  22.227  55.445  1.00  0.00     0.043 A 
HETATM    5  N   UNL     1       8.324  23.035  56.563  1.00  0.00    -0.358 N 
HETATM    6  H   UNL     1       8.681  22.761  57.467  1.00  0.00     0.166 HD
HETATM    7  C   UNL     1       7.783  24.246  56.248  1.00  0.00     0.020 A 
HETATM    8  C   UNL     1       7.398  24.237  54.924  1.00  0.00    -0.005 A 
HETATM    9  C   UNL     1       6.766  25.403  54.240  1.00  0.00     0.167 C 
HETATM   10  N   UNL     1       6.536  26.521  55.181  1.00  0.00    -0.346 N 
HETATM   11  C   UNL     1       5.765  27.629  54.830  1.00  0.00     0.244 C 
HETATM   12  O   UNL     1       5.802  28.683  55.473  1.00  0.00    -0.271 OA
HETATM   13  C   UNL     1       7.476  26.677  56.310  1.00  0.00     0.132 C 
HETATM   14  C   UNL     1       7.614  25.400  57.163  1.00  0.00     0.077 C 
HETATM   15  C   UNL     1       8.783  20.915  55.283  1.00  0.00     0.030 A 
HETATM   16  C   UNL     1       8.652  20.333  54.019  1.00  0.00     0.002 A 
ENDROOT
BRANCH  11  17
HETATM   17  C   UNL     1       4.864  27.527  53.597  1.00  0.00     0.278 C 
BRANCH  17  18
HETATM   18  O   UNL     1       5.274  28.484  52.629  1.00  0.00    -0.341 OA
BRANCH  18  19
HETATM   19  C   UNL     1       4.374  29.468  52.313  1.00  0.00     0.077 A 
HETATM   20  C   UNL     1       3.816  29.418  51.020  1.00  0.00    -0.001 A 
HETATM   21  C   UNL     1       2.881  30.409  50.655  1.00  0.00     0.012 A 
HETATM   22  C   UNL     1       2.528  31.429  51.538  1.00  0.00     0.001 A 
HETATM   23  C   UNL     1       3.106  31.480  52.802  1.00  0.00     0.003 A 
HETATM   24  C   UNL     1       4.028  30.505  53.188  1.00  0.00     0.037 A 
BRANCH  20  25
HETATM   25  C   UNL     1       4.187  28.308  50.054  1.00  0.00     0.144 C 
HETATM   26  S   UNL     1       2.807  27.877  48.937  1.00  0.00    -0.148 SA
HETATM   27  C   UNL     1       3.849  27.389  47.545  1.00  0.00     0.085 C 
HETATM   28  C   UNL     1       4.935  28.438  47.421  1.00  0.00     0.085 C 
HETATM   29  S   UNL     1       5.674  28.706  49.055  1.00  0.00    -0.148 SA
ENDBRANCH  20  25
ENDBRANCH  18  19
ENDBRANCH  17  18
ENDBRANCH  11  17
TORSDOF 4
ENDMDL
MODEL 7
REMARK VINA RESULT:      -8.8      3.722      9.346
REMARK  4 active torsions:
REMARK  status: ('A' for Active; 'I' for Inactive)
REMARK       I    between atoms: N_10  and  C_11 
REMARK    1  A    between atoms: C_11  and  C_12 
REMARK    2  A    between atoms: C_12  and  O_13 
REMARK    3  A    between atoms: O_13  and  C_14 
REMARK    4  A    between atoms: C_15  and  C_16 
ROOT
HETATM    1  C   UNL     1       8.453  32.127  63.013  1.00  0.00     0.001 A 
HETATM    2  C   UNL     1       8.201  31.605  61.740  1.00  0.00     0.014 A 
HETATM    3  C   UNL     1       7.075  32.050  61.019  1.00  0.00     0.000 A 
HETATM    4  C   UNL     1       6.239  33.005  61.607  1.00  0.00     0.043 A 
HETATM    5  N   UNL     1       5.223  33.272  60.714  1.00  0.00    -0.358 N 
HETATM    6  H   UNL     1       4.469  33.923  60.881  1.00  0.00     0.166 HD
HETATM    7  C   UNL     1       5.405  32.529  59.585  1.00  0.00     0.020 A 
HETATM    8  C   UNL     1       6.533  31.750  59.736  1.00  0.00    -0.005 A 
HETATM    9  C   UNL     1       7.033  30.810  58.690  1.00  0.00     0.167 C 
HETATM   10  N   UNL     1       6.123  30.766  57.524  1.00  0.00    -0.346 N 
HETATM   11  C   UNL     1       6.260  29.807  56.522  1.00  0.00     0.244 C 
HETATM   12  O   UNL     1       5.715  29.928  55.420  1.00  0.00    -0.271 OA
HETATM   13  C   UNL     1       5.365  31.992  57.194  1.00  0.00     0.132 C 
HETATM   14  C   UNL     1       4.541  32.531  58.380  1.00  0.00     0.077 C 
HETATM   15  C   UNL     1       6.478  33.535  62.881  1.00  0.00     0.030 A 
HETATM   16  C   UNL     1       7.603  33.077  63.573  1.00  0.00     0.002 A 
ENDROOT
BRANCH  11  17
HETATM   17  C   UNL     1       7.132  28.581  56.803  1.00  0.00     0.278 C 
BRANCH  17  18
HETATM   18  O   UNL     1       6.357  27.400  56.636  1.00  0.00    -0.341 OA
BRANCH  18  19
HETATM   19  C   UNL     1       7.045  26.237  56.403  1.00  0.00     0.077 A 
HETATM   20  C   UNL     1       6.784  25.587  55.181  1.00  0.00    -0.001 A 
HETATM   21  C   UNL     1       7.476  24.390  54.898  1.00  0.00     0.012 A 
HETATM   22  C   UNL     1       8.379  23.846  55.810  1.00  0.00     0.001 A 
HETATM   23  C   UNL     1       8.608  24.486  57.023  1.00  0.00     0.003 A 
HETATM   24  C   UNL     1       7.942  25.676  57.321  1.00  0.00     0.037 A 
BRANCH  20  25
HETATM   25  C   UNL     1       5.808  26.174  54.178  1.00  0.00     0.144 C 
HETATM   26  S   UNL     1       6.601  27.404  53.084  1.00  0.00    -0.148 SA
HETATM   27  C   UNL     1       5.545  27.080  51.656  1.00  0.00     0.085 C 
HETATM   28  C   UNL     1       5.424  25.575  51.533  1.00  0.00     0.085 C 
HETATM   29  S   UNL     1       4.988  24.892  53.154  1.00  0.00    -0.148 SA
ENDBRANCH  20  25
ENDBRANCH  18  19
ENDBRANCH  17  18
ENDBRANCH  11  17
TORSDOF 4
ENDMDL
MODEL 8
REMARK VINA RESULT:      -8.7      2.487      4.040
REMARK  4 active torsions:
REMARK  status: ('A' for Active; 'I' for Inactive)
REMARK       I    between atoms: N_10  and  C_11 
REMARK    1  A    between atoms: C_11  and  C_12 
REMARK    2  A    between atoms: C_12  and  O_13 
REMARK    3  A    between atoms: O_13  and  C_14 
REMARK    4  A    between atoms: C_15  and  C_16 
ROOT
HETATM    1  C   UNL     1       7.789  23.630  55.788  1.00  0.00     0.001 A 
HETATM    2  C   UNL     1       7.501  24.943  56.178  1.00  0.00     0.014 A 
HETATM    3  C   UNL     1       6.818  25.796  55.288  1.00  0.00     0.000 A 
HETATM    4  C   UNL     1       6.449  25.298  54.034  1.00  0.00     0.043 A 
HETATM    5  N   UNL     1       5.802  26.312  53.360  1.00  0.00    -0.358 N 
HETATM    6  H   UNL     1       5.431  26.233  52.424  1.00  0.00     0.166 HD
HETATM    7  C   UNL     1       5.742  27.418  54.155  1.00  0.00     0.020 A 
HETATM    8  C   UNL     1       6.368  27.147  55.353  1.00  0.00    -0.005 A 
HETATM    9  C   UNL     1       6.489  28.135  56.464  1.00  0.00     0.167 C 
HETATM   10  N   UNL     1       5.929  29.450  56.080  1.00  0.00    -0.346 N 
HETATM   11  C   UNL     1       6.121  30.587  56.864  1.00  0.00     0.244 C 
HETATM   12  O   UNL     1       5.433  31.603  56.724  1.00  0.00    -0.271 OA
HETATM   13  C   UNL     1       4.805  29.467  55.120  1.00  0.00     0.132 C 
HETATM   14  C   UNL     1       5.118  28.718  53.810  1.00  0.00     0.077 C 
HETATM   15  C   UNL     1       6.732  23.987  53.630  1.00  0.00     0.030 A 
HETATM   16  C   UNL     1       7.409  23.162  54.533  1.00  0.00     0.002 A 
ENDROOT
BRANCH  11  17
HETATM   17  C   UNL     1       7.208  30.552  57.941  1.00  0.00     0.278 C 
BRANCH  17  18
HETATM   18  O   UNL     1       7.148  31.744  58.714  1.00  0.00    -0.341 OA
BRANCH  18  19
HETATM   19  C   UNL     1       7.515  31.646  60.031  1.00  0.00     0.077 A 
HETATM   20  C   UNL     1       6.740  32.375  60.956  1.00  0.00    -0.001 A 
HETATM   21  C   UNL     1       7.081  32.297  62.323  1.00  0.00     0.012 A 
HETATM   22  C   UNL     1       8.167  31.538  62.754  1.00  0.00     0.001 A 
HETATM   23  C   UNL     1       8.938  30.844  61.828  1.00  0.00     0.003 A 
HETATM   24  C   UNL     1       8.615  30.899  60.471  1.00  0.00     0.037 A 
BRANCH  20  25
HETATM   25  C   UNL     1       5.551  33.198  60.498  1.00  0.00     0.144 C 
HETATM   26  S   UNL     1       4.086  32.162  60.155  1.00  0.00    -0.148 SA
HETATM   27  C   UNL     1       2.869  33.416  60.609  1.00  0.00     0.085 C 
HETATM   28  C   UNL     1       3.355  34.054  61.895  1.00  0.00     0.085 C 
HETATM   29  S   UNL     1       5.097  34.513  61.694  1.00  0.00    -0.148 SA
ENDBRANCH  20  25
ENDBRANCH  18  19
ENDBRANCH  17  18
ENDBRANCH  11  17
TORSDOF 4
ENDMDL
MODEL 9
REMARK VINA RESULT:      -8.6      4.542      7.324
REMARK  4 active torsions:
REMARK  status: ('A' for Active; 'I' for Inactive)
REMARK       I    between atoms: N_10  and  C_11 
REMARK    1  A    between atoms: C_11  and  C_12 
REMARK    2  A    between atoms: C_12  and  O_13 
REMARK    3  A    between atoms: O_13  and  C_14 
REMARK    4  A    between atoms: C_15  and  C_16 
ROOT
HETATM    1  C   UNL     1       4.330  28.803  55.660  1.00  0.00     0.001 A 
HETATM    2  C   UNL     1       5.083  29.480  56.625  1.00  0.00     0.014 A 
HETATM    3  C   UNL     1       6.491  29.414  56.578  1.00  0.00     0.000 A 
HETATM    4  C   UNL     1       7.091  28.664  55.562  1.00  0.00     0.043 A 
HETATM    5  N   UNL     1       8.457  28.755  55.733  1.00  0.00    -0.358 N 
HETATM    6  H   UNL     1       9.140  28.304  55.141  1.00  0.00     0.166 HD
HETATM    7  C   UNL     1       8.727  29.547  56.809  1.00  0.00     0.020 A 
HETATM    8  C   UNL     1       7.539  29.966  57.369  1.00  0.00    -0.005 A 
HETATM    9  C   UNL     1       7.459  30.852  58.568  1.00  0.00     0.167 C 
HETATM   10  N   UNL     1       8.802  31.144  59.114  1.00  0.00    -0.346 N 
HETATM   11  C   UNL     1       8.972  31.765  60.351  1.00  0.00     0.244 C 
HETATM   12  O   UNL     1      10.047  32.275  60.685  1.00  0.00    -0.271 OA
HETATM   13  C   UNL     1       9.937  31.189  58.168  1.00  0.00     0.132 C 
HETATM   14  C   UNL     1      10.071  29.908  57.322  1.00  0.00     0.077 C 
HETATM   15  C   UNL     1       6.350  27.979  54.591  1.00  0.00     0.030 A 
HETATM   16  C   UNL     1       4.957  28.064  54.659  1.00  0.00     0.002 A 
ENDROOT
BRANCH  11  17
HETATM   17  C   UNL     1       7.777  31.827  61.304  1.00  0.00     0.278 C 
BRANCH  17  18
HETATM   18  O   UNL     1       7.523  33.180  61.660  1.00  0.00    -0.341 OA
BRANCH  18  19
HETATM   19  C   UNL     1       6.991  33.403  62.903  1.00  0.00     0.077 A 
HETATM   20  C   UNL     1       5.672  33.895  62.944  1.00  0.00    -0.001 A 
HETATM   21  C   UNL     1       5.084  34.133  64.205  1.00  0.00     0.012 A 
HETATM   22  C   UNL     1       5.793  33.911  65.385  1.00  0.00     0.001 A 
HETATM   23  C   UNL     1       7.103  33.449  65.328  1.00  0.00     0.003 A 
HETATM   24  C   UNL     1       7.702  33.198  64.093  1.00  0.00     0.037 A 
BRANCH  20  25
HETATM   25  C   UNL     1       4.888  34.133  61.666  1.00  0.00     0.144 C 
HETATM   26  S   UNL     1       3.693  32.793  61.331  1.00  0.00    -0.148 SA
HETATM   27  C   UNL     1       2.486  33.837  60.487  1.00  0.00     0.085 C 
HETATM   28  C   UNL     1       2.352  35.104  61.307  1.00  0.00     0.085 C 
HETATM   29  S   UNL     1       4.010  35.744  61.663  1.00  0.00    -0.148 SA
ENDBRANCH  20  25
ENDBRANCH  18  19
ENDBRANCH  17  18
ENDBRANCH  11  17
TORSDOF 4
ENDMDL
MODEL 10
REMARK VINA RESULT:      -8.5      4.063      9.542
REMARK  4 active torsions:
REMARK  status: ('A' for Active; 'I' for Inactive)
REMARK       I    between atoms: N_10  and  C_11 
REMARK    1  A    between atoms: C_11  and  C_12 
REMARK    2  A    between atoms: C_12  and  O_13 
REMARK    3  A    between atoms: O_13  and  C_14 
REMARK    4  A    between atoms: C_15  and  C_16 
ROOT
HETATM    1  C   UNL     1       7.576  32.867  64.146  1.00  0.00     0.001 A 
HETATM    2  C   UNL     1       7.120  32.498  62.875  1.00  0.00     0.014 A 
HETATM    3  C   UNL     1       6.217  33.337  62.192  1.00  0.00     0.000 A 
HETATM    4  C   UNL     1       5.802  34.519  62.814  1.00  0.00     0.043 A 
HETATM    5  N   UNL     1       4.931  35.155  61.954  1.00  0.00    -0.358 N 
HETATM    6  H   UNL     1       4.471  36.033  62.150  1.00  0.00     0.166 HD
HETATM    7  C   UNL     1       4.803  34.420  60.813  1.00  0.00     0.020 A 
HETATM    8  C   UNL     1       5.573  33.281  60.923  1.00  0.00    -0.005 A 
HETATM    9  C   UNL     1       5.671  32.245  59.853  1.00  0.00     0.167 C 
HETATM   10  N   UNL     1       4.780  32.559  58.714  1.00  0.00    -0.346 N 
HETATM   11  C   UNL     1       4.535  31.636  57.698  1.00  0.00     0.244 C 
HETATM   12  O   UNL     1       4.046  31.969  56.614  1.00  0.00    -0.271 OA
HETATM   13  C   UNL     1       4.514  33.983  58.419  1.00  0.00     0.132 C 
HETATM   14  C   UNL     1       3.972  34.761  59.634  1.00  0.00     0.077 C 
HETATM   15  C   UNL     1       6.247  34.899  64.086  1.00  0.00     0.030 A 
HETATM   16  C   UNL     1       7.144  34.050  64.740  1.00  0.00     0.002 A 
ENDROOT
BRANCH  11  17
HETATM   17  C   UNL     1       4.906  30.171  57.942  1.00  0.00     0.278 C 
BRANCH  17  18
HETATM   18  O   UNL     1       5.570  29.653  56.796  1.00  0.00    -0.341 OA
BRANCH  18  19
HETATM   19  C   UNL     1       6.164  28.425  56.928  1.00  0.00     0.077 A 
HETATM   20  C   UNL     1       7.571  28.412  56.997  1.00  0.00    -0.001 A 
HETATM   21  C   UNL     1       8.223  27.168  57.139  1.00  0.00     0.012 A 
HETATM   22  C   UNL     1       7.502  25.977  57.189  1.00  0.00     0.001 A 
HETATM   23  C   UNL     1       6.115  26.003  57.095  1.00  0.00     0.003 A 
HETATM   24  C   UNL     1       5.447  27.222  56.962  1.00  0.00     0.037 A 
BRANCH  20  25
HETATM   25  C   UNL     1       8.366  29.704  56.952  1.00  0.00     0.144 C 
HETATM   26  S   UNL     1       8.688  30.373  58.621  1.00  0.00    -0.148 SA
HETATM   27  C   UNL     1      10.264  31.148  58.201  1.00  0.00     0.085 C 
HETATM   28  C   UNL     1      11.037  30.146  57.368  1.00  0.00     0.085 C 
HETATM   29  S   UNL     1       9.955  29.526  56.052  1.00  0.00    -0.148 SA
ENDBRANCH  20  25
ENDBRANCH  18  19
ENDBRANCH  17  18
ENDBRANCH  11  17
TORSDOF 4
ENDMDL
