MODEL 1
REMARK VINA RESULT:     -11.0      0.000      0.000
REMARK  7 active torsions:
REMARK  status: ('A' for Active; 'I' for Inactive)
REMARK    1  A    between atoms: C_8  and  C_9 
REMARK    2  A    between atoms: N_10  and  C_11 
REMARK    3  A    between atoms: C_14  and  S_15 
REMARK    4  A    between atoms: S_15  and  C_16 
REMARK    5  A    between atoms: C_16  and  C_17 
REMARK       I    between atoms: C_17  and  N_18 
REMARK    6  A    between atoms: N_21  and  C_22 
REMARK    7  A    between atoms: C_25  and  O_26 
ROOT
HETATM    1  C   UNL     1       5.743  32.465  60.384  1.00  0.00     0.167 A 
HETATM    2  N   UNL     1       6.962  31.808  60.447  1.00  0.00    -0.302 N 
HETATM    3  C   UNL     1       7.391  31.698  59.147  1.00  0.00     0.192 A 
HETATM    4  N   UNL     1       6.532  32.283  58.345  1.00  0.00    -0.122 NA
HETATM    5  N   UNL     1       5.506  32.761  59.115  1.00  0.00    -0.128 NA
ENDROOT
BRANCH   3   6
HETATM    6  S   UNL     1       8.735  30.763  58.593  1.00  0.00    -0.081 SA
BRANCH   6   7
HETATM    7  C   UNL     1       7.933  29.145  58.386  1.00  0.00     0.185 C 
BRANCH   7   8
HETATM    8  C   UNL     1       7.431  28.929  56.960  1.00  0.00     0.229 C 
HETATM    9  N   UNL     1       7.469  27.614  56.482  1.00  0.00    -0.348 N 
HETATM   10  C   UNL     1       6.825  27.355  55.189  1.00  0.00     0.145 C 
HETATM   11  C   UNL     1       7.593  26.436  57.355  1.00  0.00     0.145 C 
HETATM   12  C   UNL     1       7.373  26.108  54.475  1.00  0.00     0.143 C 
HETATM   13  N   UNL     1       7.356  24.942  55.382  1.00  0.00    -0.378 N 
HETATM   14  C   UNL     1       8.126  25.187  56.623  1.00  0.00     0.143 C 
HETATM   15  O   UNL     1       7.031  29.850  56.245  1.00  0.00    -0.273 OA
BRANCH  13  16
HETATM   16  C   UNL     1       7.543  23.667  54.829  1.00  0.00     0.030 A 
HETATM   17  C   UNL     1       7.596  22.489  55.593  1.00  0.00     0.032 A 
HETATM   18  C   UNL     1       7.815  21.238  55.001  1.00  0.00     0.039 A 
HETATM   19  C   UNL     1       7.990  21.151  53.627  1.00  0.00     0.065 A 
HETATM   20  C   UNL     1       7.952  22.292  52.841  1.00  0.00     0.039 A 
HETATM   21  C   UNL     1       7.734  23.536  53.442  1.00  0.00     0.032 A 
BRANCH  19  22
HETATM   22  O   UNL     1       8.214  19.958  53.009  1.00  0.00    -0.361 OA
HETATM   23  H   UNL     1       9.005  20.040  52.453  1.00  0.00     0.217 HD
ENDBRANCH  19  22
ENDBRANCH  13  16
ENDBRANCH   7   8
ENDBRANCH   6   7
ENDBRANCH   3   6
BRANCH   2  24
HETATM   24  C   UNL     1       7.571  31.288  61.653  1.00  0.00     0.094 A 
HETATM   25  C   UNL     1       9.034  31.097  61.965  1.00  0.00     0.028 A 
HETATM   26  C   UNL     1       8.277  32.214  62.621  1.00  0.00     0.028 A 
ENDBRANCH   2  24
BRANCH   1  27
HETATM   27  C   UNL     1       4.796  32.867  61.477  1.00  0.00     0.040 A 
HETATM   28  C   UNL     1       4.935  34.021  62.322  1.00  0.00     0.006 A 
HETATM   29  C   UNL     1       5.888  35.057  62.444  1.00  0.00     0.014 A 
HETATM   30  C   UNL     1       3.841  34.036  63.191  1.00  0.00     0.043 A 
HETATM   31  C   UNL     1       5.715  36.054  63.412  1.00  0.00     0.001 A 
HETATM   32  C   UNL     1       4.608  36.039  64.254  1.00  0.00     0.002 A 
HETATM   33  C   UNL     1       3.648  35.029  64.159  1.00  0.00     0.030 A 
HETATM   34  N   UNL     1       3.074  32.936  62.893  1.00  0.00    -0.364 N 
HETATM   35  H   UNL     1       2.217  32.692  63.369  1.00  0.00     0.165 HD
HETATM   36  C   UNL     1       3.649  32.214  61.877  1.00  0.00     0.104 A 
ENDBRANCH   1  27
TORSDOF 7
ENDMDL
MODEL 2
REMARK VINA RESULT:     -10.2      1.406      2.106
REMARK  7 active torsions:
REMARK  status: ('A' for Active; 'I' for Inactive)
REMARK    1  A    between atoms: C_8  and  C_9 
REMARK    2  A    between atoms: N_10  and  C_11 
REMARK    3  A    between atoms: C_14  and  S_15 
REMARK    4  A    between atoms: S_15  and  C_16 
REMARK    5  A    between atoms: C_16  and  C_17 
REMARK       I    between atoms: C_17  and  N_18 
REMARK    6  A    between atoms: N_21  and  C_22 
REMARK    7  A    between atoms: C_25  and  O_26 
ROOT
HETATM    1  C   UNL     1       6.537  31.994  61.827  1.00  0.00     0.167 A 
HETATM    2  N   UNL     1       6.544  31.890  60.446  1.00  0.00    -0.302 N 
HETATM    3  C   UNL     1       7.692  31.203  60.132  1.00  0.00     0.192 A 
HETATM    4  N   UNL     1       8.322  30.865  61.234  1.00  0.00    -0.122 NA
HETATM    5  N   UNL     1       7.602  31.357  62.289  1.00  0.00    -0.128 NA
ENDROOT
BRANCH   3   6
HETATM    6  S   UNL     1       8.346  30.981  58.549  1.00  0.00    -0.081 SA
BRANCH   6   7
HETATM    7  C   UNL     1       7.958  29.225  58.287  1.00  0.00     0.185 C 
BRANCH   7   8
HETATM    8  C   UNL     1       7.346  28.969  56.912  1.00  0.00     0.229 C 
HETATM    9  N   UNL     1       7.397  27.649  56.446  1.00  0.00    -0.348 N 
HETATM   10  C   UNL     1       6.656  27.347  55.216  1.00  0.00     0.145 C 
HETATM   11  C   UNL     1       7.642  26.490  57.319  1.00  0.00     0.145 C 
HETATM   12  C   UNL     1       7.192  26.112  54.471  1.00  0.00     0.143 C 
HETATM   13  N   UNL     1       7.299  24.960  55.390  1.00  0.00    -0.378 N 
HETATM   14  C   UNL     1       8.160  25.252  56.558  1.00  0.00     0.143 C 
HETATM   15  O   UNL     1       6.850  29.863  56.223  1.00  0.00    -0.273 OA
BRANCH  13  16
HETATM   16  C   UNL     1       7.489  23.685  54.837  1.00  0.00     0.030 A 
HETATM   17  C   UNL     1       7.557  22.508  55.601  1.00  0.00     0.032 A 
HETATM   18  C   UNL     1       7.779  21.258  55.009  1.00  0.00     0.039 A 
HETATM   19  C   UNL     1       7.944  21.171  53.634  1.00  0.00     0.065 A 
HETATM   20  C   UNL     1       7.891  22.310  52.848  1.00  0.00     0.039 A 
HETATM   21  C   UNL     1       7.671  23.553  53.448  1.00  0.00     0.032 A 
BRANCH  19  22
HETATM   22  O   UNL     1       8.170  19.978  53.016  1.00  0.00    -0.361 OA
HETATM   23  H   UNL     1       9.116  19.911  52.809  1.00  0.00     0.217 HD
ENDBRANCH  19  22
ENDBRANCH  13  16
ENDBRANCH   7   8
ENDBRANCH   6   7
ENDBRANCH   3   6
BRANCH   2  24
HETATM   24  C   UNL     1       5.565  32.478  59.557  1.00  0.00     0.094 A 
HETATM   25  C   UNL     1       5.516  32.442  58.049  1.00  0.00     0.028 A 
HETATM   26  C   UNL     1       4.553  31.608  58.841  1.00  0.00     0.028 A 
ENDBRANCH   2  24
BRANCH   1  27
HETATM   27  C   UNL     1       5.544  32.640  62.750  1.00  0.00     0.040 A 
HETATM   28  C   UNL     1       5.841  33.193  64.042  1.00  0.00     0.006 A 
HETATM   29  C   UNL     1       7.006  33.308  64.834  1.00  0.00     0.014 A 
HETATM   30  C   UNL     1       4.648  33.703  64.562  1.00  0.00     0.043 A 
HETATM   31  C   UNL     1       6.938  33.918  66.092  1.00  0.00     0.001 A 
HETATM   32  C   UNL     1       5.732  34.420  66.572  1.00  0.00     0.002 A 
HETATM   33  C   UNL     1       4.563  34.323  65.814  1.00  0.00     0.030 A 
HETATM   34  N   UNL     1       3.668  33.463  63.630  1.00  0.00    -0.364 N 
HETATM   35  H   UNL     1       2.698  33.725  63.742  1.00  0.00     0.165 HD
HETATM   36  C   UNL     1       4.191  32.806  62.544  1.00  0.00     0.104 A 
ENDBRANCH   1  27
TORSDOF 7
ENDMDL
MODEL 3
REMARK VINA RESULT:     -10.0      2.602     11.875
REMARK  7 active torsions:
REMARK  status: ('A' for Active; 'I' for Inactive)
REMARK    1  A    between atoms: C_8  and  C_9 
REMARK    2  A    between atoms: N_10  and  C_11 
REMARK    3  A    between atoms: C_14  and  S_15 
REMARK    4  A    between atoms: S_15  and  C_16 
REMARK    5  A    between atoms: C_16  and  C_17 
REMARK       I    between atoms: C_17  and  N_18 
REMARK    6  A    between atoms: N_21  and  C_22 
REMARK    7  A    between atoms: C_25  and  O_26 
ROOT
HETATM    1  C   UNL     1       7.606  25.622  55.475  1.00  0.00     0.167 A 
HETATM    2  N   UNL     1       6.857  26.788  55.449  1.00  0.00    -0.302 N 
HETATM    3  C   UNL     1       7.087  27.401  56.657  1.00  0.00     0.192 A 
HETATM    4  N   UNL     1       7.946  26.697  57.357  1.00  0.00    -0.122 NA
HETATM    5  N   UNL     1       8.270  25.590  56.620  1.00  0.00    -0.128 NA
ENDROOT
BRANCH   3   6
HETATM    6  S   UNL     1       6.238  28.771  57.281  1.00  0.00    -0.081 SA
BRANCH   6   7
HETATM    7  C   UNL     1       7.496  30.061  57.038  1.00  0.00     0.185 C 
BRANCH   7   8
HETATM    8  C   UNL     1       8.483  30.130  58.201  1.00  0.00     0.229 C 
HETATM    9  N   UNL     1       8.061  30.836  59.334  1.00  0.00    -0.348 N 
HETATM   10  C   UNL     1       8.915  30.760  60.525  1.00  0.00     0.145 C 
HETATM   11  C   UNL     1       6.652  31.166  59.605  1.00  0.00     0.145 C 
HETATM   12  C   UNL     1       8.729  31.949  61.483  1.00  0.00     0.143 C 
HETATM   13  N   UNL     1       7.299  32.141  61.798  1.00  0.00    -0.378 N 
HETATM   14  C   UNL     1       6.480  32.347  60.582  1.00  0.00     0.143 C 
HETATM   15  O   UNL     1       9.604  29.619  58.157  1.00  0.00    -0.273 OA
BRANCH  13  16
HETATM   16  C   UNL     1       6.962  32.982  62.870  1.00  0.00     0.030 A 
HETATM   17  C   UNL     1       7.644  32.984  64.099  1.00  0.00     0.032 A 
HETATM   18  C   UNL     1       7.255  33.820  65.154  1.00  0.00     0.039 A 
HETATM   19  C   UNL     1       6.166  34.665  64.992  1.00  0.00     0.065 A 
HETATM   20  C   UNL     1       5.464  34.685  63.798  1.00  0.00     0.039 A 
HETATM   21  C   UNL     1       5.860  33.846  62.752  1.00  0.00     0.032 A 
BRANCH  19  22
HETATM   22  O   UNL     1       5.747  35.489  65.993  1.00  0.00    -0.361 OA
HETATM   23  H   UNL     1       5.542  36.359  65.613  1.00  0.00     0.217 HD
ENDBRANCH  19  22
ENDBRANCH  13  16
ENDBRANCH   7   8
ENDBRANCH   6   7
ENDBRANCH   3   6
BRANCH   2  24
HETATM   24  C   UNL     1       5.966  27.187  54.381  1.00  0.00     0.094 A 
HETATM   25  C   UNL     1       5.306  28.524  54.151  1.00  0.00     0.028 A 
HETATM   26  C   UNL     1       6.449  28.102  53.276  1.00  0.00     0.028 A 
ENDBRANCH   2  24
BRANCH   1  27
HETATM   27  C   UNL     1       7.759  24.539  54.445  1.00  0.00     0.040 A 
HETATM   28  C   UNL     1       7.781  23.128  54.713  1.00  0.00     0.006 A 
HETATM   29  C   UNL     1       7.700  22.334  55.878  1.00  0.00     0.014 A 
HETATM   30  C   UNL     1       7.927  22.474  53.487  1.00  0.00     0.043 A 
HETATM   31  C   UNL     1       7.764  20.939  55.779  1.00  0.00     0.001 A 
HETATM   32  C   UNL     1       7.902  20.323  54.538  1.00  0.00     0.002 A 
HETATM   33  C   UNL     1       7.985  21.080  53.367  1.00  0.00     0.030 A 
HETATM   34  N   UNL     1       7.997  23.444  52.518  1.00  0.00    -0.364 N 
HETATM   35  H   UNL     1       8.107  23.257  51.531  1.00  0.00     0.165 HD
HETATM   36  C   UNL     1       7.918  24.692  53.084  1.00  0.00     0.104 A 
ENDBRANCH   1  27
TORSDOF 7
ENDMDL
MODEL 4
REMARK VINA RESULT:      -9.9      3.061     11.904
REMARK  7 active torsions:
REMARK  status: ('A' for Active; 'I' for Inactive)
REMARK    1  A    between atoms: C_8  and  C_9 
REMARK    2  A    between atoms: N_10  and  C_11 
REMARK    3  A    between atoms: C_14  and  S_15 
REMARK    4  A    between atoms: S_15  and  C_16 
REMARK    5  A    between atoms: C_16  and  C_17 
REMARK       I    between atoms: C_17  and  N_18 
REMARK    6  A    between atoms: N_21  and  C_22 
REMARK    7  A    between atoms: C_25  and  O_26 
ROOT
HETATM    1  C   UNL     1       7.743  26.857  56.824  1.00  0.00     0.167 A 
HETATM    2  N   UNL     1       6.653  27.687  56.620  1.00  0.00    -0.302 N 
HETATM    3  C   UNL     1       7.022  28.912  57.122  1.00  0.00     0.192 A 
HETATM    4  N   UNL     1       8.260  28.859  57.558  1.00  0.00    -0.122 NA
HETATM    5  N   UNL     1       8.709  27.579  57.371  1.00  0.00    -0.128 NA
ENDROOT
BRANCH   3   6
HETATM    6  S   UNL     1       5.983  30.273  57.354  1.00  0.00    -0.081 SA
BRANCH   6   7
HETATM    7  C   UNL     1       6.743  31.005  58.833  1.00  0.00     0.185 C 
BRANCH   7   8
HETATM    8  C   UNL     1       6.115  32.349  59.200  1.00  0.00     0.229 C 
HETATM    9  N   UNL     1       6.060  32.657  60.564  1.00  0.00    -0.348 N 
HETATM   10  C   UNL     1       5.631  34.013  60.926  1.00  0.00     0.145 C 
HETATM   11  C   UNL     1       6.875  31.976  61.583  1.00  0.00     0.145 C 
HETATM   12  C   UNL     1       5.054  34.109  62.348  1.00  0.00     0.143 C 
HETATM   13  N   UNL     1       5.985  33.509  63.325  1.00  0.00    -0.378 N 
HETATM   14  C   UNL     1       6.297  32.097  63.008  1.00  0.00     0.143 C 
HETATM   15  O   UNL     1       5.656  33.123  58.358  1.00  0.00    -0.273 OA
BRANCH  13  16
HETATM   16  C   UNL     1       5.769  33.760  64.689  1.00  0.00     0.030 A 
HETATM   17  C   UNL     1       6.803  33.840  65.637  1.00  0.00     0.032 A 
HETATM   18  C   UNL     1       6.539  34.063  66.995  1.00  0.00     0.039 A 
HETATM   19  C   UNL     1       5.226  34.203  67.424  1.00  0.00     0.065 A 
HETATM   20  C   UNL     1       4.180  34.121  66.520  1.00  0.00     0.039 A 
HETATM   21  C   UNL     1       4.454  33.897  65.167  1.00  0.00     0.032 A 
BRANCH  19  22
HETATM   22  O   UNL     1       4.922  34.412  68.736  1.00  0.00    -0.361 OA
HETATM   23  H   UNL     1       5.108  35.340  68.952  1.00  0.00     0.217 HD
ENDBRANCH  19  22
ENDBRANCH  13  16
ENDBRANCH   7   8
ENDBRANCH   6   7
ENDBRANCH   3   6
BRANCH   2  24
HETATM   24  C   UNL     1       5.380  27.277  56.068  1.00  0.00     0.094 A 
HETATM   25  C   UNL     1       4.194  28.131  55.693  1.00  0.00     0.028 A 
HETATM   26  C   UNL     1       5.051  27.538  54.613  1.00  0.00     0.028 A 
ENDBRANCH   2  24
BRANCH   1  27
HETATM   27  C   UNL     1       7.939  25.406  56.491  1.00  0.00     0.040 A 
HETATM   28  C   UNL     1       7.908  24.840  55.171  1.00  0.00     0.006 A 
HETATM   29  C   UNL     1       7.695  25.353  53.872  1.00  0.00     0.014 A 
HETATM   30  C   UNL     1       8.146  23.470  55.299  1.00  0.00     0.043 A 
HETATM   31  C   UNL     1       7.728  24.494  52.767  1.00  0.00     0.001 A 
HETATM   32  C   UNL     1       7.975  23.135  52.935  1.00  0.00     0.002 A 
HETATM   33  C   UNL     1       8.190  22.596  54.205  1.00  0.00     0.030 A 
HETATM   34  N   UNL     1       8.306  23.211  56.638  1.00  0.00    -0.364 N 
HETATM   35  H   UNL     1       8.488  22.296  57.025  1.00  0.00     0.165 HD
HETATM   36  C   UNL     1       8.163  24.365  57.367  1.00  0.00     0.104 A 
ENDBRANCH   1  27
TORSDOF 7
ENDMDL
MODEL 5
REMARK VINA RESULT:      -9.7      1.641      2.012
REMARK  7 active torsions:
REMARK  status: ('A' for Active; 'I' for Inactive)
REMARK    1  A    between atoms: C_8  and  C_9 
REMARK    2  A    between atoms: N_10  and  C_11 
REMARK    3  A    between atoms: C_14  and  S_15 
REMARK    4  A    between atoms: S_15  and  C_16 
REMARK    5  A    between atoms: C_16  and  C_17 
REMARK       I    between atoms: C_17  and  N_18 
REMARK    6  A    between atoms: N_21  and  C_22 
REMARK    7  A    between atoms: C_25  and  O_26 
ROOT
HETATM    1  C   UNL     1       5.628  32.621  59.954  1.00  0.00     0.167 A 
HETATM    2  N   UNL     1       6.653  31.773  59.566  1.00  0.00    -0.302 N 
HETATM    3  C   UNL     1       6.194  31.127  58.444  1.00  0.00     0.192 A 
HETATM    4  N   UNL     1       4.999  31.573  58.132  1.00  0.00    -0.122 NA
HETATM    5  N   UNL     1       4.647  32.504  59.072  1.00  0.00    -0.128 NA
ENDROOT
BRANCH   3   6
HETATM    6  S   UNL     1       6.949  29.785  57.660  1.00  0.00    -0.081 SA
BRANCH   6   7
HETATM    7  C   UNL     1       5.480  28.894  57.068  1.00  0.00     0.185 C 
BRANCH   7   8
HETATM    8  C   UNL     1       5.663  28.358  55.649  1.00  0.00     0.229 C 
HETATM    9  N   UNL     1       6.078  27.026  55.538  1.00  0.00    -0.348 N 
HETATM   10  C   UNL     1       6.083  26.439  54.193  1.00  0.00     0.145 C 
HETATM   11  C   UNL     1       5.979  26.051  56.636  1.00  0.00     0.145 C 
HETATM   12  C   UNL     1       7.046  25.247  54.053  1.00  0.00     0.143 C 
HETATM   13  N   UNL     1       6.803  24.259  55.123  1.00  0.00    -0.378 N 
HETATM   14  C   UNL     1       6.934  24.851  56.474  1.00  0.00     0.143 C 
HETATM   15  O   UNL     1       5.483  29.051  54.645  1.00  0.00    -0.273 OA
BRANCH  13  16
HETATM   16  C   UNL     1       7.378  22.985  54.993  1.00  0.00     0.030 A 
HETATM   17  C   UNL     1       7.833  22.223  56.083  1.00  0.00     0.032 A 
HETATM   18  C   UNL     1       8.428  20.967  55.905  1.00  0.00     0.039 A 
HETATM   19  C   UNL     1       8.582  20.458  54.623  1.00  0.00     0.065 A 
HETATM   20  C   UNL     1       8.154  21.184  53.523  1.00  0.00     0.039 A 
HETATM   21  C   UNL     1       7.562  22.437  53.712  1.00  0.00     0.032 A 
BRANCH  19  22
HETATM   22  O   UNL     1       9.163  19.246  54.401  1.00  0.00    -0.361 OA
HETATM   23  H   UNL     1       9.902  19.365  53.783  1.00  0.00     0.217 HD
ENDBRANCH  19  22
ENDBRANCH  13  16
ENDBRANCH   7   8
ENDBRANCH   6   7
ENDBRANCH   3   6
BRANCH   2  24
HETATM   24  C   UNL     1       7.897  31.581  60.280  1.00  0.00     0.094 A 
HETATM   25  C   UNL     1       9.160  30.901  59.813  1.00  0.00     0.028 A 
HETATM   26  C   UNL     1       9.122  32.397  59.927  1.00  0.00     0.028 A 
ENDBRANCH   2  24
BRANCH   1  27
HETATM   27  C   UNL     1       5.539  33.576  61.109  1.00  0.00     0.040 A 
HETATM   28  C   UNL     1       6.238  33.448  62.357  1.00  0.00     0.006 A 
HETATM   29  C   UNL     1       7.133  32.501  62.904  1.00  0.00     0.014 A 
HETATM   30  C   UNL     1       5.889  34.547  63.146  1.00  0.00     0.043 A 
HETATM   31  C   UNL     1       7.638  32.684  64.197  1.00  0.00     0.001 A 
HETATM   32  C   UNL     1       7.272  33.796  64.950  1.00  0.00     0.002 A 
HETATM   33  C   UNL     1       6.391  34.751  64.437  1.00  0.00     0.030 A 
HETATM   34  N   UNL     1       5.010  35.306  62.413  1.00  0.00    -0.364 N 
HETATM   35  H   UNL     1       4.589  36.165  62.739  1.00  0.00     0.165 HD
HETATM   36  C   UNL     1       4.776  34.722  61.194  1.00  0.00     0.104 A 
ENDBRANCH   1  27
TORSDOF 7
ENDMDL
MODEL 6
REMARK VINA RESULT:      -9.6      2.538      4.060
REMARK  7 active torsions:
REMARK  status: ('A' for Active; 'I' for Inactive)
REMARK    1  A    between atoms: C_8  and  C_9 
REMARK    2  A    between atoms: N_10  and  C_11 
REMARK    3  A    between atoms: C_14  and  S_15 
REMARK    4  A    between atoms: S_15  and  C_16 
REMARK    5  A    between atoms: C_16  and  C_17 
REMARK       I    between atoms: C_17  and  N_18 
REMARK    6  A    between atoms: N_21  and  C_22 
REMARK    7  A    between atoms: C_25  and  O_26 
ROOT
HETATM    1  C   UNL     1       6.776  30.688  58.267  1.00  0.00     0.167 A 
HETATM    2  N   UNL     1       6.746  29.458  57.630  1.00  0.00    -0.302 N 
HETATM    3  C   UNL     1       5.614  29.472  56.850  1.00  0.00     0.192 A 
HETATM    4  N   UNL     1       5.016  30.636  56.957  1.00  0.00    -0.122 NA
HETATM    5  N   UNL     1       5.740  31.394  57.838  1.00  0.00    -0.128 NA
ENDROOT
BRANCH   3   6
HETATM    6  S   UNL     1       4.938  28.121  56.012  1.00  0.00    -0.081 SA
BRANCH   6   7
HETATM    7  C   UNL     1       4.727  28.845  54.359  1.00  0.00     0.185 C 
BRANCH   7   8
HETATM    8  C   UNL     1       5.736  28.292  53.354  1.00  0.00     0.229 C 
HETATM    9  N   UNL     1       6.123  26.959  53.533  1.00  0.00    -0.348 N 
HETATM   10  C   UNL     1       6.946  26.355  52.478  1.00  0.00     0.145 C 
HETATM   11  C   UNL     1       5.366  25.997  54.350  1.00  0.00     0.145 C 
HETATM   12  C   UNL     1       7.784  25.162  52.968  1.00  0.00     0.143 C 
HETATM   13  N   UNL     1       6.930  24.187  53.676  1.00  0.00    -0.378 N 
HETATM   14  C   UNL     1       6.212  24.796  54.819  1.00  0.00     0.143 C 
HETATM   15  O   UNL     1       6.212  28.972  52.443  1.00  0.00    -0.273 OA
BRANCH  13  16
HETATM   16  C   UNL     1       7.455  22.912  53.937  1.00  0.00     0.030 A 
HETATM   17  C   UNL     1       7.836  22.008  52.931  1.00  0.00     0.032 A 
HETATM   18  C   UNL     1       8.328  20.732  53.237  1.00  0.00     0.039 A 
HETATM   19  C   UNL     1       8.440  20.341  54.564  1.00  0.00     0.065 A 
HETATM   20  C   UNL     1       8.067  21.202  55.583  1.00  0.00     0.039 A 
HETATM   21  C   UNL     1       7.576  22.472  55.267  1.00  0.00     0.032 A 
BRANCH  19  22
HETATM   22  O   UNL     1       8.905  19.107  54.908  1.00  0.00    -0.361 OA
HETATM   23  H   UNL     1       8.466  18.445  54.351  1.00  0.00     0.217 HD
ENDBRANCH  19  22
ENDBRANCH  13  16
ENDBRANCH   7   8
ENDBRANCH   6   7
ENDBRANCH   3   6
BRANCH   2  24
HETATM   24  C   UNL     1       7.689  28.381  57.844  1.00  0.00     0.094 A 
HETATM   25  C   UNL     1       8.021  27.222  56.937  1.00  0.00     0.028 A 
HETATM   26  C   UNL     1       9.003  28.347  57.091  1.00  0.00     0.028 A 
ENDBRANCH   2  24
BRANCH   1  27
HETATM   27  C   UNL     1       7.765  31.256  59.243  1.00  0.00     0.040 A 
HETATM   28  C   UNL     1       7.473  31.655  60.592  1.00  0.00     0.006 A 
HETATM   29  C   UNL     1       6.310  31.681  61.394  1.00  0.00     0.014 A 
HETATM   30  C   UNL     1       8.665  32.113  61.158  1.00  0.00     0.043 A 
HETATM   31  C   UNL     1       6.380  32.155  62.710  1.00  0.00     0.001 A 
HETATM   32  C   UNL     1       7.588  32.596  63.240  1.00  0.00     0.002 A 
HETATM   33  C   UNL     1       8.755  32.582  62.474  1.00  0.00     0.030 A 
HETATM   34  N   UNL     1       9.638  32.005  60.194  1.00  0.00    -0.364 N 
HETATM   35  H   UNL     1      10.604  32.269  60.327  1.00  0.00     0.165 HD
HETATM   36  C   UNL     1       9.104  31.509  59.031  1.00  0.00     0.104 A 
ENDBRANCH   1  27
TORSDOF 7
ENDMDL
MODEL 7
REMARK VINA RESULT:      -9.1      2.965     11.458
REMARK  7 active torsions:
REMARK  status: ('A' for Active; 'I' for Inactive)
REMARK    1  A    between atoms: C_8  and  C_9 
REMARK    2  A    between atoms: N_10  and  C_11 
REMARK    3  A    between atoms: C_14  and  S_15 
REMARK    4  A    between atoms: S_15  and  C_16 
REMARK    5  A    between atoms: C_16  and  C_17 
REMARK       I    between atoms: C_17  and  N_18 
REMARK    6  A    between atoms: N_21  and  C_22 
REMARK    7  A    between atoms: C_25  and  O_26 
ROOT
HETATM    1  C   UNL     1       6.055  26.640  54.522  1.00  0.00     0.167 A 
HETATM    2  N   UNL     1       6.372  27.228  55.736  1.00  0.00    -0.302 N 
HETATM    3  C   UNL     1       5.316  28.054  56.035  1.00  0.00     0.192 A 
HETATM    4  N   UNL     1       4.395  27.951  55.105  1.00  0.00    -0.122 NA
HETATM    5  N   UNL     1       4.854  27.069  54.164  1.00  0.00    -0.128 NA
ENDROOT
BRANCH   3   6
HETATM    6  S   UNL     1       5.262  29.218  57.311  1.00  0.00    -0.081 SA
BRANCH   6   7
HETATM    7  C   UNL     1       5.751  30.712  56.399  1.00  0.00     0.185 C 
BRANCH   7   8
HETATM    8  C   UNL     1       5.090  31.971  56.958  1.00  0.00     0.229 C 
HETATM    9  N   UNL     1       5.444  32.330  58.263  1.00  0.00    -0.348 N 
HETATM   10  C   UNL     1       4.966  33.629  58.752  1.00  0.00     0.145 C 
HETATM   11  C   UNL     1       6.640  31.817  58.950  1.00  0.00     0.145 C 
HETATM   12  C   UNL     1       4.883  33.710  60.285  1.00  0.00     0.143 C 
HETATM   13  N   UNL     1       6.161  33.289  60.895  1.00  0.00    -0.378 N 
HETATM   14  C   UNL     1       6.553  31.921  60.487  1.00  0.00     0.143 C 
HETATM   15  O   UNL     1       4.271  32.635  56.319  1.00  0.00    -0.273 OA
BRANCH  13  16
HETATM   16  C   UNL     1       6.373  33.569  62.253  1.00  0.00     0.030 A 
HETATM   17  C   UNL     1       5.679  34.568  62.957  1.00  0.00     0.032 A 
HETATM   18  C   UNL     1       5.944  34.834  64.307  1.00  0.00     0.039 A 
HETATM   19  C   UNL     1       6.919  34.103  64.971  1.00  0.00     0.065 A 
HETATM   20  C   UNL     1       7.629  33.116  64.308  1.00  0.00     0.039 A 
HETATM   21  C   UNL     1       7.358  32.859  62.961  1.00  0.00     0.032 A 
BRANCH  19  22
HETATM   22  O   UNL     1       7.216  34.333  66.281  1.00  0.00    -0.361 OA
HETATM   23  H   UNL     1       8.089  33.955  66.472  1.00  0.00     0.217 HD
ENDBRANCH  19  22
ENDBRANCH  13  16
ENDBRANCH   7   8
ENDBRANCH   6   7
ENDBRANCH   3   6
BRANCH   2  24
HETATM   24  C   UNL     1       7.613  27.042  56.457  1.00  0.00     0.094 A 
HETATM   25  C   UNL     1       8.602  28.083  56.919  1.00  0.00     0.028 A 
HETATM   26  C   UNL     1       7.715  27.409  57.923  1.00  0.00     0.028 A 
ENDBRANCH   2  24
BRANCH   1  27
HETATM   27  C   UNL     1       6.818  25.651  53.690  1.00  0.00     0.040 A 
HETATM   28  C   UNL     1       7.180  24.321  54.094  1.00  0.00     0.006 A 
HETATM   29  C   UNL     1       7.000  23.552  55.265  1.00  0.00     0.014 A 
HETATM   30  C   UNL     1       7.867  23.733  53.029  1.00  0.00     0.043 A 
HETATM   31  C   UNL     1       7.503  22.247  55.329  1.00  0.00     0.001 A 
HETATM   32  C   UNL     1       8.176  21.694  54.243  1.00  0.00     0.002 A 
HETATM   33  C   UNL     1       8.370  22.427  53.070  1.00  0.00     0.030 A 
HETATM   34  N   UNL     1       7.927  24.668  52.023  1.00  0.00    -0.364 N 
HETATM   35  H   UNL     1       8.372  24.516  51.129  1.00  0.00     0.165 HD
HETATM   36  C   UNL     1       7.317  25.832  52.417  1.00  0.00     0.104 A 
ENDBRANCH   1  27
TORSDOF 7
ENDMDL
MODEL 8
REMARK VINA RESULT:      -9.1      1.913      2.996
REMARK  7 active torsions:
REMARK  status: ('A' for Active; 'I' for Inactive)
REMARK    1  A    between atoms: C_8  and  C_9 
REMARK    2  A    between atoms: N_10  and  C_11 
REMARK    3  A    between atoms: C_14  and  S_15 
REMARK    4  A    between atoms: S_15  and  C_16 
REMARK    5  A    between atoms: C_16  and  C_17 
REMARK       I    between atoms: C_17  and  N_18 
REMARK    6  A    between atoms: N_21  and  C_22 
REMARK    7  A    between atoms: C_25  and  O_26 
ROOT
HETATM    1  C   UNL     1       5.955  32.595  59.802  1.00  0.00     0.167 A 
HETATM    2  N   UNL     1       5.144  32.295  58.719  1.00  0.00    -0.302 N 
HETATM    3  C   UNL     1       5.898  31.485  57.905  1.00  0.00     0.192 A 
HETATM    4  N   UNL     1       7.066  31.259  58.462  1.00  0.00    -0.122 NA
HETATM    5  N   UNL     1       7.101  31.949  59.644  1.00  0.00    -0.128 NA
ENDROOT
BRANCH   3   6
HETATM    6  S   UNL     1       5.491  30.992  56.300  1.00  0.00    -0.081 SA
BRANCH   6   7
HETATM    7  C   UNL     1       5.781  29.203  56.434  1.00  0.00     0.185 C 
BRANCH   7   8
HETATM    8  C   UNL     1       5.640  28.493  55.089  1.00  0.00     0.229 C 
HETATM    9  N   UNL     1       6.077  27.164  55.040  1.00  0.00    -0.348 N 
HETATM   10  C   UNL     1       5.784  26.410  53.815  1.00  0.00     0.145 C 
HETATM   11  C   UNL     1       6.291  26.335  56.237  1.00  0.00     0.145 C 
HETATM   12  C   UNL     1       6.738  25.225  53.587  1.00  0.00     0.143 C 
HETATM   13  N   UNL     1       6.808  24.378  54.795  1.00  0.00    -0.378 N 
HETATM   14  C   UNL     1       7.234  25.140  55.991  1.00  0.00     0.143 C 
HETATM   15  O   UNL     1       5.190  29.048  54.084  1.00  0.00    -0.273 OA
BRANCH  13  16
HETATM   16  C   UNL     1       7.392  23.107  54.681  1.00  0.00     0.030 A 
HETATM   17  C   UNL     1       7.520  22.417  53.464  1.00  0.00     0.032 A 
HETATM   18  C   UNL     1       8.084  21.136  53.401  1.00  0.00     0.039 A 
HETATM   19  C   UNL     1       8.523  20.523  54.566  1.00  0.00     0.065 A 
HETATM   20  C   UNL     1       8.406  21.168  55.786  1.00  0.00     0.039 A 
HETATM   21  C   UNL     1       7.841  22.446  55.838  1.00  0.00     0.032 A 
BRANCH  19  22
HETATM   22  O   UNL     1       9.070  19.274  54.554  1.00  0.00    -0.361 OA
HETATM   23  H   UNL     1       9.737  19.236  53.850  1.00  0.00     0.217 HD
ENDBRANCH  19  22
ENDBRANCH  13  16
ENDBRANCH   7   8
ENDBRANCH   6   7
ENDBRANCH   3   6
BRANCH   2  24
HETATM   24  C   UNL     1       3.816  32.824  58.497  1.00  0.00     0.094 A 
HETATM   25  C   UNL     1       3.397  34.251  58.243  1.00  0.00     0.028 A 
HETATM   26  C   UNL     1       3.383  33.263  57.114  1.00  0.00     0.028 A 
ENDBRANCH   2  24
BRANCH   1  27
HETATM   27  C   UNL     1       5.689  33.439  61.015  1.00  0.00     0.040 A 
HETATM   28  C   UNL     1       6.409  33.370  62.256  1.00  0.00     0.006 A 
HETATM   29  C   UNL     1       7.475  32.584  62.747  1.00  0.00     0.014 A 
HETATM   30  C   UNL     1       5.857  34.326  63.112  1.00  0.00     0.043 A 
HETATM   31  C   UNL     1       7.944  32.779  64.051  1.00  0.00     0.001 A 
HETATM   32  C   UNL     1       7.373  33.747  64.872  1.00  0.00     0.002 A 
HETATM   33  C   UNL     1       6.318  34.541  64.416  1.00  0.00     0.030 A 
HETATM   34  N   UNL     1       4.841  34.944  62.425  1.00  0.00    -0.364 N 
HETATM   35  H   UNL     1       4.262  35.681  62.803  1.00  0.00     0.165 HD
HETATM   36  C   UNL     1       4.717  34.405  61.169  1.00  0.00     0.104 A 
ENDBRANCH   1  27
TORSDOF 7
ENDMDL
MODEL 9
REMARK VINA RESULT:      -9.0      3.126      4.105
REMARK  7 active torsions:
REMARK  status: ('A' for Active; 'I' for Inactive)
REMARK    1  A    between atoms: C_8  and  C_9 
REMARK    2  A    between atoms: N_10  and  C_11 
REMARK    3  A    between atoms: C_14  and  S_15 
REMARK    4  A    between atoms: S_15  and  C_16 
REMARK    5  A    between atoms: C_16  and  C_17 
REMARK       I    between atoms: C_17  and  N_18 
REMARK    6  A    between atoms: N_21  and  C_22 
REMARK    7  A    between atoms: C_25  and  O_26 
ROOT
HETATM    1  C   UNL     1       5.689  32.651  60.525  1.00  0.00     0.167 A 
HETATM    2  N   UNL     1       6.900  31.984  60.618  1.00  0.00    -0.302 N 
HETATM    3  C   UNL     1       7.358  31.866  59.328  1.00  0.00     0.192 A 
HETATM    4  N   UNL     1       6.522  32.455  58.505  1.00  0.00    -0.122 NA
HETATM    5  N   UNL     1       5.484  32.945  59.250  1.00  0.00    -0.128 NA
ENDROOT
BRANCH   3   6
HETATM    6  S   UNL     1       8.706  30.918  58.808  1.00  0.00    -0.081 SA
BRANCH   6   7
HETATM    7  C   UNL     1       7.859  29.369  58.379  1.00  0.00     0.185 C 
BRANCH   7   8
HETATM    8  C   UNL     1       8.394  28.758  57.086  1.00  0.00     0.229 C 
HETATM    9  N   UNL     1       7.518  28.749  55.994  1.00  0.00    -0.348 N 
HETATM   10  C   UNL     1       8.069  28.337  54.698  1.00  0.00     0.145 C 
HETATM   11  C   UNL     1       6.317  29.596  55.912  1.00  0.00     0.145 C 
HETATM   12  C   UNL     1       7.003  27.808  53.724  1.00  0.00     0.143 C 
HETATM   13  N   UNL     1       5.887  28.769  53.607  1.00  0.00    -0.378 N 
HETATM   14  C   UNL     1       5.264  29.066  54.917  1.00  0.00     0.143 C 
HETATM   15  O   UNL     1       9.524  28.273  56.993  1.00  0.00    -0.273 OA
BRANCH  13  16
HETATM   16  C   UNL     1       4.972  28.599  52.558  1.00  0.00     0.030 A 
HETATM   17  C   UNL     1       5.294  27.980  51.338  1.00  0.00     0.032 A 
HETATM   18  C   UNL     1       4.356  27.858  50.304  1.00  0.00     0.039 A 
HETATM   19  C   UNL     1       3.076  28.365  50.478  1.00  0.00     0.065 A 
HETATM   20  C   UNL     1       2.723  28.989  51.663  1.00  0.00     0.039 A 
HETATM   21  C   UNL     1       3.667  29.107  52.688  1.00  0.00     0.032 A 
BRANCH  19  22
HETATM   22  O   UNL     1       2.134  28.276  49.497  1.00  0.00    -0.361 OA
HETATM   23  H   UNL     1       1.745  29.156  49.362  1.00  0.00     0.217 HD
ENDBRANCH  19  22
ENDBRANCH  13  16
ENDBRANCH   7   8
ENDBRANCH   6   7
ENDBRANCH   3   6
BRANCH   2  24
HETATM   24  C   UNL     1       7.477  31.463  61.839  1.00  0.00     0.094 A 
HETATM   25  C   UNL     1       8.932  31.322  62.211  1.00  0.00     0.028 A 
HETATM   26  C   UNL     1       8.103  32.395  62.854  1.00  0.00     0.028 A 
ENDBRANCH   2  24
BRANCH   1  27
HETATM   27  C   UNL     1       4.720  33.064  61.594  1.00  0.00     0.040 A 
HETATM   28  C   UNL     1       4.850  34.219  62.439  1.00  0.00     0.006 A 
HETATM   29  C   UNL     1       5.809  35.247  62.580  1.00  0.00     0.014 A 
HETATM   30  C   UNL     1       3.736  34.246  63.282  1.00  0.00     0.043 A 
HETATM   31  C   UNL     1       5.623  36.248  63.541  1.00  0.00     0.001 A 
HETATM   32  C   UNL     1       4.496  36.245  64.358  1.00  0.00     0.002 A 
HETATM   33  C   UNL     1       3.529  35.244  64.243  1.00  0.00     0.030 A 
HETATM   34  N   UNL     1       2.967  33.152  62.970  1.00  0.00    -0.364 N 
HETATM   35  H   UNL     1       2.096  32.918  63.426  1.00  0.00     0.165 HD
HETATM   36  C   UNL     1       3.558  32.422  61.969  1.00  0.00     0.104 A 
ENDBRANCH   1  27
TORSDOF 7
ENDMDL
MODEL 10
REMARK VINA RESULT:      -9.0      3.208     12.112
REMARK  7 active torsions:
REMARK  status: ('A' for Active; 'I' for Inactive)
REMARK    1  A    between atoms: C_8  and  C_9 
REMARK    2  A    between atoms: N_10  and  C_11 
REMARK    3  A    between atoms: C_14  and  S_15 
REMARK    4  A    between atoms: S_15  and  C_16 
REMARK    5  A    between atoms: C_16  and  C_17 
REMARK       I    between atoms: C_17  and  N_18 
REMARK    6  A    between atoms: N_21  and  C_22 
REMARK    7  A    between atoms: C_25  and  O_26 
ROOT
HETATM    1  C   UNL     1       6.568  26.626  54.702  1.00  0.00     0.167 A 
HETATM    2  N   UNL     1       5.436  27.401  54.512  1.00  0.00    -0.302 N 
HETATM    3  C   UNL     1       5.370  28.233  55.604  1.00  0.00     0.192 A 
HETATM    4  N   UNL     1       6.405  28.025  56.384  1.00  0.00    -0.122 NA
HETATM    5  N   UNL     1       7.152  27.024  55.822  1.00  0.00    -0.128 NA
ENDROOT
BRANCH   3   6
HETATM    6  S   UNL     1       4.043  29.257  56.025  1.00  0.00    -0.081 SA
BRANCH   6   7
HETATM    7  C   UNL     1       4.902  30.482  57.057  1.00  0.00     0.185 C 
BRANCH   7   8
HETATM    8  C   UNL     1       3.969  31.596  57.526  1.00  0.00     0.229 C 
HETATM    9  N   UNL     1       4.274  32.183  58.760  1.00  0.00    -0.348 N 
HETATM   10  C   UNL     1       3.504  33.372  59.143  1.00  0.00     0.145 C 
HETATM   11  C   UNL     1       5.588  32.063  59.413  1.00  0.00     0.145 C 
HETATM   12  C   UNL     1       3.467  33.610  60.662  1.00  0.00     0.143 C 
HETATM   13  N   UNL     1       4.833  33.591  61.222  1.00  0.00    -0.378 N 
HETATM   14  C   UNL     1       5.540  32.323  60.932  1.00  0.00     0.143 C 
HETATM   15  O   UNL     1       2.984  31.959  56.880  1.00  0.00    -0.273 OA
BRANCH  13  16
HETATM   16  C   UNL     1       5.023  34.073  62.526  1.00  0.00     0.030 A 
HETATM   17  C   UNL     1       5.289  35.419  62.826  1.00  0.00     0.032 A 
HETATM   18  C   UNL     1       5.501  35.852  64.142  1.00  0.00     0.039 A 
HETATM   19  C   UNL     1       5.456  34.933  65.180  1.00  0.00     0.065 A 
HETATM   20  C   UNL     1       5.204  33.595  64.924  1.00  0.00     0.039 A 
HETATM   21  C   UNL     1       4.995  33.174  63.607  1.00  0.00     0.032 A 
BRANCH  19  22
HETATM   22  O   UNL     1       5.665  35.307  66.474  1.00  0.00    -0.361 OA
HETATM   23  H   UNL     1       6.617  35.437  66.609  1.00  0.00     0.217 HD
ENDBRANCH  19  22
ENDBRANCH  13  16
ENDBRANCH   7   8
ENDBRANCH   6   7
ENDBRANCH   3   6
BRANCH   2  24
HETATM   24  C   UNL     1       4.501  27.263  53.416  1.00  0.00     0.094 A 
HETATM   25  C   UNL     1       3.530  28.280  52.869  1.00  0.00     0.028 A 
HETATM   26  C   UNL     1       4.765  27.941  52.088  1.00  0.00     0.028 A 
ENDBRANCH   2  24
BRANCH   1  27
HETATM   27  C   UNL     1       7.159  25.538  53.851  1.00  0.00     0.040 A 
HETATM   28  C   UNL     1       7.370  24.178  54.261  1.00  0.00     0.006 A 
HETATM   29  C   UNL     1       7.154  23.452  55.453  1.00  0.00     0.014 A 
HETATM   30  C   UNL     1       7.924  23.496  53.174  1.00  0.00     0.043 A 
HETATM   31  C   UNL     1       7.491  22.094  55.515  1.00  0.00     0.001 A 
HETATM   32  C   UNL     1       8.034  21.448  54.408  1.00  0.00     0.002 A 
HETATM   33  C   UNL     1       8.260  22.138  53.215  1.00  0.00     0.030 A 
HETATM   34  N   UNL     1       8.051  24.404  52.151  1.00  0.00    -0.364 N 
HETATM   35  H   UNL     1       8.428  24.187  51.239  1.00  0.00     0.165 HD
HETATM   36  C   UNL     1       7.612  25.641  52.553  1.00  0.00     0.104 A 
ENDBRANCH   1  27
TORSDOF 7
ENDMDL
