MODEL 1
REMARK VINA RESULT:      -8.3      0.000      0.000
REMARK  6 active torsions:
REMARK  status: ('A' for Active; 'I' for Inactive)
REMARK    1  A    between atoms: O_2  and  C_3 
REMARK    2  A    between atoms: C_3  and  C_4 
REMARK    3  A    between atoms: C_4  and  N_5 
REMARK       I    between atoms: N_5  and  C_6 
REMARK    4  A    between atoms: C_6  and  C_7 
REMARK    5  A    between atoms: C_12  and  C_13 
REMARK    6  A    between atoms: C_21  and  C_22 
ROOT
HETATM    1  C   UNL     1       4.666  27.415  50.940  1.00  0.00     0.170 A 
HETATM    2  N   UNL     1       5.429  26.327  51.212  1.00  0.00    -0.163 NA
HETATM    3  N   UNL     1       5.429  26.262  52.554  1.00  0.00    -0.238 N 
HETATM    4  C   UNL     1       4.662  27.219  53.158  1.00  0.00     0.145 A 
HETATM    5  N   UNL     1       4.528  27.267  54.507  1.00  0.00    -0.365 N 
HETATM    6  C   UNL     1       5.394  26.489  55.387  1.00  0.00     0.118 C 
HETATM    7  C   UNL     1       5.680  25.126  54.725  1.00  0.00     0.066 C 
HETATM    8  C   UNL     1       6.156  25.224  53.262  1.00  0.00     0.221 C 
HETATM    9  C   UNL     1       4.156  27.990  52.137  1.00  0.00     0.115 A 
HETATM   10 CL   UNL     1       3.152  29.349  52.301  1.00  0.00    -0.077 Cl
HETATM   11  H   UNL     1       4.057  28.061  54.943  1.00  0.00     0.162 HD
ENDROOT
BRANCH   1  12
HETATM   12  C   UNL     1       4.466  27.870  49.556  1.00  0.00     0.273 C 
HETATM   13  N   UNL     1       3.143  27.876  49.167  1.00  0.00    -0.353 N 
HETATM   14  H   UNL     1       2.494  27.433  49.813  1.00  0.00     0.162 HD
HETATM   15  O   UNL     1       5.381  28.188  48.801  1.00  0.00    -0.266 OA
BRANCH  13  16
HETATM   16  C   UNL     1       2.742  28.082  47.790  1.00  0.00     0.149 C 
BRANCH  16  17
HETATM   17  C   UNL     1       2.104  26.834  47.177  1.00  0.00     0.186 C 
BRANCH  17  18
HETATM   18  O   UNL     1       3.130  25.877  46.888  1.00  0.00    -0.394 OA
HETATM   19  C   UNL     1       3.021  24.731  47.723  1.00  0.00     0.201 C 
ENDBRANCH  17  18
ENDBRANCH  16  17
ENDBRANCH  13  16
ENDBRANCH   1  12
BRANCH   8  20
HETATM   20  C   UNL     1       7.648  25.432  53.119  1.00  0.00     0.409 C 
HETATM   21  F   UNL     1       8.020  26.725  53.115  1.00  0.00    -0.169 F 
HETATM   22  F   UNL     1       8.301  24.831  54.148  1.00  0.00    -0.169 F 
HETATM   23  F   UNL     1       8.130  24.868  51.988  1.00  0.00    -0.169 F 
ENDBRANCH   8  20
BRANCH   6  24
HETATM   24  C   UNL     1       6.624  27.259  55.849  1.00  0.00    -0.035 A 
HETATM   25  C   UNL     1       6.894  28.579  55.444  1.00  0.00     0.011 A 
HETATM   26  C   UNL     1       8.035  29.254  55.890  1.00  0.00     0.024 A 
HETATM   27  C   UNL     1       8.918  28.621  56.758  1.00  0.00     0.034 A 
HETATM   28 CL   UNL     1      10.325  29.448  57.303  1.00  0.00    -0.084 Cl
HETATM   29  C   UNL     1       8.665  27.323  57.190  1.00  0.00     0.024 A 
HETATM   30  C   UNL     1       7.523  26.650  56.743  1.00  0.00     0.011 A 
ENDBRANCH   6  24
TORSDOF 6
ENDMDL
MODEL 2
REMARK VINA RESULT:      -8.1      1.267      1.874
REMARK  6 active torsions:
REMARK  status: ('A' for Active; 'I' for Inactive)
REMARK    1  A    between atoms: O_2  and  C_3 
REMARK    2  A    between atoms: C_3  and  C_4 
REMARK    3  A    between atoms: C_4  and  N_5 
REMARK       I    between atoms: N_5  and  C_6 
REMARK    4  A    between atoms: C_6  and  C_7 
REMARK    5  A    between atoms: C_12  and  C_13 
REMARK    6  A    between atoms: C_21  and  C_22 
ROOT
HETATM    1  C   UNL     1       4.915  26.527  51.069  1.00  0.00     0.170 A 
HETATM    2  N   UNL     1       5.569  25.468  51.610  1.00  0.00    -0.163 NA
HETATM    3  N   UNL     1       5.547  25.718  52.929  1.00  0.00    -0.238 N 
HETATM    4  C   UNL     1       4.866  26.854  53.270  1.00  0.00     0.145 A 
HETATM    5  N   UNL     1       4.720  27.226  54.567  1.00  0.00    -0.365 N 
HETATM    6  C   UNL     1       5.499  26.602  55.631  1.00  0.00     0.118 C 
HETATM    7  C   UNL     1       5.663  25.102  55.312  1.00  0.00     0.066 C 
HETATM    8  C   UNL     1       6.164  24.813  53.882  1.00  0.00     0.221 C 
HETATM    9  C   UNL     1       4.447  27.408  52.083  1.00  0.00     0.115 A 
HETATM   10 CL   UNL     1       3.573  28.850  51.894  1.00  0.00    -0.077 Cl
HETATM   11  H   UNL     1       4.321  28.138  54.792  1.00  0.00     0.162 HD
ENDROOT
BRANCH   1  12
HETATM   12  C   UNL     1       4.775  26.662  49.611  1.00  0.00     0.273 C 
HETATM   13  N   UNL     1       5.521  27.696  49.083  1.00  0.00    -0.353 N 
HETATM   14  H   UNL     1       5.947  28.321  49.764  1.00  0.00     0.162 HD
HETATM   15  O   UNL     1       4.047  25.951  48.924  1.00  0.00    -0.266 OA
BRANCH  13  16
HETATM   16  C   UNL     1       5.368  28.140  47.713  1.00  0.00     0.149 C 
BRANCH  16  17
HETATM   17  C   UNL     1       4.287  29.213  47.566  1.00  0.00     0.186 C 
BRANCH  17  18
HETATM   18  O   UNL     1       3.080  28.600  47.097  1.00  0.00    -0.394 OA
HETATM   19  C   UNL     1       2.008  28.797  48.012  1.00  0.00     0.201 C 
ENDBRANCH  17  18
ENDBRANCH  16  17
ENDBRANCH  13  16
ENDBRANCH   1  12
BRANCH   8  20
HETATM   20  C   UNL     1       7.671  24.849  53.746  1.00  0.00     0.409 C 
HETATM   21  F   UNL     1       8.327  24.639  54.901  1.00  0.00    -0.169 F 
HETATM   22  F   UNL     1       8.081  23.893  52.873  1.00  0.00    -0.169 F 
HETATM   23  F   UNL     1       8.104  26.028  53.242  1.00  0.00    -0.169 F 
ENDBRANCH   8  20
BRANCH   6  24
HETATM   24  C   UNL     1       6.790  27.345  55.944  1.00  0.00    -0.035 A 
HETATM   25  C   UNL     1       7.606  27.029  57.045  1.00  0.00     0.011 A 
HETATM   26  C   UNL     1       8.786  27.734  57.299  1.00  0.00     0.024 A 
HETATM   27  C   UNL     1       9.175  28.762  56.446  1.00  0.00     0.034 A 
HETATM   28 CL   UNL     1      10.623  29.635  56.760  1.00  0.00    -0.084 Cl
HETATM   29  C   UNL     1       8.398  29.083  55.338  1.00  0.00     0.024 A 
HETATM   30  C   UNL     1       7.218  28.375  55.086  1.00  0.00     0.011 A 
ENDBRANCH   6  24
TORSDOF 6
ENDMDL
MODEL 3
REMARK VINA RESULT:      -7.6      9.196     11.582
REMARK  6 active torsions:
REMARK  status: ('A' for Active; 'I' for Inactive)
REMARK    1  A    between atoms: O_2  and  C_3 
REMARK    2  A    between atoms: C_3  and  C_4 
REMARK    3  A    between atoms: C_4  and  N_5 
REMARK       I    between atoms: N_5  and  C_6 
REMARK    4  A    between atoms: C_6  and  C_7 
REMARK    5  A    between atoms: C_12  and  C_13 
REMARK    6  A    between atoms: C_21  and  C_22 
ROOT
HETATM    1  C   UNL     1       6.960  31.868  60.057  1.00  0.00     0.170 A 
HETATM    2  N   UNL     1       7.082  31.638  61.389  1.00  0.00    -0.163 NA
HETATM    3  N   UNL     1       6.071  32.339  61.929  1.00  0.00    -0.238 N 
HETATM    4  C   UNL     1       5.274  32.965  61.012  1.00  0.00     0.145 A 
HETATM    5  N   UNL     1       4.188  33.684  61.395  1.00  0.00    -0.365 N 
HETATM    6  C   UNL     1       3.972  34.053  62.790  1.00  0.00     0.118 C 
HETATM    7  C   UNL     1       4.437  32.889  63.689  1.00  0.00     0.066 C 
HETATM    8  C   UNL     1       5.852  32.368  63.364  1.00  0.00     0.221 C 
HETATM    9  C   UNL     1       5.827  32.684  59.784  1.00  0.00     0.115 A 
HETATM   10 CL   UNL     1       5.268  33.227  58.276  1.00  0.00    -0.077 Cl
HETATM   11  H   UNL     1       3.683  34.245  60.708  1.00  0.00     0.162 HD
ENDROOT
BRANCH   1  12
HETATM   12  C   UNL     1       7.933  31.315  59.104  1.00  0.00     0.273 C 
HETATM   13  N   UNL     1       7.610  30.049  58.663  1.00  0.00    -0.353 N 
HETATM   14  H   UNL     1       6.840  29.598  59.152  1.00  0.00     0.162 HD
HETATM   15  O   UNL     1       8.953  31.900  58.749  1.00  0.00    -0.266 OA
BRANCH  13  16
HETATM   16  C   UNL     1       8.531  29.238  57.893  1.00  0.00     0.149 C 
BRANCH  16  17
HETATM   17  C   UNL     1       8.296  29.361  56.386  1.00  0.00     0.186 C 
BRANCH  17  18
HETATM   18  O   UNL     1       9.528  29.719  55.748  1.00  0.00    -0.394 OA
HETATM   19  C   UNL     1      10.628  29.608  56.643  1.00  0.00     0.201 C 
ENDBRANCH  17  18
ENDBRANCH  16  17
ENDBRANCH  13  16
ENDBRANCH   1  12
BRANCH   8  20
HETATM   20  C   UNL     1       6.958  33.139  64.052  1.00  0.00     0.409 C 
HETATM   21  F   UNL     1       6.629  33.584  65.279  1.00  0.00    -0.169 F 
HETATM   22  F   UNL     1       8.054  32.350  64.194  1.00  0.00    -0.169 F 
HETATM   23  F   UNL     1       7.356  34.208  63.326  1.00  0.00    -0.169 F 
ENDBRANCH   8  20
BRANCH   6  24
HETATM   24  C   UNL     1       4.546  35.418  63.144  1.00  0.00    -0.035 A 
HETATM   25  C   UNL     1       4.491  35.955  64.442  1.00  0.00     0.011 A 
HETATM   26  C   UNL     1       5.031  37.213  64.729  1.00  0.00     0.024 A 
HETATM   27  C   UNL     1       5.645  37.949  63.722  1.00  0.00     0.034 A 
HETATM   28 CL   UNL     1       6.304  39.498  64.072  1.00  0.00    -0.084 Cl
HETATM   29  C   UNL     1       5.731  37.433  62.433  1.00  0.00     0.024 A 
HETATM   30  C   UNL     1       5.191  36.174  62.148  1.00  0.00     0.011 A 
ENDBRANCH   6  24
TORSDOF 6
ENDMDL
MODEL 4
REMARK VINA RESULT:      -7.2      4.128      7.895
REMARK  6 active torsions:
REMARK  status: ('A' for Active; 'I' for Inactive)
REMARK    1  A    between atoms: O_2  and  C_3 
REMARK    2  A    between atoms: C_3  and  C_4 
REMARK    3  A    between atoms: C_4  and  N_5 
REMARK       I    between atoms: N_5  and  C_6 
REMARK    4  A    between atoms: C_6  and  C_7 
REMARK    5  A    between atoms: C_12  and  C_13 
REMARK    6  A    between atoms: C_21  and  C_22 
ROOT
HETATM    1  C   UNL     1       5.252  26.106  51.499  1.00  0.00     0.170 A 
HETATM    2  N   UNL     1       4.939  25.600  50.279  1.00  0.00    -0.163 NA
HETATM    3  N   UNL     1       4.949  26.675  49.474  1.00  0.00    -0.238 N 
HETATM    4  C   UNL     1       5.305  27.837  50.100  1.00  0.00     0.145 A 
HETATM    5  N   UNL     1       5.398  29.006  49.416  1.00  0.00    -0.365 N 
HETATM    6  C   UNL     1       4.869  29.142  48.063  1.00  0.00     0.118 C 
HETATM    7  C   UNL     1       5.110  27.824  47.300  1.00  0.00     0.066 C 
HETATM    8  C   UNL     1       4.647  26.563  48.058  1.00  0.00     0.221 C 
HETATM    9  C   UNL     1       5.503  27.504  51.420  1.00  0.00     0.115 A 
HETATM   10 CL   UNL     1       5.936  28.563  52.674  1.00  0.00    -0.077 Cl
HETATM   11  H   UNL     1       5.539  29.880  49.923  1.00  0.00     0.162 HD
ENDROOT
BRANCH   1  12
HETATM   12  C   UNL     1       5.285  25.243  52.689  1.00  0.00     0.273 C 
HETATM   13  N   UNL     1       6.563  24.911  53.089  1.00  0.00    -0.353 N 
HETATM   14  H   UNL     1       7.305  25.169  52.444  1.00  0.00     0.162 HD
HETATM   15  O   UNL     1       4.281  24.827  53.261  1.00  0.00    -0.266 OA
BRANCH  13  16
HETATM   16  C   UNL     1       6.820  23.905  54.100  1.00  0.00     0.149 C 
BRANCH  16  17
HETATM   17  C   UNL     1       8.031  23.034  53.759  1.00  0.00     0.186 C 
BRANCH  17  18
HETATM   18  O   UNL     1       7.613  21.967  52.899  1.00  0.00    -0.394 OA
HETATM   19  C   UNL     1       8.170  20.723  53.306  1.00  0.00     0.201 C 
ENDBRANCH  17  18
ENDBRANCH  16  17
ENDBRANCH  13  16
ENDBRANCH   1  12
BRANCH   8  20
HETATM   20  C   UNL     1       3.184  26.233  47.854  1.00  0.00     0.409 C 
HETATM   21  F   UNL     1       2.902  24.922  47.957  1.00  0.00    -0.169 F 
HETATM   22  F   UNL     1       2.428  26.879  48.781  1.00  0.00    -0.169 F 
HETATM   23  F   UNL     1       2.736  26.650  46.648  1.00  0.00    -0.169 F 
ENDBRANCH   8  20
BRANCH   6  24
HETATM   24  C   UNL     1       3.437  29.660  48.030  1.00  0.00    -0.035 A 
HETATM   25  C   UNL     1       2.720  29.996  49.193  1.00  0.00     0.011 A 
HETATM   26  C   UNL     1       1.406  30.470  49.122  1.00  0.00     0.024 A 
HETATM   27  C   UNL     1       0.792  30.625  47.884  1.00  0.00     0.034 A 
HETATM   28 CL   UNL     1      -0.825  31.202  47.796  1.00  0.00    -0.084 Cl
HETATM   29  C   UNL     1       1.485  30.319  46.717  1.00  0.00     0.024 A 
HETATM   30  C   UNL     1       2.799  29.847  46.790  1.00  0.00     0.011 A 
ENDBRANCH   6  24
TORSDOF 6
ENDMDL
MODEL 5
REMARK VINA RESULT:      -6.8      9.512     11.745
REMARK  6 active torsions:
REMARK  status: ('A' for Active; 'I' for Inactive)
REMARK    1  A    between atoms: O_2  and  C_3 
REMARK    2  A    between atoms: C_3  and  C_4 
REMARK    3  A    between atoms: C_4  and  N_5 
REMARK       I    between atoms: N_5  and  C_6 
REMARK    4  A    between atoms: C_6  and  C_7 
REMARK    5  A    between atoms: C_12  and  C_13 
REMARK    6  A    between atoms: C_21  and  C_22 
ROOT
HETATM    1  C   UNL     1       4.776  32.589  59.686  1.00  0.00     0.170 A 
HETATM    2  N   UNL     1       5.245  32.371  60.940  1.00  0.00    -0.163 NA
HETATM    3  N   UNL     1       4.708  33.369  61.661  1.00  0.00    -0.238 N 
HETATM    4  C   UNL     1       3.875  34.186  60.949  1.00  0.00     0.145 A 
HETATM    5  N   UNL     1       3.224  35.219  61.542  1.00  0.00    -0.365 N 
HETATM    6  C   UNL     1       3.581  35.677  62.880  1.00  0.00     0.118 C 
HETATM    7  C   UNL     1       3.954  34.453  63.742  1.00  0.00     0.066 C 
HETATM    8  C   UNL     1       4.976  33.506  63.082  1.00  0.00     0.221 C 
HETATM    9  C   UNL     1       3.901  33.711  59.658  1.00  0.00     0.115 A 
HETATM   10 CL   UNL     1       3.070  34.357  58.327  1.00  0.00    -0.077 Cl
HETATM   11  H   UNL     1       2.711  35.890  60.970  1.00  0.00     0.162 HD
ENDROOT
BRANCH   1  12
HETATM   12  C   UNL     1       5.190  31.732  58.565  1.00  0.00     0.273 C 
HETATM   13  N   UNL     1       6.191  30.842  58.897  1.00  0.00    -0.353 N 
HETATM   14  H   UNL     1       6.619  30.984  59.809  1.00  0.00     0.162 HD
HETATM   15  O   UNL     1       4.720  31.810  57.433  1.00  0.00    -0.266 OA
BRANCH  13  16
HETATM   16  C   UNL     1       6.892  30.059  57.901  1.00  0.00     0.149 C 
BRANCH  16  17
HETATM   17  C   UNL     1       8.260  29.581  58.392  1.00  0.00     0.186 C 
BRANCH  17  18
HETATM   18  O   UNL     1       8.542  28.299  57.817  1.00  0.00    -0.394 OA
HETATM   19  C   UNL     1       7.354  27.539  57.633  1.00  0.00     0.201 C 
ENDBRANCH  17  18
ENDBRANCH  16  17
ENDBRANCH  13  16
ENDBRANCH   1  12
BRANCH   8  20
HETATM   20  C   UNL     1       6.417  33.911  63.310  1.00  0.00     0.409 C 
HETATM   21  F   UNL     1       6.598  34.691  64.391  1.00  0.00    -0.169 F 
HETATM   22  F   UNL     1       7.189  32.806  63.480  1.00  0.00    -0.169 F 
HETATM   23  F   UNL     1       6.932  34.568  62.246  1.00  0.00    -0.169 F 
ENDBRANCH   8  20
BRANCH   6  24
HETATM   24  C   UNL     1       4.606  36.803  62.874  1.00  0.00    -0.035 A 
HETATM   25  C   UNL     1       5.213  37.276  61.696  1.00  0.00     0.011 A 
HETATM   26  C   UNL     1       6.149  38.314  61.730  1.00  0.00     0.024 A 
HETATM   27  C   UNL     1       6.485  38.903  62.944  1.00  0.00     0.034 A 
HETATM   28 CL   UNL     1       7.641  40.176  62.988  1.00  0.00    -0.084 Cl
HETATM   29  C   UNL     1       5.886  38.469  64.122  1.00  0.00     0.024 A 
HETATM   30  C   UNL     1       4.949  37.431  64.085  1.00  0.00     0.011 A 
ENDBRANCH   6  24
TORSDOF 6
ENDMDL
MODEL 6
REMARK VINA RESULT:      -6.7      3.158      4.401
REMARK  6 active torsions:
REMARK  status: ('A' for Active; 'I' for Inactive)
REMARK    1  A    between atoms: O_2  and  C_3 
REMARK    2  A    between atoms: C_3  and  C_4 
REMARK    3  A    between atoms: C_4  and  N_5 
REMARK       I    between atoms: N_5  and  C_6 
REMARK    4  A    between atoms: C_6  and  C_7 
REMARK    5  A    between atoms: C_12  and  C_13 
REMARK    6  A    between atoms: C_21  and  C_22 
ROOT
HETATM    1  C   UNL     1       4.385  28.583  53.213  1.00  0.00     0.170 A 
HETATM    2  N   UNL     1       4.410  28.178  54.508  1.00  0.00    -0.163 NA
HETATM    3  N   UNL     1       5.636  27.648  54.654  1.00  0.00    -0.238 N 
HETATM    4  C   UNL     1       6.420  27.739  53.538  1.00  0.00     0.145 A 
HETATM    5  N   UNL     1       7.698  27.283  53.535  1.00  0.00    -0.365 N 
HETATM    6  C   UNL     1       8.209  26.439  54.611  1.00  0.00     0.118 C 
HETATM    7  C   UNL     1       7.601  26.915  55.946  1.00  0.00     0.066 C 
HETATM    8  C   UNL     1       6.068  27.080  55.918  1.00  0.00     0.221 C 
HETATM    9  C   UNL     1       5.635  28.336  52.579  1.00  0.00     0.115 A 
HETATM   10 CL   UNL     1       6.081  28.677  50.978  1.00  0.00    -0.077 Cl
HETATM   11  H   UNL     1       8.221  27.244  52.660  1.00  0.00     0.162 HD
ENDROOT
BRANCH   1  12
HETATM   12  C   UNL     1       3.171  29.172  52.629  1.00  0.00     0.273 C 
HETATM   13  N   UNL     1       2.642  28.427  51.596  1.00  0.00    -0.353 N 
HETATM   14  H   UNL     1       3.223  27.659  51.267  1.00  0.00     0.162 HD
HETATM   15  O   UNL     1       2.682  30.237  52.997  1.00  0.00    -0.266 OA
BRANCH  13  16
HETATM   16  C   UNL     1       1.580  28.926  50.746  1.00  0.00     0.149 C 
BRANCH  16  17
HETATM   17  C   UNL     1       1.693  28.410  49.310  1.00  0.00     0.186 C 
BRANCH  17  18
HETATM   18  O   UNL     1       2.991  28.733  48.797  1.00  0.00    -0.394 OA
HETATM   19  C   UNL     1       3.577  27.623  48.128  1.00  0.00     0.201 C 
ENDBRANCH  17  18
ENDBRANCH  16  17
ENDBRANCH  13  16
ENDBRANCH   1  12
BRANCH   8  20
HETATM   20  C   UNL     1       5.313  25.800  56.209  1.00  0.00     0.409 C 
HETATM   21  F   UNL     1       5.992  24.930  56.978  1.00  0.00    -0.169 F 
HETATM   22  F   UNL     1       4.152  26.083  56.854  1.00  0.00    -0.169 F 
HETATM   23  F   UNL     1       4.964  25.151  55.074  1.00  0.00    -0.169 F 
ENDBRANCH   8  20
BRANCH   6  24
HETATM   24  C   UNL     1       8.063  24.951  54.324  1.00  0.00    -0.035 A 
HETATM   25  C   UNL     1       8.332  23.959  55.285  1.00  0.00     0.011 A 
HETATM   26  C   UNL     1       8.186  22.601  54.985  1.00  0.00     0.024 A 
HETATM   27  C   UNL     1       7.758  22.215  53.719  1.00  0.00     0.034 A 
HETATM   28 CL   UNL     1       7.583  20.545  53.346  1.00  0.00    -0.084 Cl
HETATM   29  C   UNL     1       7.466  23.175  52.757  1.00  0.00     0.024 A 
HETATM   30  C   UNL     1       7.611  24.533  53.059  1.00  0.00     0.011 A 
ENDBRANCH   6  24
TORSDOF 6
ENDMDL
MODEL 7
REMARK VINA RESULT:      -6.6      2.932      3.836
REMARK  6 active torsions:
REMARK  status: ('A' for Active; 'I' for Inactive)
REMARK    1  A    between atoms: O_2  and  C_3 
REMARK    2  A    between atoms: C_3  and  C_4 
REMARK    3  A    between atoms: C_4  and  N_5 
REMARK       I    between atoms: N_5  and  C_6 
REMARK    4  A    between atoms: C_6  and  C_7 
REMARK    5  A    between atoms: C_12  and  C_13 
REMARK    6  A    between atoms: C_21  and  C_22 
ROOT
HETATM    1  C   UNL     1       4.006  29.256  52.198  1.00  0.00     0.170 A 
HETATM    2  N   UNL     1       3.905  29.376  53.546  1.00  0.00    -0.163 NA
HETATM    3  N   UNL     1       5.118  29.011  53.992  1.00  0.00    -0.238 N 
HETATM    4  C   UNL     1       6.011  28.715  53.000  1.00  0.00     0.145 A 
HETATM    5  N   UNL     1       7.291  28.365  53.285  1.00  0.00    -0.365 N 
HETATM    6  C   UNL     1       7.703  28.023  54.643  1.00  0.00     0.118 C 
HETATM    7  C   UNL     1       6.953  28.936  55.634  1.00  0.00     0.066 C 
HETATM    8  C   UNL     1       5.429  28.991  55.410  1.00  0.00     0.221 C 
HETATM    9  C   UNL     1       5.318  28.857  51.820  1.00  0.00     0.115 A 
HETATM   10 CL   UNL     1       5.921  28.589  50.257  1.00  0.00    -0.077 Cl
HETATM   11  H   UNL     1       7.901  28.025  52.542  1.00  0.00     0.162 HD
ENDROOT
BRANCH   1  12
HETATM   12  C   UNL     1       2.847  29.510  51.329  1.00  0.00     0.273 C 
HETATM   13  N   UNL     1       2.483  28.418  50.568  1.00  0.00    -0.353 N 
HETATM   14  H   UNL     1       3.134  27.636  50.584  1.00  0.00     0.162 HD
HETATM   15  O   UNL     1       2.271  30.592  51.256  1.00  0.00    -0.266 OA
BRANCH  13  16
HETATM   16  C   UNL     1       1.513  28.511  49.497  1.00  0.00     0.149 C 
BRANCH  16  17
HETATM   17  C   UNL     1       2.068  28.004  48.163  1.00  0.00     0.186 C 
BRANCH  17  18
HETATM   18  O   UNL     1       1.798  26.602  48.046  1.00  0.00    -0.394 OA
HETATM   19  C   UNL     1       3.000  25.843  48.007  1.00  0.00     0.201 C 
ENDBRANCH  17  18
ENDBRANCH  16  17
ENDBRANCH  13  16
ENDBRANCH   1  12
BRANCH   8  20
HETATM   20  C   UNL     1       4.671  27.878  56.101  1.00  0.00     0.409 C 
HETATM   21  F   UNL     1       3.398  28.192  56.404  1.00  0.00    -0.169 F 
HETATM   22  F   UNL     1       4.633  26.778  55.305  1.00  0.00    -0.169 F 
HETATM   23  F   UNL     1       5.276  27.491  57.248  1.00  0.00    -0.169 F 
ENDBRANCH   8  20
BRANCH   6  24
HETATM   24  C   UNL     1       7.615  26.532  54.938  1.00  0.00    -0.035 A 
HETATM   25  C   UNL     1       7.334  25.573  53.947  1.00  0.00     0.011 A 
HETATM   26  C   UNL     1       7.263  24.212  54.256  1.00  0.00     0.024 A 
HETATM   27  C   UNL     1       7.483  23.786  55.562  1.00  0.00     0.034 A 
HETATM   28 CL   UNL     1       7.390  22.112  55.945  1.00  0.00    -0.084 Cl
HETATM   29  C   UNL     1       7.783  24.711  56.557  1.00  0.00     0.024 A 
HETATM   30  C   UNL     1       7.854  26.072  56.246  1.00  0.00     0.011 A 
ENDBRANCH   6  24
TORSDOF 6
ENDMDL
MODEL 8
REMARK VINA RESULT:      -6.2      2.129      2.745
REMARK  6 active torsions:
REMARK  status: ('A' for Active; 'I' for Inactive)
REMARK    1  A    between atoms: O_2  and  C_3 
REMARK    2  A    between atoms: C_3  and  C_4 
REMARK    3  A    between atoms: C_4  and  N_5 
REMARK       I    between atoms: N_5  and  C_6 
REMARK    4  A    between atoms: C_6  and  C_7 
REMARK    5  A    between atoms: C_12  and  C_13 
REMARK    6  A    between atoms: C_21  and  C_22 
ROOT
HETATM    1  C   UNL     1       3.723  29.029  52.369  1.00  0.00     0.170 A 
HETATM    2  N   UNL     1       4.364  27.834  52.311  1.00  0.00    -0.163 NA
HETATM    3  N   UNL     1       4.711  27.594  53.586  1.00  0.00    -0.238 N 
HETATM    4  C   UNL     1       4.280  28.544  54.470  1.00  0.00     0.145 A 
HETATM    5  N   UNL     1       4.518  28.429  55.801  1.00  0.00    -0.365 N 
HETATM    6  C   UNL     1       5.464  27.449  56.324  1.00  0.00     0.118 C 
HETATM    7  C   UNL     1       5.361  26.161  55.482  1.00  0.00     0.066 C 
HETATM    8  C   UNL     1       5.440  26.395  53.960  1.00  0.00     0.221 C 
HETATM    9  C   UNL     1       3.640  29.496  53.710  1.00  0.00     0.115 A 
HETATM   10 CL   UNL     1       2.925  30.927  54.278  1.00  0.00    -0.077 Cl
HETATM   11  H   UNL     1       4.302  29.207  56.424  1.00  0.00     0.162 HD
ENDROOT
BRANCH   1  12
HETATM   12  C   UNL     1       3.231  29.682  51.147  1.00  0.00     0.273 C 
HETATM   13  N   UNL     1       3.667  29.074  49.988  1.00  0.00    -0.353 N 
HETATM   14  H   UNL     1       4.381  28.359  50.110  1.00  0.00     0.162 HD
HETATM   15  O   UNL     1       2.526  30.687  51.145  1.00  0.00    -0.266 OA
BRANCH  13  16
HETATM   16  C   UNL     1       3.480  29.673  48.683  1.00  0.00     0.149 C 
BRANCH  16  17
HETATM   17  C   UNL     1       4.787  30.211  48.096  1.00  0.00     0.186 C 
BRANCH  17  18
HETATM   18  O   UNL     1       5.730  30.408  49.156  1.00  0.00    -0.394 OA
HETATM   19  C   UNL     1       5.935  31.791  49.418  1.00  0.00     0.201 C 
ENDBRANCH  17  18
ENDBRANCH  16  17
ENDBRANCH  13  16
ENDBRANCH   1  12
BRANCH   8  20
HETATM   20  C   UNL     1       6.855  26.449  53.424  1.00  0.00     0.409 C 
HETATM   21  F   UNL     1       7.737  25.734  54.145  1.00  0.00    -0.169 F 
HETATM   22  F   UNL     1       6.889  25.964  52.155  1.00  0.00    -0.169 F 
HETATM   23  F   UNL     1       7.321  27.717  53.354  1.00  0.00    -0.169 F 
ENDBRANCH   8  20
BRANCH   6  24
HETATM   24  C   UNL     1       6.871  28.005  56.492  1.00  0.00    -0.035 A 
HETATM   25  C   UNL     1       7.200  29.345  56.215  1.00  0.00     0.011 A 
HETATM   26  C   UNL     1       8.504  29.820  56.383  1.00  0.00     0.024 A 
HETATM   27  C   UNL     1       9.499  28.964  56.841  1.00  0.00     0.034 A 
HETATM   28 CL   UNL     1      11.105  29.545  57.042  1.00  0.00    -0.084 Cl
HETATM   29  C   UNL     1       9.198  27.639  57.142  1.00  0.00     0.024 A 
HETATM   30  C   UNL     1       7.892  27.166  56.975  1.00  0.00     0.011 A 
ENDBRANCH   6  24
TORSDOF 6
ENDMDL
MODEL 9
REMARK VINA RESULT:      -6.2      4.141      7.333
REMARK  6 active torsions:
REMARK  status: ('A' for Active; 'I' for Inactive)
REMARK    1  A    between atoms: O_2  and  C_3 
REMARK    2  A    between atoms: C_3  and  C_4 
REMARK    3  A    between atoms: C_4  and  N_5 
REMARK       I    between atoms: N_5  and  C_6 
REMARK    4  A    between atoms: C_6  and  C_7 
REMARK    5  A    between atoms: C_12  and  C_13 
REMARK    6  A    between atoms: C_21  and  C_22 
ROOT
HETATM    1  C   UNL     1       5.708  26.746  53.902  1.00  0.00     0.170 A 
HETATM    2  N   UNL     1       4.676  27.591  54.153  1.00  0.00    -0.163 NA
HETATM    3  N   UNL     1       4.199  27.885  52.933  1.00  0.00    -0.238 N 
HETATM    4  C   UNL     1       4.835  27.232  51.913  1.00  0.00     0.145 A 
HETATM    5  N   UNL     1       4.447  27.393  50.623  1.00  0.00    -0.365 N 
HETATM    6  C   UNL     1       3.531  28.459  50.229  1.00  0.00     0.118 C 
HETATM    7  C   UNL     1       2.478  28.645  51.341  1.00  0.00     0.066 C 
HETATM    8  C   UNL     1       3.075  28.787  52.756  1.00  0.00     0.221 C 
HETATM    9  C   UNL     1       5.826  26.488  52.508  1.00  0.00     0.115 A 
HETATM   10 CL   UNL     1       6.953  25.493  51.720  1.00  0.00    -0.077 Cl
HETATM   11  H   UNL     1       5.012  27.000  49.870  1.00  0.00     0.162 HD
ENDROOT
BRANCH   1  12
HETATM   12  C   UNL     1       6.547  26.232  54.996  1.00  0.00     0.273 C 
HETATM   13  N   UNL     1       6.519  24.858  55.109  1.00  0.00    -0.353 N 
HETATM   14  H   UNL     1       5.823  24.385  54.537  1.00  0.00     0.162 HD
HETATM   15  O   UNL     1       7.189  26.948  55.760  1.00  0.00    -0.266 OA
BRANCH  13  16
HETATM   16  C   UNL     1       7.097  24.162  56.240  1.00  0.00     0.149 C 
BRANCH  16  17
HETATM   17  C   UNL     1       8.485  23.599  55.931  1.00  0.00     0.186 C 
BRANCH  17  18
HETATM   18  O   UNL     1       8.564  22.254  56.418  1.00  0.00    -0.394 OA
HETATM   19  C   UNL     1       7.777  21.369  55.629  1.00  0.00     0.201 C 
ENDBRANCH  17  18
ENDBRANCH  16  17
ENDBRANCH  13  16
ENDBRANCH   1  12
BRANCH   8  20
HETATM   20  C   UNL     1       3.474  30.203  53.110  1.00  0.00     0.409 C 
HETATM   21  F   UNL     1       4.777  30.468  52.910  1.00  0.00    -0.169 F 
HETATM   22  F   UNL     1       2.766  31.086  52.358  1.00  0.00    -0.169 F 
HETATM   23  F   UNL     1       3.193  30.499  54.400  1.00  0.00    -0.169 F 
ENDBRANCH   8  20
BRANCH   6  24
HETATM   24  C   UNL     1       4.245  29.730  49.791  1.00  0.00    -0.035 A 
HETATM   25  C   UNL     1       5.634  29.909  49.921  1.00  0.00     0.011 A 
HETATM   26  C   UNL     1       6.255  31.091  49.505  1.00  0.00     0.024 A 
HETATM   27  C   UNL     1       5.495  32.110  48.942  1.00  0.00     0.034 A 
HETATM   28 CL   UNL     1       6.256  33.567  48.435  1.00  0.00    -0.084 Cl
HETATM   29  C   UNL     1       4.122  31.952  48.783  1.00  0.00     0.024 A 
HETATM   30  C   UNL     1       3.503  30.769  49.198  1.00  0.00     0.011 A 
ENDBRANCH   6  24
TORSDOF 6
ENDMDL
MODEL 10
REMARK VINA RESULT:      -6.1      3.940      7.586
REMARK  6 active torsions:
REMARK  status: ('A' for Active; 'I' for Inactive)
REMARK    1  A    between atoms: O_2  and  C_3 
REMARK    2  A    between atoms: C_3  and  C_4 
REMARK    3  A    between atoms: C_4  and  N_5 
REMARK       I    between atoms: N_5  and  C_6 
REMARK    4  A    between atoms: C_6  and  C_7 
REMARK    5  A    between atoms: C_12  and  C_13 
REMARK    6  A    between atoms: C_21  and  C_22 
ROOT
HETATM    1  C   UNL     1       5.473  26.824  53.786  1.00  0.00     0.170 A 
HETATM    2  N   UNL     1       4.460  27.702  53.997  1.00  0.00    -0.163 NA
HETATM    3  N   UNL     1       4.046  28.017  52.759  1.00  0.00    -0.238 N 
HETATM    4  C   UNL     1       4.703  27.348  51.764  1.00  0.00     0.145 A 
HETATM    5  N   UNL     1       4.377  27.528  50.459  1.00  0.00    -0.365 N 
HETATM    6  C   UNL     1       3.515  28.625  50.033  1.00  0.00     0.118 C 
HETATM    7  C   UNL     1       2.422  28.842  51.100  1.00  0.00     0.066 C 
HETATM    8  C   UNL     1       2.962  28.957  52.539  1.00  0.00     0.221 C 
HETATM    9  C   UNL     1       5.643  26.568  52.397  1.00  0.00     0.115 A 
HETATM   10 CL   UNL     1       6.769  25.540  51.652  1.00  0.00    -0.077 Cl
HETATM   11  H   UNL     1       4.961  27.119  49.729  1.00  0.00     0.162 HD
ENDROOT
BRANCH   1  12
HETATM   12  C   UNL     1       6.246  26.278  54.912  1.00  0.00     0.273 C 
HETATM   13  N   UNL     1       6.082  26.987  56.083  1.00  0.00    -0.353 N 
HETATM   14  H   UNL     1       5.581  27.868  55.996  1.00  0.00     0.162 HD
HETATM   15  O   UNL     1       6.990  25.305  54.823  1.00  0.00    -0.266 OA
BRANCH  13  16
HETATM   16  C   UNL     1       6.907  26.754  57.251  1.00  0.00     0.149 C 
BRANCH  16  17
HETATM   17  C   UNL     1       7.565  28.037  57.764  1.00  0.00     0.186 C 
BRANCH  17  18
HETATM   18  O   UNL     1       8.955  28.023  57.415  1.00  0.00    -0.394 OA
HETATM   19  C   UNL     1       9.395  29.305  56.984  1.00  0.00     0.201 C 
ENDBRANCH  17  18
ENDBRANCH  16  17
ENDBRANCH  13  16
ENDBRANCH   1  12
BRANCH   8  20
HETATM   20  C   UNL     1       3.391  30.358  52.919  1.00  0.00     0.409 C 
HETATM   21  F   UNL     1       4.710  30.581  52.773  1.00  0.00    -0.169 F 
HETATM   22  F   UNL     1       2.744  31.267  52.145  1.00  0.00    -0.169 F 
HETATM   23  F   UNL     1       3.068  30.656  54.198  1.00  0.00    -0.169 F 
ENDBRANCH   8  20
BRANCH   6  24
HETATM   24  C   UNL     1       4.289  29.874  49.633  1.00  0.00    -0.035 A 
HETATM   25  C   UNL     1       5.674  30.010  49.836  1.00  0.00     0.011 A 
HETATM   26  C   UNL     1       6.351  31.173  49.453  1.00  0.00     0.024 A 
HETATM   27  C   UNL     1       5.653  32.214  48.851  1.00  0.00     0.034 A 
HETATM   28 CL   UNL     1       6.483  33.647  48.386  1.00  0.00    -0.084 Cl
HETATM   29  C   UNL     1       4.286  32.097  48.621  1.00  0.00     0.024 A 
HETATM   30  C   UNL     1       3.611  30.934  49.003  1.00  0.00     0.011 A 
ENDBRANCH   6  24
TORSDOF 6
ENDMDL
