MODEL 1
REMARK VINA RESULT:      -9.6      0.000      0.000
REMARK  9 active torsions:
REMARK  status: ('A' for Active; 'I' for Inactive)
REMARK    1  A    between atoms: C_2  and  N_3 
REMARK    2  A    between atoms: N_3  and  C_5 
REMARK    3  A    between atoms: N_3  and  C_33 
REMARK    4  A    between atoms: C_5  and  C_6 
REMARK    5  A    between atoms: C_6  and  N_7 
REMARK       I    between atoms: N_7  and  C_8 
REMARK    6  A    between atoms: C_8  and  C_9 
REMARK    7  A    between atoms: N_15  and  C_16 
REMARK    8  A    between atoms: C_16  and  C_17 
REMARK       I    between atoms: C_17  and  N_18 
REMARK    9  A    between atoms: N_18  and  C_19 
ROOT
HETATM    1  C   UNL     1       7.628  30.455  57.786  1.00  0.00     0.081 A 
HETATM    2  S   UNL     1       5.916  30.510  57.693  1.00  0.00    -0.063 SA
HETATM    3  C   UNL     1       5.891  29.649  56.232  1.00  0.00     0.116 A 
HETATM    4  C   UNL     1       7.157  29.324  55.802  1.00  0.00     0.075 A 
HETATM    5  C   UNL     1       7.262  28.511  54.595  1.00  0.00     0.262 A 
HETATM    6  O   UNL     1       8.337  28.128  54.141  1.00  0.00    -0.267 OA
HETATM    7  N   UNL     1       6.036  28.188  54.019  1.00  0.00    -0.299 N 
HETATM    8  C   UNL     1       4.840  28.595  54.579  1.00  0.00     0.214 A 
HETATM    9  N   UNL     1       4.716  29.327  55.639  1.00  0.00    -0.235 NA
HETATM   10  C   UNL     1       8.190  29.843  56.670  1.00  0.00    -0.021 A 
HETATM   11  C   UNL     1       9.662  29.668  56.442  1.00  0.00     0.051 C 
ENDROOT
BRANCH   7  12
HETATM   12  C   UNL     1       6.029  27.244  52.911  1.00  0.00     0.236 C 
BRANCH  12  13
HETATM   13  C   UNL     1       5.995  25.815  53.469  1.00  0.00     0.240 C 
HETATM   14  N   UNL     1       7.257  25.251  53.583  1.00  0.00    -0.326 N 
HETATM   15  H   UNL     1       8.049  25.816  53.300  1.00  0.00     0.169 HD
HETATM   16  O   UNL     1       4.929  25.254  53.711  1.00  0.00    -0.271 OA
BRANCH  14  17
HETATM   17  C   UNL     1       7.573  23.961  54.065  1.00  0.00     0.036 A 
HETATM   18  C   UNL     1       7.829  22.859  53.248  1.00  0.00     0.053 A 
HETATM   19  C   UNL     1       8.124  21.609  53.808  1.00  0.00     0.042 A 
HETATM   20 CL   UNL     1       8.413  20.290  52.727  1.00  0.00    -0.084 Cl
HETATM   21  C   UNL     1       8.177  21.438  55.198  1.00  0.00    -0.040 A 
HETATM   22  C   UNL     1       8.486  20.108  55.826  1.00  0.00     0.050 C 
HETATM   23  C   UNL     1       7.917  22.546  56.015  1.00  0.00     0.011 A 
HETATM   24  C   UNL     1       7.617  23.792  55.454  1.00  0.00     0.030 A 
ENDBRANCH  14  17
ENDBRANCH  12  13
ENDBRANCH   7  12
BRANCH   1  25
HETATM   25  C   UNL     1       8.294  31.035  58.942  1.00  0.00     0.259 C 
HETATM   26  N   UNL     1       8.147  30.332  60.129  1.00  0.00    -0.355 N 
HETATM   27  H   UNL     1       7.768  29.396  60.013  1.00  0.00     0.162 HD
HETATM   28  O   UNL     1       8.946  32.076  58.928  1.00  0.00    -0.267 OA
BRANCH  26  29
HETATM   29  C   UNL     1       9.041  30.554  61.259  1.00  0.00     0.150 C 
BRANCH  29  30
HETATM   30  C   UNL     1       8.342  30.718  62.622  1.00  0.00     0.254 C 
BRANCH  30  31
HETATM   31  N   UNL     1       7.569  32.031  62.703  1.00  0.00    -0.070 N 
HETATM   32  H   UNL     1       7.808  32.503  61.818  1.00  0.00     0.279 HD
BRANCH  31  33
HETATM   33  C   UNL     1       8.064  32.941  63.808  1.00  0.00     0.230 C 
HETATM   34  C   UNL     1       6.934  33.315  64.751  1.00  0.00     0.034 C 
ENDBRANCH  31  33
BRANCH  31  35
HETATM   35  C   UNL     1       6.063  31.896  62.681  1.00  0.00     0.230 C 
HETATM   36  C   UNL     1       5.448  32.419  61.396  1.00  0.00     0.034 C 
ENDBRANCH  31  35
ENDBRANCH  30  31
ENDBRANCH  29  30
ENDBRANCH  26  29
ENDBRANCH   1  25
TORSDOF 9
ENDMDL
MODEL 2
REMARK VINA RESULT:      -8.9      1.355      1.952
REMARK  9 active torsions:
REMARK  status: ('A' for Active; 'I' for Inactive)
REMARK    1  A    between atoms: C_2  and  N_3 
REMARK    2  A    between atoms: N_3  and  C_5 
REMARK    3  A    between atoms: N_3  and  C_33 
REMARK    4  A    between atoms: C_5  and  C_6 
REMARK    5  A    between atoms: C_6  and  N_7 
REMARK       I    between atoms: N_7  and  C_8 
REMARK    6  A    between atoms: C_8  and  C_9 
REMARK    7  A    between atoms: N_15  and  C_16 
REMARK    8  A    between atoms: C_16  and  C_17 
REMARK       I    between atoms: C_17  and  N_18 
REMARK    9  A    between atoms: N_18  and  C_19 
ROOT
HETATM    1  C   UNL     1       7.098  29.977  57.696  1.00  0.00     0.081 A 
HETATM    2  S   UNL     1       5.385  29.951  57.603  1.00  0.00    -0.063 SA
HETATM    3  C   UNL     1       5.402  29.200  56.083  1.00  0.00     0.116 A 
HETATM    4  C   UNL     1       6.683  28.972  55.633  1.00  0.00     0.075 A 
HETATM    5  C   UNL     1       6.827  28.256  54.370  1.00  0.00     0.262 A 
HETATM    6  O   UNL     1       7.920  27.962  53.892  1.00  0.00    -0.267 OA
HETATM    7  N   UNL     1       5.618  27.914  53.768  1.00  0.00    -0.299 N 
HETATM    8  C   UNL     1       4.404  28.218  54.354  1.00  0.00     0.214 A 
HETATM    9  N   UNL     1       4.244  28.863  55.465  1.00  0.00    -0.235 NA
HETATM   10  C   UNL     1       7.689  29.477  56.539  1.00  0.00    -0.021 A 
HETATM   11  C   UNL     1       9.167  29.394  56.304  1.00  0.00     0.051 C 
ENDROOT
BRANCH   7  12
HETATM   12  C   UNL     1       5.658  27.056  52.594  1.00  0.00     0.236 C 
BRANCH  12  13
HETATM   13  C   UNL     1       5.739  25.591  53.046  1.00  0.00     0.240 C 
HETATM   14  N   UNL     1       7.038  25.178  53.304  1.00  0.00    -0.326 N 
HETATM   15  H   UNL     1       7.779  25.858  53.178  1.00  0.00     0.169 HD
HETATM   16  O   UNL     1       4.735  24.886  53.093  1.00  0.00    -0.271 OA
BRANCH  14  17
HETATM   17  C   UNL     1       7.454  23.901  53.741  1.00  0.00     0.036 A 
HETATM   18  C   UNL     1       7.637  23.550  55.079  1.00  0.00     0.053 A 
HETATM   19  C   UNL     1       8.064  22.261  55.427  1.00  0.00     0.042 A 
HETATM   20 CL   UNL     1       8.281  21.911  57.107  1.00  0.00    -0.084 Cl
HETATM   21  C   UNL     1       8.312  21.295  54.443  1.00  0.00    -0.040 A 
HETATM   22  C   UNL     1       8.776  19.908  54.787  1.00  0.00     0.050 C 
HETATM   23  C   UNL     1       8.130  21.652  53.100  1.00  0.00     0.011 A 
HETATM   24  C   UNL     1       7.709  22.940  52.755  1.00  0.00     0.030 A 
ENDBRANCH  14  17
ENDBRANCH  12  13
ENDBRANCH   7  12
BRANCH   1  25
HETATM   25  C   UNL     1       7.735  30.502  58.893  1.00  0.00     0.259 C 
HETATM   26  N   UNL     1       7.266  31.734  59.327  1.00  0.00    -0.355 N 
HETATM   27  H   UNL     1       6.401  32.028  58.882  1.00  0.00     0.162 HD
HETATM   28  O   UNL     1       8.636  29.942  59.512  1.00  0.00    -0.267 OA
BRANCH  26  29
HETATM   29  C   UNL     1       7.513  32.207  60.683  1.00  0.00     0.150 C 
BRANCH  29  30
HETATM   30  C   UNL     1       6.434  33.147  61.254  1.00  0.00     0.254 C 
BRANCH  30  31
HETATM   31  N   UNL     1       6.136  32.839  62.718  1.00  0.00    -0.070 N 
HETATM   32  H   UNL     1       5.698  31.906  62.681  1.00  0.00     0.279 HD
BRANCH  31  33
HETATM   33  C   UNL     1       5.098  33.763  63.318  1.00  0.00     0.230 C 
HETATM   34  C   UNL     1       3.708  33.427  62.804  1.00  0.00     0.034 C 
ENDBRANCH  31  33
BRANCH  31  35
HETATM   35  C   UNL     1       7.352  32.666  63.601  1.00  0.00     0.230 C 
HETATM   36  C   UNL     1       7.397  33.673  64.736  1.00  0.00     0.034 C 
ENDBRANCH  31  35
ENDBRANCH  30  31
ENDBRANCH  29  30
ENDBRANCH  26  29
ENDBRANCH   1  25
TORSDOF 9
ENDMDL
MODEL 3
REMARK VINA RESULT:      -8.8      1.725      2.695
REMARK  9 active torsions:
REMARK  status: ('A' for Active; 'I' for Inactive)
REMARK    1  A    between atoms: C_2  and  N_3 
REMARK    2  A    between atoms: N_3  and  C_5 
REMARK    3  A    between atoms: N_3  and  C_33 
REMARK    4  A    between atoms: C_5  and  C_6 
REMARK    5  A    between atoms: C_6  and  N_7 
REMARK       I    between atoms: N_7  and  C_8 
REMARK    6  A    between atoms: C_8  and  C_9 
REMARK    7  A    between atoms: N_15  and  C_16 
REMARK    8  A    between atoms: C_16  and  C_17 
REMARK       I    between atoms: C_17  and  N_18 
REMARK    9  A    between atoms: N_18  and  C_19 
ROOT
HETATM    1  C   UNL     1       5.443  31.177  58.170  1.00  0.00     0.081 A 
HETATM    2  S   UNL     1       7.130  30.865  58.124  1.00  0.00    -0.063 SA
HETATM    3  C   UNL     1       6.972  29.778  56.832  1.00  0.00     0.116 A 
HETATM    4  C   UNL     1       5.662  29.636  56.433  1.00  0.00     0.075 A 
HETATM    5  C   UNL     1       5.408  28.787  55.275  1.00  0.00     0.262 A 
HETATM    6  O   UNL     1       4.286  28.618  54.806  1.00  0.00    -0.267 OA
HETATM    7  N   UNL     1       6.552  28.206  54.732  1.00  0.00    -0.299 N 
HETATM    8  C   UNL     1       7.809  28.451  55.254  1.00  0.00     0.214 A 
HETATM    9  N   UNL     1       8.064  29.187  56.287  1.00  0.00    -0.235 NA
HETATM   10  C   UNL     1       4.746  30.401  57.247  1.00  0.00    -0.021 A 
HETATM   11  C   UNL     1       3.258  30.424  57.065  1.00  0.00     0.051 C 
ENDROOT
BRANCH   7  12
HETATM   12  C   UNL     1       6.421  27.479  53.479  1.00  0.00     0.236 C 
BRANCH  12  13
HETATM   13  C   UNL     1       6.297  25.979  53.779  1.00  0.00     0.240 C 
HETATM   14  N   UNL     1       7.515  25.386  54.075  1.00  0.00    -0.326 N 
HETATM   15  H   UNL     1       8.337  25.978  54.068  1.00  0.00     0.169 HD
HETATM   16  O   UNL     1       5.217  25.402  53.687  1.00  0.00    -0.271 OA
BRANCH  14  17
HETATM   17  C   UNL     1       7.746  24.031  54.402  1.00  0.00     0.036 A 
HETATM   18  C   UNL     1       7.892  23.011  53.460  1.00  0.00     0.053 A 
HETATM   19  C   UNL     1       8.108  21.689  53.870  1.00  0.00     0.042 A 
HETATM   20 CL   UNL     1       8.262  20.480  52.641  1.00  0.00    -0.084 Cl
HETATM   21  C   UNL     1       8.189  21.360  55.230  1.00  0.00    -0.040 A 
HETATM   22  C   UNL     1       8.414  19.949  55.697  1.00  0.00     0.050 C 
HETATM   23  C   UNL     1       8.039  22.386  56.171  1.00  0.00     0.011 A 
HETATM   24  C   UNL     1       7.819  23.705  55.761  1.00  0.00     0.030 A 
ENDBRANCH  14  17
ENDBRANCH  12  13
ENDBRANCH   7  12
BRANCH   1  25
HETATM   25  C   UNL     1       4.927  32.148  59.121  1.00  0.00     0.259 C 
HETATM   26  N   UNL     1       4.251  31.616  60.209  1.00  0.00    -0.355 N 
HETATM   27  H   UNL     1       4.369  30.613  60.321  1.00  0.00     0.162 HD
HETATM   28  O   UNL     1       5.045  33.366  59.014  1.00  0.00    -0.267 OA
BRANCH  26  29
HETATM   29  C   UNL     1       4.017  32.400  61.416  1.00  0.00     0.150 C 
BRANCH  29  30
HETATM   30  C   UNL     1       4.923  32.044  62.611  1.00  0.00     0.254 C 
BRANCH  30  31
HETATM   31  N   UNL     1       6.314  32.653  62.463  1.00  0.00    -0.070 N 
HETATM   32  H   UNL     1       6.281  33.099  61.534  1.00  0.00     0.279 HD
BRANCH  31  33
HETATM   33  C   UNL     1       7.410  31.612  62.387  1.00  0.00     0.230 C 
HETATM   34  C   UNL     1       8.522  32.059  61.454  1.00  0.00     0.034 C 
ENDBRANCH  31  33
BRANCH  31  35
HETATM   35  C   UNL     1       6.633  33.775  63.425  1.00  0.00     0.230 C 
HETATM   36  C   UNL     1       7.341  33.288  64.676  1.00  0.00     0.034 C 
ENDBRANCH  31  35
ENDBRANCH  30  31
ENDBRANCH  29  30
ENDBRANCH  26  29
ENDBRANCH   1  25
TORSDOF 9
ENDMDL
MODEL 4
REMARK VINA RESULT:      -8.7      2.349      3.401
REMARK  9 active torsions:
REMARK  status: ('A' for Active; 'I' for Inactive)
REMARK    1  A    between atoms: C_2  and  N_3 
REMARK    2  A    between atoms: N_3  and  C_5 
REMARK    3  A    between atoms: N_3  and  C_33 
REMARK    4  A    between atoms: C_5  and  C_6 
REMARK    5  A    between atoms: C_6  and  N_7 
REMARK       I    between atoms: N_7  and  C_8 
REMARK    6  A    between atoms: C_8  and  C_9 
REMARK    7  A    between atoms: N_15  and  C_16 
REMARK    8  A    between atoms: C_16  and  C_17 
REMARK       I    between atoms: C_17  and  N_18 
REMARK    9  A    between atoms: N_18  and  C_19 
ROOT
HETATM    1  C   UNL     1       7.189  31.627  59.728  1.00  0.00     0.081 A 
HETATM    2  S   UNL     1       8.407  30.424  59.832  1.00  0.00    -0.063 SA
HETATM    3  C   UNL     1       7.927  29.702  58.374  1.00  0.00     0.116 A 
HETATM    4  C   UNL     1       6.852  30.349  57.807  1.00  0.00     0.075 A 
HETATM    5  C   UNL     1       6.398  29.869  56.507  1.00  0.00     0.262 A 
HETATM    6  O   UNL     1       5.475  30.393  55.889  1.00  0.00    -0.267 OA
HETATM    7  N   UNL     1       7.118  28.781  56.018  1.00  0.00    -0.299 N 
HETATM    8  C   UNL     1       8.182  28.242  56.715  1.00  0.00     0.214 A 
HETATM    9  N   UNL     1       8.599  28.637  57.875  1.00  0.00    -0.235 NA
HETATM   10  C   UNL     1       6.368  31.442  58.619  1.00  0.00    -0.021 A 
HETATM   11  C   UNL     1       5.198  32.311  58.269  1.00  0.00     0.051 C 
ENDROOT
BRANCH   7  12
HETATM   12  C   UNL     1       6.848  28.339  54.658  1.00  0.00     0.236 C 
BRANCH  12  13
HETATM   13  C   UNL     1       6.594  26.826  54.664  1.00  0.00     0.240 C 
HETATM   14  N   UNL     1       7.677  26.095  54.200  1.00  0.00    -0.326 N 
HETATM   15  H   UNL     1       8.502  26.611  53.915  1.00  0.00     0.169 HD
HETATM   16  O   UNL     1       5.503  26.368  54.993  1.00  0.00    -0.271 OA
BRANCH  14  17
HETATM   17  C   UNL     1       7.771  24.690  54.085  1.00  0.00     0.036 A 
HETATM   18  C   UNL     1       7.808  23.815  55.171  1.00  0.00     0.053 A 
HETATM   19  C   UNL     1       7.914  22.432  54.969  1.00  0.00     0.042 A 
HETATM   20 CL   UNL     1       7.970  21.416  56.368  1.00  0.00    -0.084 Cl
HETATM   21  C   UNL     1       7.979  21.896  53.676  1.00  0.00    -0.040 A 
HETATM   22  C   UNL     1       8.098  20.418  53.431  1.00  0.00     0.050 C 
HETATM   23  C   UNL     1       7.944  22.778  52.588  1.00  0.00     0.011 A 
HETATM   24  C   UNL     1       7.843  24.159  52.792  1.00  0.00     0.030 A 
ENDBRANCH  14  17
ENDBRANCH  12  13
ENDBRANCH   7  12
BRANCH   1  25
HETATM   25  C   UNL     1       7.118  32.655  60.754  1.00  0.00     0.259 C 
HETATM   26  N   UNL     1       5.841  33.085  61.082  1.00  0.00    -0.355 N 
HETATM   27  H   UNL     1       5.098  32.492  60.719  1.00  0.00     0.162 HD
HETATM   28  O   UNL     1       8.090  33.152  61.317  1.00  0.00    -0.267 OA
BRANCH  26  29
HETATM   29  C   UNL     1       5.575  33.803  62.323  1.00  0.00     0.150 C 
BRANCH  29  30
HETATM   30  C   UNL     1       5.288  32.910  63.545  1.00  0.00     0.254 C 
BRANCH  30  31
HETATM   31  N   UNL     1       4.188  33.498  64.425  1.00  0.00    -0.070 N 
HETATM   32  H   UNL     1       3.530  32.713  64.540  1.00  0.00     0.279 HD
BRANCH  31  33
HETATM   33  C   UNL     1       3.407  34.599  63.738  1.00  0.00     0.230 C 
HETATM   34  C   UNL     1       2.065  34.087  63.244  1.00  0.00     0.034 C 
ENDBRANCH  31  33
BRANCH  31  35
HETATM   35  C   UNL     1       4.612  33.865  65.830  1.00  0.00     0.230 C 
HETATM   36  C   UNL     1       3.769  34.979  66.422  1.00  0.00     0.034 C 
ENDBRANCH  31  35
ENDBRANCH  30  31
ENDBRANCH  29  30
ENDBRANCH  26  29
ENDBRANCH   1  25
TORSDOF 9
ENDMDL
MODEL 5
REMARK VINA RESULT:      -8.6      3.879     10.972
REMARK  9 active torsions:
REMARK  status: ('A' for Active; 'I' for Inactive)
REMARK    1  A    between atoms: C_2  and  N_3 
REMARK    2  A    between atoms: N_3  and  C_5 
REMARK    3  A    between atoms: N_3  and  C_33 
REMARK    4  A    between atoms: C_5  and  C_6 
REMARK    5  A    between atoms: C_6  and  N_7 
REMARK       I    between atoms: N_7  and  C_8 
REMARK    6  A    between atoms: C_8  and  C_9 
REMARK    7  A    between atoms: N_15  and  C_16 
REMARK    8  A    between atoms: C_16  and  C_17 
REMARK       I    between atoms: C_17  and  N_18 
REMARK    9  A    between atoms: N_18  and  C_19 
ROOT
HETATM    1  C   UNL     1       6.692  28.553  55.917  1.00  0.00     0.081 A 
HETATM    2  S   UNL     1       5.403  29.677  56.059  1.00  0.00    -0.063 SA
HETATM    3  C   UNL     1       6.114  30.440  57.396  1.00  0.00     0.116 A 
HETATM    4  C   UNL     1       7.310  29.857  57.749  1.00  0.00     0.075 A 
HETATM    5  C   UNL     1       8.057  30.478  58.837  1.00  0.00     0.262 A 
HETATM    6  O   UNL     1       9.153  30.068  59.211  1.00  0.00    -0.267 OA
HETATM    7  N   UNL     1       7.430  31.588  59.397  1.00  0.00    -0.299 N 
HETATM    8  C   UNL     1       6.217  32.053  58.925  1.00  0.00     0.214 A 
HETATM    9  N   UNL     1       5.525  31.517  57.972  1.00  0.00    -0.235 NA
HETATM   10  C   UNL     1       7.633  28.711  56.930  1.00  0.00    -0.021 A 
HETATM   11  C   UNL     1       8.859  27.864  57.096  1.00  0.00     0.051 C 
ENDROOT
BRANCH   7  12
HETATM   12  C   UNL     1       8.172  32.372  60.374  1.00  0.00     0.236 C 
BRANCH  12  13
HETATM   13  C   UNL     1       7.499  32.231  61.746  1.00  0.00     0.240 C 
HETATM   14  N   UNL     1       7.210  33.454  62.332  1.00  0.00    -0.326 N 
HETATM   15  H   UNL     1       7.459  34.290  61.817  1.00  0.00     0.169 HD
HETATM   16  O   UNL     1       7.318  31.127  62.253  1.00  0.00    -0.271 OA
BRANCH  14  17
HETATM   17  C   UNL     1       6.589  33.675  63.582  1.00  0.00     0.036 A 
HETATM   18  C   UNL     1       5.232  33.955  63.745  1.00  0.00     0.053 A 
HETATM   19  C   UNL     1       4.697  34.172  65.022  1.00  0.00     0.042 A 
HETATM   20 CL   UNL     1       3.008  34.530  65.138  1.00  0.00    -0.084 Cl
HETATM   21  C   UNL     1       5.508  34.108  66.163  1.00  0.00    -0.040 A 
HETATM   22  C   UNL     1       4.962  34.342  67.543  1.00  0.00     0.050 C 
HETATM   23  C   UNL     1       6.871  33.829  65.994  1.00  0.00     0.011 A 
HETATM   24  C   UNL     1       7.404  33.617  64.719  1.00  0.00     0.030 A 
ENDBRANCH  14  17
ENDBRANCH  12  13
ENDBRANCH   7  12
BRANCH   1  25
HETATM   25  C   UNL     1       6.675  27.588  54.829  1.00  0.00     0.259 C 
HETATM   26  N   UNL     1       6.468  26.269  55.206  1.00  0.00    -0.355 N 
HETATM   27  H   UNL     1       6.152  26.156  56.166  1.00  0.00     0.162 HD
HETATM   28  O   UNL     1       6.835  27.864  53.643  1.00  0.00    -0.267 OA
BRANCH  26  29
HETATM   29  C   UNL     1       6.046  25.260  54.242  1.00  0.00     0.150 C 
BRANCH  29  30
HETATM   30  C   UNL     1       6.541  23.830  54.534  1.00  0.00     0.254 C 
BRANCH  30  31
HETATM   31  N   UNL     1       8.043  23.697  54.304  1.00  0.00    -0.070 N 
HETATM   32  H   UNL     1       8.352  24.672  54.172  1.00  0.00     0.279 HD
BRANCH  31  33
HETATM   33  C   UNL     1       8.382  22.974  53.017  1.00  0.00     0.230 C 
HETATM   34  C   UNL     1       8.035  21.499  53.114  1.00  0.00     0.034 C 
ENDBRANCH  31  33
BRANCH  31  35
HETATM   35  C   UNL     1       8.835  23.192  55.490  1.00  0.00     0.230 C 
HETATM   36  C   UNL     1       8.701  24.089  56.706  1.00  0.00     0.034 C 
ENDBRANCH  31  35
ENDBRANCH  30  31
ENDBRANCH  29  30
ENDBRANCH  26  29
ENDBRANCH   1  25
TORSDOF 9
ENDMDL
MODEL 6
REMARK VINA RESULT:      -8.2      4.271     11.063
REMARK  9 active torsions:
REMARK  status: ('A' for Active; 'I' for Inactive)
REMARK    1  A    between atoms: C_2  and  N_3 
REMARK    2  A    between atoms: N_3  and  C_5 
REMARK    3  A    between atoms: N_3  and  C_33 
REMARK    4  A    between atoms: C_5  and  C_6 
REMARK    5  A    between atoms: C_6  and  N_7 
REMARK       I    between atoms: N_7  and  C_8 
REMARK    6  A    between atoms: C_8  and  C_9 
REMARK    7  A    between atoms: N_15  and  C_16 
REMARK    8  A    between atoms: C_16  and  C_17 
REMARK       I    between atoms: C_17  and  N_18 
REMARK    9  A    between atoms: N_18  and  C_19 
ROOT
HETATM    1  C   UNL     1       6.527  28.574  56.397  1.00  0.00     0.081 A 
HETATM    2  S   UNL     1       4.814  28.674  56.385  1.00  0.00    -0.063 SA
HETATM    3  C   UNL     1       4.808  30.018  57.420  1.00  0.00     0.116 A 
HETATM    4  C   UNL     1       6.081  30.393  57.786  1.00  0.00     0.075 A 
HETATM    5  C   UNL     1       6.211  31.589  58.612  1.00  0.00     0.262 A 
HETATM    6  O   UNL     1       7.297  32.039  58.966  1.00  0.00    -0.267 OA
HETATM    7  N   UNL     1       4.996  32.187  58.943  1.00  0.00    -0.299 N 
HETATM    8  C   UNL     1       3.791  31.682  58.491  1.00  0.00     0.214 A 
HETATM    9  N   UNL     1       3.644  30.617  57.770  1.00  0.00    -0.235 NA
HETATM   10  C   UNL     1       7.097  29.519  57.245  1.00  0.00    -0.021 A 
HETATM   11  C   UNL     1       8.568  29.667  57.493  1.00  0.00     0.051 C 
ENDROOT
BRANCH   7  12
HETATM   12  C   UNL     1       5.031  33.473  59.621  1.00  0.00     0.236 C 
BRANCH  12  13
HETATM   13  C   UNL     1       4.943  33.244  61.136  1.00  0.00     0.240 C 
HETATM   14  N   UNL     1       5.726  34.130  61.861  1.00  0.00    -0.326 N 
HETATM   15  H   UNL     1       6.257  34.819  61.341  1.00  0.00     0.169 HD
HETATM   16  O   UNL     1       4.286  32.316  61.600  1.00  0.00    -0.271 OA
BRANCH  14  17
HETATM   17  C   UNL     1       5.864  34.192  63.266  1.00  0.00     0.036 A 
HETATM   18  C   UNL     1       4.999  34.892  64.109  1.00  0.00     0.053 A 
HETATM   19  C   UNL     1       5.214  34.912  65.493  1.00  0.00     0.042 A 
HETATM   20 CL   UNL     1       4.107  35.816  66.468  1.00  0.00    -0.084 Cl
HETATM   21  C   UNL     1       6.296  34.228  66.064  1.00  0.00    -0.040 A 
HETATM   22  C   UNL     1       6.553  34.237  67.544  1.00  0.00     0.050 C 
HETATM   23  C   UNL     1       7.163  33.529  65.214  1.00  0.00     0.011 A 
HETATM   24  C   UNL     1       6.949  33.514  63.832  1.00  0.00     0.030 A 
ENDBRANCH  14  17
ENDBRANCH  12  13
ENDBRANCH   7  12
BRANCH   1  25
HETATM   25  C   UNL     1       7.183  27.562  55.585  1.00  0.00     0.259 C 
HETATM   26  N   UNL     1       7.362  26.330  56.198  1.00  0.00    -0.355 N 
HETATM   27  H   UNL     1       6.836  26.215  57.060  1.00  0.00     0.162 HD
HETATM   28  O   UNL     1       7.580  27.733  54.436  1.00  0.00    -0.267 OA
BRANCH  26  29
HETATM   29  C   UNL     1       7.640  25.128  55.421  1.00  0.00     0.150 C 
BRANCH  29  30
HETATM   30  C   UNL     1       7.114  23.817  56.036  1.00  0.00     0.254 C 
BRANCH  30  31
HETATM   31  N   UNL     1       7.508  22.605  55.198  1.00  0.00    -0.070 N 
HETATM   32  H   UNL     1       6.693  21.980  55.284  1.00  0.00     0.279 HD
BRANCH  31  33
HETATM   33  C   UNL     1       8.682  21.842  55.776  1.00  0.00     0.230 C 
HETATM   34  C   UNL     1       8.213  20.604  56.520  1.00  0.00     0.034 C 
ENDBRANCH  31  33
BRANCH  31  35
HETATM   35  C   UNL     1       7.648  22.864  53.714  1.00  0.00     0.230 C 
HETATM   36  C   UNL     1       7.988  21.609  52.931  1.00  0.00     0.034 C 
ENDBRANCH  31  35
ENDBRANCH  30  31
ENDBRANCH  29  30
ENDBRANCH  26  29
ENDBRANCH   1  25
TORSDOF 9
ENDMDL
MODEL 7
REMARK VINA RESULT:      -8.1      4.366     11.153
REMARK  9 active torsions:
REMARK  status: ('A' for Active; 'I' for Inactive)
REMARK    1  A    between atoms: C_2  and  N_3 
REMARK    2  A    between atoms: N_3  and  C_5 
REMARK    3  A    between atoms: N_3  and  C_33 
REMARK    4  A    between atoms: C_5  and  C_6 
REMARK    5  A    between atoms: C_6  and  N_7 
REMARK       I    between atoms: N_7  and  C_8 
REMARK    6  A    between atoms: C_8  and  C_9 
REMARK    7  A    between atoms: N_15  and  C_16 
REMARK    8  A    between atoms: C_16  and  C_17 
REMARK       I    between atoms: C_17  and  N_18 
REMARK    9  A    between atoms: N_18  and  C_19 
ROOT
HETATM    1  C   UNL     1       6.803  28.420  56.803  1.00  0.00     0.081 A 
HETATM    2  S   UNL     1       8.146  29.048  57.667  1.00  0.00    -0.063 SA
HETATM    3  C   UNL     1       7.258  30.379  58.232  1.00  0.00     0.116 A 
HETATM    4  C   UNL     1       5.961  30.366  57.773  1.00  0.00     0.075 A 
HETATM    5  C   UNL     1       5.073  31.418  58.256  1.00  0.00     0.262 A 
HETATM    6  O   UNL     1       3.887  31.484  57.946  1.00  0.00    -0.267 OA
HETATM    7  N   UNL     1       5.684  32.325  59.120  1.00  0.00    -0.299 N 
HETATM    8  C   UNL     1       7.010  32.199  59.487  1.00  0.00     0.214 A 
HETATM    9  N   UNL     1       7.824  31.285  59.065  1.00  0.00    -0.235 NA
HETATM   10  C   UNL     1       5.695  29.258  56.884  1.00  0.00    -0.021 A 
HETATM   11  C   UNL     1       4.379  29.000  56.213  1.00  0.00     0.051 C 
ENDROOT
BRANCH   7  12
HETATM   12  C   UNL     1       4.843  33.310  59.783  1.00  0.00     0.236 C 
BRANCH  12  13
HETATM   13  C   UNL     1       4.858  33.045  61.295  1.00  0.00     0.240 C 
HETATM   14  N   UNL     1       5.485  34.054  62.012  1.00  0.00    -0.326 N 
HETATM   15  H   UNL     1       5.855  34.839  61.489  1.00  0.00     0.169 HD
HETATM   16  O   UNL     1       4.407  32.002  61.761  1.00  0.00    -0.271 OA
BRANCH  14  17
HETATM   17  C   UNL     1       5.662  34.120  63.412  1.00  0.00     0.036 A 
HETATM   18  C   UNL     1       4.750  34.707  64.291  1.00  0.00     0.053 A 
HETATM   19  C   UNL     1       5.008  34.742  65.668  1.00  0.00     0.042 A 
HETATM   20 CL   UNL     1       3.836  35.501  66.688  1.00  0.00    -0.084 Cl
HETATM   21  C   UNL     1       6.181  34.183  66.195  1.00  0.00    -0.040 A 
HETATM   22  C   UNL     1       6.485  34.211  67.666  1.00  0.00     0.050 C 
HETATM   23  C   UNL     1       7.094  33.597  65.309  1.00  0.00     0.011 A 
HETATM   24  C   UNL     1       6.837  33.569  63.934  1.00  0.00     0.030 A 
ENDBRANCH  14  17
ENDBRANCH  12  13
ENDBRANCH   7  12
BRANCH   1  25
HETATM   25  C   UNL     1       6.944  27.158  56.094  1.00  0.00     0.259 C 
HETATM   26  N   UNL     1       7.279  26.066  56.881  1.00  0.00    -0.355 N 
HETATM   27  H   UNL     1       7.187  26.231  57.880  1.00  0.00     0.162 HD
HETATM   28  O   UNL     1       6.799  27.014  54.883  1.00  0.00    -0.267 OA
BRANCH  26  29
HETATM   29  C   UNL     1       7.083  24.701  56.410  1.00  0.00     0.150 C 
BRANCH  29  30
HETATM   30  C   UNL     1       8.346  24.014  55.855  1.00  0.00     0.254 C 
BRANCH  30  31
HETATM   31  N   UNL     1       8.035  22.627  55.302  1.00  0.00    -0.070 N 
HETATM   32  H   UNL     1       7.014  22.546  55.421  1.00  0.00     0.279 HD
BRANCH  31  33
HETATM   33  C   UNL     1       8.642  21.511  56.127  1.00  0.00     0.230 C 
HETATM   34  C   UNL     1       7.719  20.306  56.174  1.00  0.00     0.034 C 
ENDBRANCH  31  33
BRANCH  31  35
HETATM   35  C   UNL     1       8.271  22.456  53.817  1.00  0.00     0.230 C 
HETATM   36  C   UNL     1       7.799  23.652  53.010  1.00  0.00     0.034 C 
ENDBRANCH  31  35
ENDBRANCH  30  31
ENDBRANCH  29  30
ENDBRANCH  26  29
ENDBRANCH   1  25
TORSDOF 9
ENDMDL
MODEL 8
REMARK VINA RESULT:      -7.8      3.244      4.227
REMARK  9 active torsions:
REMARK  status: ('A' for Active; 'I' for Inactive)
REMARK    1  A    between atoms: C_2  and  N_3 
REMARK    2  A    between atoms: N_3  and  C_5 
REMARK    3  A    between atoms: N_3  and  C_33 
REMARK    4  A    between atoms: C_5  and  C_6 
REMARK    5  A    between atoms: C_6  and  N_7 
REMARK       I    between atoms: N_7  and  C_8 
REMARK    6  A    between atoms: C_8  and  C_9 
REMARK    7  A    between atoms: N_15  and  C_16 
REMARK    8  A    between atoms: C_16  and  C_17 
REMARK       I    between atoms: C_17  and  N_18 
REMARK    9  A    between atoms: N_18  and  C_19 
ROOT
HETATM    1  C   UNL     1       4.492  31.909  57.645  1.00  0.00     0.081 A 
HETATM    2  S   UNL     1       6.059  31.444  58.165  1.00  0.00    -0.063 SA
HETATM    3  C   UNL     1       6.227  30.320  56.905  1.00  0.00     0.116 A 
HETATM    4  C   UNL     1       5.114  30.280  56.097  1.00  0.00     0.075 A 
HETATM    5  C   UNL     1       5.171  29.408  54.929  1.00  0.00     0.262 A 
HETATM    6  O   UNL     1       4.254  29.321  54.117  1.00  0.00    -0.267 OA
HETATM    7  N   UNL     1       6.366  28.702  54.804  1.00  0.00    -0.299 N 
HETATM    8  C   UNL     1       7.399  28.855  55.709  1.00  0.00     0.214 A 
HETATM    9  N   UNL     1       7.372  29.610  56.760  1.00  0.00    -0.235 NA
HETATM   10  C   UNL     1       4.063  31.161  56.553  1.00  0.00    -0.021 A 
HETATM   11  C   UNL     1       2.728  31.310  55.887  1.00  0.00     0.051 C 
ENDROOT
BRANCH   7  12
HETATM   12  C   UNL     1       6.582  27.936  53.586  1.00  0.00     0.236 C 
BRANCH  12  13
HETATM   13  C   UNL     1       6.435  26.441  53.901  1.00  0.00     0.240 C 
HETATM   14  N   UNL     1       7.616  25.735  53.729  1.00  0.00    -0.326 N 
HETATM   15  H   UNL     1       8.432  26.256  53.427  1.00  0.00     0.169 HD
HETATM   16  O   UNL     1       5.345  25.961  54.205  1.00  0.00    -0.271 OA
BRANCH  14  17
HETATM   17  C   UNL     1       7.821  24.354  53.940  1.00  0.00     0.036 A 
HETATM   18  C   UNL     1       8.009  23.770  55.194  1.00  0.00     0.053 A 
HETATM   19  C   UNL     1       8.218  22.390  55.315  1.00  0.00     0.042 A 
HETATM   20 CL   UNL     1       8.459  21.748  56.903  1.00  0.00    -0.084 Cl
HETATM   21  C   UNL     1       8.238  21.564  54.183  1.00  0.00    -0.040 A 
HETATM   22  C   UNL     1       8.465  20.081  54.283  1.00  0.00     0.050 C 
HETATM   23  C   UNL     1       8.051  22.153  52.926  1.00  0.00     0.011 A 
HETATM   24  C   UNL     1       7.848  23.532  52.807  1.00  0.00     0.030 A 
ENDBRANCH  14  17
ENDBRANCH  12  13
ENDBRANCH   7  12
BRANCH   1  25
HETATM   25  C   UNL     1       3.792  32.964  58.361  1.00  0.00     0.259 C 
HETATM   26  N   UNL     1       4.120  34.259  57.985  1.00  0.00    -0.355 N 
HETATM   27  H   UNL     1       4.654  34.318  57.122  1.00  0.00     0.162 HD
HETATM   28  O   UNL     1       2.966  32.780  59.251  1.00  0.00    -0.267 OA
BRANCH  26  29
HETATM   29  C   UNL     1       3.258  35.387  58.315  1.00  0.00     0.150 C 
BRANCH  29  30
HETATM   30  C   UNL     1       3.528  36.036  59.687  1.00  0.00     0.254 C 
BRANCH  30  31
HETATM   31  N   UNL     1       2.281  36.033  60.565  1.00  0.00    -0.070 N 
HETATM   32  H   UNL     1       2.068  37.036  60.680  1.00  0.00     0.279 HD
BRANCH  31  33
HETATM   33  C   UNL     1       2.540  35.500  61.959  1.00  0.00     0.230 C 
HETATM   34  C   UNL     1       3.896  34.821  62.038  1.00  0.00     0.034 C 
ENDBRANCH  31  33
BRANCH  31  35
HETATM   35  C   UNL     1       1.044  35.440  59.928  1.00  0.00     0.230 C 
HETATM   36  C   UNL     1       0.175  34.694  60.924  1.00  0.00     0.034 C 
ENDBRANCH  31  35
ENDBRANCH  30  31
ENDBRANCH  29  30
ENDBRANCH  26  29
ENDBRANCH   1  25
TORSDOF 9
ENDMDL
MODEL 9
REMARK VINA RESULT:      -7.8      2.155      2.839
REMARK  9 active torsions:
REMARK  status: ('A' for Active; 'I' for Inactive)
REMARK    1  A    between atoms: C_2  and  N_3 
REMARK    2  A    between atoms: N_3  and  C_5 
REMARK    3  A    between atoms: N_3  and  C_33 
REMARK    4  A    between atoms: C_5  and  C_6 
REMARK    5  A    between atoms: C_6  and  N_7 
REMARK       I    between atoms: N_7  and  C_8 
REMARK    6  A    between atoms: C_8  and  C_9 
REMARK    7  A    between atoms: N_15  and  C_16 
REMARK    8  A    between atoms: C_16  and  C_17 
REMARK       I    between atoms: C_17  and  N_18 
REMARK    9  A    between atoms: N_18  and  C_19 
ROOT
HETATM    1  C   UNL     1       4.935  30.583  56.871  1.00  0.00     0.081 A 
HETATM    2  S   UNL     1       3.478  30.628  55.966  1.00  0.00    -0.063 SA
HETATM    3  C   UNL     1       4.136  29.690  54.715  1.00  0.00     0.116 A 
HETATM    4  C   UNL     1       5.446  29.347  54.961  1.00  0.00     0.075 A 
HETATM    5  C   UNL     1       6.097  28.471  53.993  1.00  0.00     0.262 A 
HETATM    6  O   UNL     1       7.249  28.067  54.129  1.00  0.00    -0.267 OA
HETATM    7  N   UNL     1       5.290  28.113  52.916  1.00  0.00    -0.299 N 
HETATM    8  C   UNL     1       3.981  28.546  52.813  1.00  0.00     0.214 A 
HETATM    9  N   UNL     1       3.381  29.333  53.648  1.00  0.00    -0.235 NA
HETATM   10  C   UNL     1       5.949  29.914  56.192  1.00  0.00    -0.021 A 
HETATM   11  C   UNL     1       7.345  29.731  56.706  1.00  0.00     0.051 C 
ENDROOT
BRANCH   7  12
HETATM   12  C   UNL     1       5.793  27.112  51.987  1.00  0.00     0.236 C 
BRANCH  12  13
HETATM   13  C   UNL     1       5.739  25.733  52.659  1.00  0.00     0.240 C 
HETATM   14  N   UNL     1       6.993  25.254  53.008  1.00  0.00    -0.326 N 
HETATM   15  H   UNL     1       7.793  25.840  52.797  1.00  0.00     0.169 HD
HETATM   16  O   UNL     1       4.676  25.133  52.788  1.00  0.00    -0.271 OA
BRANCH  14  17
HETATM   17  C   UNL     1       7.290  24.028  53.643  1.00  0.00     0.036 A 
HETATM   18  C   UNL     1       7.686  22.871  52.971  1.00  0.00     0.053 A 
HETATM   19  C   UNL     1       7.951  21.691  53.678  1.00  0.00     0.042 A 
HETATM   20 CL   UNL     1       8.421  20.296  52.769  1.00  0.00    -0.084 Cl
HETATM   21  C   UNL     1       7.832  21.645  55.073  1.00  0.00    -0.040 A 
HETATM   22  C   UNL     1       8.105  20.392  55.856  1.00  0.00     0.050 C 
HETATM   23  C   UNL     1       7.432  22.808  55.744  1.00  0.00     0.011 A 
HETATM   24  C   UNL     1       7.163  23.984  55.037  1.00  0.00     0.030 A 
ENDBRANCH  14  17
ENDBRANCH  12  13
ENDBRANCH   7  12
BRANCH   1  25
HETATM   25  C   UNL     1       4.979  31.225  58.175  1.00  0.00     0.259 C 
HETATM   26  N   UNL     1       3.751  31.608  58.693  1.00  0.00    -0.355 N 
HETATM   27  H   UNL     1       2.953  31.216  58.201  1.00  0.00     0.162 HD
HETATM   28  O   UNL     1       6.005  31.447  58.814  1.00  0.00    -0.267 OA
BRANCH  26  29
HETATM   29  C   UNL     1       3.582  31.901  60.111  1.00  0.00     0.150 C 
BRANCH  29  30
HETATM   30  C   UNL     1       2.911  33.252  60.424  1.00  0.00     0.254 C 
BRANCH  30  31
HETATM   31  N   UNL     1       3.776  34.111  61.341  1.00  0.00    -0.070 N 
HETATM   32  H   UNL     1       3.109  34.450  62.050  1.00  0.00     0.279 HD
BRANCH  31  33
HETATM   33  C   UNL     1       4.320  35.347  60.655  1.00  0.00     0.230 C 
HETATM   34  C   UNL     1       3.608  36.597  61.142  1.00  0.00     0.034 C 
ENDBRANCH  31  33
BRANCH  31  35
HETATM   35  C   UNL     1       4.831  33.360  62.123  1.00  0.00     0.230 C 
HETATM   36  C   UNL     1       6.174  34.066  62.121  1.00  0.00     0.034 C 
ENDBRANCH  31  35
ENDBRANCH  30  31
ENDBRANCH  29  30
ENDBRANCH  26  29
ENDBRANCH   1  25
TORSDOF 9
ENDMDL
MODEL 10
REMARK VINA RESULT:      -7.5      6.615     11.156
REMARK  9 active torsions:
REMARK  status: ('A' for Active; 'I' for Inactive)
REMARK    1  A    between atoms: C_2  and  N_3 
REMARK    2  A    between atoms: N_3  and  C_5 
REMARK    3  A    between atoms: N_3  and  C_33 
REMARK    4  A    between atoms: C_5  and  C_6 
REMARK    5  A    between atoms: C_6  and  N_7 
REMARK       I    between atoms: N_7  and  C_8 
REMARK    6  A    between atoms: C_8  and  C_9 
REMARK    7  A    between atoms: N_15  and  C_16 
REMARK    8  A    between atoms: C_16  and  C_17 
REMARK       I    between atoms: C_17  and  N_18 
REMARK    9  A    between atoms: N_18  and  C_19 
ROOT
HETATM    1  C   UNL     1       3.292  28.659  47.971  1.00  0.00     0.081 A 
HETATM    2  S   UNL     1       3.361  26.952  48.133  1.00  0.00    -0.063 SA
HETATM    3  C   UNL     1       4.369  27.045  49.493  1.00  0.00     0.116 A 
HETATM    4  C   UNL     1       4.666  28.347  49.828  1.00  0.00     0.075 A 
HETATM    5  C   UNL     1       5.462  28.558  51.032  1.00  0.00     0.262 A 
HETATM    6  O   UNL     1       5.754  29.676  51.450  1.00  0.00    -0.267 OA
HETATM    7  N   UNL     1       5.840  27.384  51.679  1.00  0.00    -0.299 N 
HETATM    8  C   UNL     1       5.457  26.141  51.211  1.00  0.00     0.214 A 
HETATM    9  N   UNL     1       4.763  25.921  50.140  1.00  0.00    -0.235 NA
HETATM   10  C   UNL     1       4.093  29.303  48.910  1.00  0.00    -0.021 A 
HETATM   11  C   UNL     1       4.266  30.789  49.008  1.00  0.00     0.051 C 
ENDROOT
BRANCH   7  12
HETATM   12  C   UNL     1       6.491  27.496  52.975  1.00  0.00     0.236 C 
BRANCH  12  13
HETATM   13  C   UNL     1       6.470  26.127  53.668  1.00  0.00     0.240 C 
HETATM   14  N   UNL     1       7.650  25.418  53.497  1.00  0.00    -0.326 N 
HETATM   15  H   UNL     1       8.384  25.857  52.954  1.00  0.00     0.169 HD
HETATM   16  O   UNL     1       5.463  25.724  54.245  1.00  0.00    -0.271 OA
BRANCH  14  17
HETATM   17  C   UNL     1       7.956  24.137  54.008  1.00  0.00     0.036 A 
HETATM   18  C   UNL     1       7.974  22.971  53.242  1.00  0.00     0.053 A 
HETATM   19  C   UNL     1       8.278  21.736  53.831  1.00  0.00     0.042 A 
HETATM   20 CL   UNL     1       8.264  20.335  52.817  1.00  0.00    -0.084 Cl
HETATM   21  C   UNL     1       8.576  21.644  55.198  1.00  0.00    -0.040 A 
HETATM   22  C   UNL     1       8.900  20.332  55.856  1.00  0.00     0.050 C 
HETATM   23  C   UNL     1       8.554  22.817  55.963  1.00  0.00     0.011 A 
HETATM   24  C   UNL     1       8.245  24.048  55.375  1.00  0.00     0.030 A 
ENDBRANCH  14  17
ENDBRANCH  12  13
ENDBRANCH   7  12
BRANCH   1  25
HETATM   25  C   UNL     1       2.468  29.239  46.922  1.00  0.00     0.259 C 
HETATM   26  N   UNL     1       1.221  28.656  46.751  1.00  0.00    -0.355 N 
HETATM   27  H   UNL     1       0.949  28.031  47.506  1.00  0.00     0.162 HD
HETATM   28  O   UNL     1       2.806  30.174  46.201  1.00  0.00    -0.267 OA
BRANCH  26  29
HETATM   29  C   UNL     1       0.154  29.340  46.033  1.00  0.00     0.150 C 
BRANCH  29  30
HETATM   30  C   UNL     1      -0.743  28.430  45.172  1.00  0.00     0.254 C 
BRANCH  30  31
HETATM   31  N   UNL     1      -2.131  29.032  44.974  1.00  0.00    -0.070 N 
HETATM   32  H   UNL     1      -2.735  28.206  44.852  1.00  0.00     0.279 HD
BRANCH  31  33
HETATM   33  C   UNL     1      -2.251  29.829  43.692  1.00  0.00     0.230 C 
HETATM   34  C   UNL     1      -1.550  29.123  42.544  1.00  0.00     0.034 C 
ENDBRANCH  31  33
BRANCH  31  35
HETATM   35  C   UNL     1      -2.697  29.758  46.174  1.00  0.00     0.230 C 
HETATM   36  C   UNL     1      -3.360  31.072  45.803  1.00  0.00     0.034 C 
ENDBRANCH  31  35
ENDBRANCH  30  31
ENDBRANCH  29  30
ENDBRANCH  26  29
ENDBRANCH   1  25
TORSDOF 9
ENDMDL
