MODEL 1
REMARK VINA RESULT:     -10.9      0.000      0.000
REMARK  7 active torsions:
REMARK  status: ('A' for Active; 'I' for Inactive)
REMARK    1  A    between atoms: C_5  and  N_6 
REMARK    2  A    between atoms: C_7  and  S_8 
REMARK    3  A    between atoms: S_8  and  C_9 
REMARK    4  A    between atoms: C_9  and  C_10 
REMARK       I    between atoms: C_10  and  N_11 
REMARK    5  A    between atoms: C_13  and  C_14 
REMARK    6  A    between atoms: C_14  and  N_15 
REMARK       I    between atoms: N_15  and  C_16 
REMARK       I    between atoms: C_16  and  N_17 
REMARK    7  A    between atoms: N_17  and  C_18 
ROOT
HETATM    1  C   UNL     1       5.817  28.562  55.760  1.00  0.00     0.229 C 
HETATM    2  N   UNL     1       5.460  28.500  54.412  1.00  0.00    -0.351 N 
HETATM    3  C   UNL     1       6.355  28.075  53.336  1.00  0.00     0.132 C 
HETATM    4  C   UNL     1       5.606  27.265  52.268  1.00  0.00     0.021 C 
HETATM    5  C   UNL     1       4.407  28.076  51.751  1.00  0.00     0.009 C 
HETATM    6  C   UNL     1       3.500  28.550  52.888  1.00  0.00     0.020 C 
HETATM    7  C   UNL     1       4.286  29.261  53.986  1.00  0.00     0.126 C 
HETATM    8  O   UNL     1       4.987  28.858  56.628  1.00  0.00    -0.273 OA
ENDROOT
BRANCH   1   9
HETATM    9  C   UNL     1       7.229  28.176  56.181  1.00  0.00     0.185 C 
BRANCH   9  10
HETATM   10  S   UNL     1       7.531  28.440  57.954  1.00  0.00    -0.082 SA
BRANCH  10  11
HETATM   11  C   UNL     1       8.922  29.478  57.881  1.00  0.00     0.173 A 
HETATM   12  N   UNL     1       9.136  30.562  58.718  1.00  0.00    -0.299 N 
HETATM   13  C   UNL     1      10.219  31.229  58.176  1.00  0.00     0.118 A 
HETATM   14  C   UNL     1      10.620  30.488  57.091  1.00  0.00     0.137 A 
HETATM   15  N   UNL     1       9.818  29.395  56.923  1.00  0.00    -0.235 NA
BRANCH  12  16
HETATM   16  C   UNL     1       8.496  30.902  59.944  1.00  0.00     0.047 A 
HETATM   17  C   UNL     1       7.296  31.655  59.981  1.00  0.00    -0.029 A 
HETATM   18  C   UNL     1       6.810  32.087  61.240  1.00  0.00    -0.054 A 
HETATM   19  C   UNL     1       6.504  31.972  58.735  1.00  0.00     0.051 C 
HETATM   20  C   UNL     1       5.557  32.915  61.373  1.00  0.00     0.049 C 
HETATM   21  C   UNL     1       7.473  31.701  62.417  1.00  0.00     0.007 A 
HETATM   22  C   UNL     1       8.625  30.924  62.365  1.00  0.00     0.003 A 
HETATM   23  C   UNL     1       9.141  30.532  61.135  1.00  0.00     0.030 A 
ENDBRANCH  12  16
ENDBRANCH  10  11
ENDBRANCH   9  10
ENDBRANCH   1   9
BRANCH   4  24
HETATM   24  C   UNL     1       5.153  25.887  52.791  1.00  0.00     0.130 C 
BRANCH  24  25
HETATM   25  N   UNL     1       5.615  25.631  54.146  1.00  0.00    -0.342 N 
HETATM   26  C   UNL     1       6.324  24.598  54.685  1.00  0.00     0.320 C 
HETATM   27  N   UNL     1       6.769  23.643  53.815  1.00  0.00    -0.309 N 
HETATM   28  O   UNL     1       6.492  24.610  55.899  1.00  0.00    -0.247 OA
HETATM   29  H   UNL     1       6.667  23.840  52.834  1.00  0.00     0.170 HD
HETATM   30  H   UNL     1       5.363  26.307  54.858  1.00  0.00     0.164 HD
BRANCH  27  31
HETATM   31  C   UNL     1       7.490  22.468  54.119  1.00  0.00     0.039 A 
HETATM   32  C   UNL     1       7.819  22.065  55.413  1.00  0.00     0.071 A 
HETATM   33  C   UNL     1       8.541  20.889  55.610  1.00  0.00     0.118 A 
HETATM   34  F   UNL     1       8.852  20.509  56.857  1.00  0.00    -0.206 F 
HETATM   35  C   UNL     1       8.946  20.101  54.540  1.00  0.00     0.042 A 
HETATM   36  C   UNL     1       8.617  20.490  53.246  1.00  0.00     0.005 A 
HETATM   37  C   UNL     1       7.887  21.665  53.038  1.00  0.00     0.030 A 
ENDBRANCH  27  31
ENDBRANCH  24  25
ENDBRANCH   4  24
TORSDOF 7
ENDMDL
MODEL 2
REMARK VINA RESULT:     -10.6      4.377     11.098
REMARK  7 active torsions:
REMARK  status: ('A' for Active; 'I' for Inactive)
REMARK    1  A    between atoms: C_5  and  N_6 
REMARK    2  A    between atoms: C_7  and  S_8 
REMARK    3  A    between atoms: S_8  and  C_9 
REMARK    4  A    between atoms: C_9  and  C_10 
REMARK       I    between atoms: C_10  and  N_11 
REMARK    5  A    between atoms: C_13  and  C_14 
REMARK    6  A    between atoms: C_14  and  N_15 
REMARK       I    between atoms: N_15  and  C_16 
REMARK       I    between atoms: C_16  and  N_17 
REMARK    7  A    between atoms: N_17  and  C_18 
ROOT
HETATM    1  C   UNL     1       7.513  29.278  58.127  1.00  0.00     0.229 C 
HETATM    2  N   UNL     1       7.895  30.465  58.755  1.00  0.00    -0.351 N 
HETATM    3  C   UNL     1       7.060  31.662  58.844  1.00  0.00     0.132 C 
HETATM    4  C   UNL     1       7.235  32.371  60.195  1.00  0.00     0.021 C 
HETATM    5  C   UNL     1       8.724  32.672  60.432  1.00  0.00     0.009 C 
HETATM    6  C   UNL     1       9.593  31.420  60.296  1.00  0.00     0.020 C 
HETATM    7  C   UNL     1       9.323  30.677  58.991  1.00  0.00     0.126 C 
HETATM    8  O   UNL     1       8.239  28.278  58.154  1.00  0.00    -0.273 OA
ENDROOT
BRANCH   1   9
HETATM    9  C   UNL     1       6.142  29.186  57.468  1.00  0.00     0.185 C 
BRANCH   9  10
HETATM   10  S   UNL     1       5.689  27.482  57.025  1.00  0.00    -0.082 SA
BRANCH  10  11
HETATM   11  C   UNL     1       6.243  27.431  55.380  1.00  0.00     0.173 A 
HETATM   12  N   UNL     1       7.182  26.533  54.896  1.00  0.00    -0.299 N 
HETATM   13  C   UNL     1       7.494  26.985  53.626  1.00  0.00     0.118 A 
HETATM   14  C   UNL     1       6.697  28.081  53.404  1.00  0.00     0.137 A 
HETATM   15  N   UNL     1       5.914  28.344  54.493  1.00  0.00    -0.235 NA
BRANCH  12  16
HETATM   16  C   UNL     1       7.667  25.328  55.477  1.00  0.00     0.047 A 
HETATM   17  C   UNL     1       7.412  24.060  54.899  1.00  0.00    -0.029 A 
HETATM   18  C   UNL     1       7.791  22.900  55.620  1.00  0.00    -0.054 A 
HETATM   19  C   UNL     1       6.792  23.908  53.530  1.00  0.00     0.051 C 
HETATM   20  C   UNL     1       7.534  21.511  55.095  1.00  0.00     0.049 C 
HETATM   21  C   UNL     1       8.473  23.027  56.841  1.00  0.00     0.007 A 
HETATM   22  C   UNL     1       8.756  24.280  57.374  1.00  0.00     0.003 A 
HETATM   23  C   UNL     1       8.349  25.427  56.701  1.00  0.00     0.030 A 
ENDBRANCH  12  16
ENDBRANCH  10  11
ENDBRANCH   9  10
ENDBRANCH   1   9
BRANCH   4  24
HETATM   24  C   UNL     1       6.647  31.555  61.364  1.00  0.00     0.130 C 
BRANCH  24  25
HETATM   25  N   UNL     1       5.245  31.863  61.602  1.00  0.00    -0.342 N 
HETATM   26  C   UNL     1       4.631  32.627  62.549  1.00  0.00     0.320 C 
HETATM   27  N   UNL     1       5.446  33.310  63.407  1.00  0.00    -0.309 N 
HETATM   28  O   UNL     1       3.405  32.628  62.556  1.00  0.00    -0.247 OA
HETATM   29  H   UNL     1       6.429  33.314  63.192  1.00  0.00     0.170 HD
HETATM   30  H   UNL     1       4.564  31.428  60.990  1.00  0.00     0.164 HD
BRANCH  27  31
HETATM   31  C   UNL     1       5.064  34.137  64.486  1.00  0.00     0.039 A 
HETATM   32  C   UNL     1       4.761  33.666  65.763  1.00  0.00     0.071 A 
HETATM   33  C   UNL     1       4.388  34.563  66.762  1.00  0.00     0.118 A 
HETATM   34  F   UNL     1       4.099  34.102  67.987  1.00  0.00    -0.206 F 
HETATM   35  C   UNL     1       4.308  35.928  66.515  1.00  0.00     0.042 A 
HETATM   36  C   UNL     1       4.615  36.410  65.247  1.00  0.00     0.005 A 
HETATM   37  C   UNL     1       4.997  35.517  64.239  1.00  0.00     0.030 A 
ENDBRANCH  27  31
ENDBRANCH  24  25
ENDBRANCH   4  24
TORSDOF 7
ENDMDL
MODEL 3
REMARK VINA RESULT:     -10.3      3.664      8.430
REMARK  7 active torsions:
REMARK  status: ('A' for Active; 'I' for Inactive)
REMARK    1  A    between atoms: C_5  and  N_6 
REMARK    2  A    between atoms: C_7  and  S_8 
REMARK    3  A    between atoms: S_8  and  C_9 
REMARK    4  A    between atoms: C_9  and  C_10 
REMARK       I    between atoms: C_10  and  N_11 
REMARK    5  A    between atoms: C_13  and  C_14 
REMARK    6  A    between atoms: C_14  and  N_15 
REMARK       I    between atoms: N_15  and  C_16 
REMARK       I    between atoms: C_16  and  N_17 
REMARK    7  A    between atoms: N_17  and  C_18 
ROOT
HETATM    1  C   UNL     1       4.214  29.548  53.820  1.00  0.00     0.229 C 
HETATM    2  N   UNL     1       4.844  28.923  54.898  1.00  0.00    -0.351 N 
HETATM    3  C   UNL     1       5.022  27.477  55.030  1.00  0.00     0.132 C 
HETATM    4  C   UNL     1       6.375  27.134  55.670  1.00  0.00     0.021 C 
HETATM    5  C   UNL     1       6.513  27.869  57.013  1.00  0.00     0.009 C 
HETATM    6  C   UNL     1       6.284  29.374  56.871  1.00  0.00     0.020 C 
HETATM    7  C   UNL     1       4.983  29.687  56.138  1.00  0.00     0.126 C 
HETATM    8  O   UNL     1       4.165  30.781  53.736  1.00  0.00    -0.273 OA
ENDROOT
BRANCH   1   9
HETATM    9  C   UNL     1       3.652  28.700  52.686  1.00  0.00     0.185 C 
BRANCH   9  10
HETATM   10  S   UNL     1       2.753  29.686  51.451  1.00  0.00    -0.082 SA
BRANCH  10  11
HETATM   11  C   UNL     1       4.027  29.995  50.312  1.00  0.00     0.173 A 
HETATM   12  N   UNL     1       4.273  29.228  49.183  1.00  0.00    -0.299 N 
HETATM   13  C   UNL     1       5.489  29.675  48.700  1.00  0.00     0.118 A 
HETATM   14  C   UNL     1       5.871  30.706  49.523  1.00  0.00     0.137 A 
HETATM   15  N   UNL     1       4.952  30.906  50.514  1.00  0.00    -0.235 NA
BRANCH  12  16
HETATM   16  C   UNL     1       3.443  28.264  48.544  1.00  0.00     0.047 A 
HETATM   17  C   UNL     1       3.644  26.871  48.711  1.00  0.00    -0.029 A 
HETATM   18  C   UNL     1       2.880  25.979  47.918  1.00  0.00    -0.054 A 
HETATM   19  C   UNL     1       4.609  26.312  49.729  1.00  0.00     0.051 C 
HETATM   20  C   UNL     1       3.047  24.483  48.009  1.00  0.00     0.049 C 
HETATM   21  C   UNL     1       1.897  26.481  47.050  1.00  0.00     0.007 A 
HETATM   22  C   UNL     1       1.681  27.849  46.931  1.00  0.00     0.003 A 
HETATM   23  C   UNL     1       2.455  28.740  47.667  1.00  0.00     0.030 A 
ENDBRANCH  12  16
ENDBRANCH  10  11
ENDBRANCH   9  10
ENDBRANCH   1   9
BRANCH   4  24
HETATM   24  C   UNL     1       7.561  27.459  54.741  1.00  0.00     0.130 C 
BRANCH  24  25
HETATM   25  N   UNL     1       7.509  26.709  53.496  1.00  0.00    -0.342 N 
HETATM   26  C   UNL     1       7.609  25.375  53.234  1.00  0.00     0.320 C 
HETATM   27  N   UNL     1       7.698  24.545  54.315  1.00  0.00    -0.309 N 
HETATM   28  O   UNL     1       7.620  25.037  52.055  1.00  0.00    -0.247 OA
HETATM   29  H   UNL     1       7.542  24.958  55.219  1.00  0.00     0.170 HD
HETATM   30  H   UNL     1       7.408  27.240  52.638  1.00  0.00     0.164 HD
BRANCH  27  31
HETATM   31  C   UNL     1       7.841  23.140  54.315  1.00  0.00     0.039 A 
HETATM   32  C   UNL     1       8.067  22.376  53.169  1.00  0.00     0.071 A 
HETATM   33  C   UNL     1       8.189  20.992  53.272  1.00  0.00     0.118 A 
HETATM   34  F   UNL     1       8.406  20.266  52.167  1.00  0.00    -0.206 F 
HETATM   35  C   UNL     1       8.088  20.347  54.498  1.00  0.00     0.042 A 
HETATM   36  C   UNL     1       7.870  21.098  55.648  1.00  0.00     0.005 A 
HETATM   37  C   UNL     1       7.753  22.490  55.556  1.00  0.00     0.030 A 
ENDBRANCH  27  31
ENDBRANCH  24  25
ENDBRANCH   4  24
TORSDOF 7
ENDMDL
MODEL 4
REMARK VINA RESULT:     -10.2      3.572      8.341
REMARK  7 active torsions:
REMARK  status: ('A' for Active; 'I' for Inactive)
REMARK    1  A    between atoms: C_5  and  N_6 
REMARK    2  A    between atoms: C_7  and  S_8 
REMARK    3  A    between atoms: S_8  and  C_9 
REMARK    4  A    between atoms: C_9  and  C_10 
REMARK       I    between atoms: C_10  and  N_11 
REMARK    5  A    between atoms: C_13  and  C_14 
REMARK    6  A    between atoms: C_14  and  N_15 
REMARK       I    between atoms: N_15  and  C_16 
REMARK       I    between atoms: C_16  and  N_17 
REMARK    7  A    between atoms: N_17  and  C_18 
ROOT
HETATM    1  C   UNL     1       4.183  29.827  54.326  1.00  0.00     0.229 C 
HETATM    2  N   UNL     1       4.802  28.959  55.227  1.00  0.00    -0.351 N 
HETATM    3  C   UNL     1       4.939  27.516  55.027  1.00  0.00     0.132 C 
HETATM    4  C   UNL     1       6.286  27.001  55.555  1.00  0.00     0.021 C 
HETATM    5  C   UNL     1       6.455  27.411  57.027  1.00  0.00     0.009 C 
HETATM    6  C   UNL     1       6.269  28.915  57.230  1.00  0.00     0.020 C 
HETATM    7  C   UNL     1       4.972  29.420  56.604  1.00  0.00     0.126 C 
HETATM    8  O   UNL     1       4.169  31.048  54.522  1.00  0.00    -0.273 OA
ENDROOT
BRANCH   1   9
HETATM    9  C   UNL     1       3.589  29.272  53.037  1.00  0.00     0.185 C 
BRANCH   9  10
HETATM   10  S   UNL     1       4.489  29.819  51.555  1.00  0.00    -0.082 SA
BRANCH  10  11
HETATM   11  C   UNL     1       4.747  28.293  50.768  1.00  0.00     0.173 A 
HETATM   12  N   UNL     1       4.297  27.981  49.495  1.00  0.00    -0.299 N 
HETATM   13  C   UNL     1       4.511  26.622  49.357  1.00  0.00     0.118 A 
HETATM   14  C   UNL     1       5.118  26.212  50.519  1.00  0.00     0.137 A 
HETATM   15  N   UNL     1       5.273  27.258  51.385  1.00  0.00    -0.235 NA
BRANCH  12  16
HETATM   16  C   UNL     1       3.822  28.842  48.465  1.00  0.00     0.047 A 
HETATM   17  C   UNL     1       2.464  28.848  48.058  1.00  0.00    -0.029 A 
HETATM   18  C   UNL     1       2.103  29.615  46.922  1.00  0.00    -0.054 A 
HETATM   19  C   UNL     1       1.392  28.102  48.816  1.00  0.00     0.051 C 
HETATM   20  C   UNL     1       0.689  29.658  46.402  1.00  0.00     0.049 C 
HETATM   21  C   UNL     1       3.068  30.406  46.277  1.00  0.00     0.007 A 
HETATM   22  C   UNL     1       4.387  30.424  46.716  1.00  0.00     0.003 A 
HETATM   23  C   UNL     1       4.767  29.640  47.800  1.00  0.00     0.030 A 
ENDBRANCH  12  16
ENDBRANCH  10  11
ENDBRANCH   9  10
ENDBRANCH   1   9
BRANCH   4  24
HETATM   24  C   UNL     1       7.475  27.496  54.707  1.00  0.00     0.130 C 
BRANCH  24  25
HETATM   25  N   UNL     1       7.622  26.743  53.471  1.00  0.00    -0.342 N 
HETATM   26  C   UNL     1       7.759  25.408  53.231  1.00  0.00     0.320 C 
HETATM   27  N   UNL     1       7.669  24.580  54.314  1.00  0.00    -0.309 N 
HETATM   28  O   UNL     1       7.959  25.067  52.070  1.00  0.00    -0.247 OA
HETATM   29  H   UNL     1       7.371  24.996  55.180  1.00  0.00     0.170 HD
HETATM   30  H   UNL     1       7.663  27.272  52.607  1.00  0.00     0.164 HD
BRANCH  27  31
HETATM   31  C   UNL     1       7.806  23.175  54.340  1.00  0.00     0.039 A 
HETATM   32  C   UNL     1       8.036  22.391  53.209  1.00  0.00     0.071 A 
HETATM   33  C   UNL     1       8.151  21.007  53.338  1.00  0.00     0.118 A 
HETATM   34  F   UNL     1       8.372  20.262  52.247  1.00  0.00    -0.206 F 
HETATM   35  C   UNL     1       8.039  20.384  54.574  1.00  0.00     0.042 A 
HETATM   36  C   UNL     1       7.817  21.157  55.709  1.00  0.00     0.005 A 
HETATM   37  C   UNL     1       7.707  22.547  55.591  1.00  0.00     0.030 A 
ENDBRANCH  27  31
ENDBRANCH  24  25
ENDBRANCH   4  24
TORSDOF 7
ENDMDL
MODEL 5
REMARK VINA RESULT:     -10.1      4.548     11.471
REMARK  7 active torsions:
REMARK  status: ('A' for Active; 'I' for Inactive)
REMARK    1  A    between atoms: C_5  and  N_6 
REMARK    2  A    between atoms: C_7  and  S_8 
REMARK    3  A    between atoms: S_8  and  C_9 
REMARK    4  A    between atoms: C_9  and  C_10 
REMARK       I    between atoms: C_10  and  N_11 
REMARK    5  A    between atoms: C_13  and  C_14 
REMARK    6  A    between atoms: C_14  and  N_15 
REMARK       I    between atoms: N_15  and  C_16 
REMARK       I    between atoms: C_16  and  N_17 
REMARK    7  A    between atoms: N_17  and  C_18 
ROOT
HETATM    1  C   UNL     1       7.622  29.490  58.182  1.00  0.00     0.229 C 
HETATM    2  N   UNL     1       7.779  30.561  59.064  1.00  0.00    -0.351 N 
HETATM    3  C   UNL     1       7.298  31.920  58.812  1.00  0.00     0.132 C 
HETATM    4  C   UNL     1       6.776  32.578  60.097  1.00  0.00     0.021 C 
HETATM    5  C   UNL     1       7.865  32.531  61.182  1.00  0.00     0.009 C 
HETATM    6  C   UNL     1       8.390  31.112  61.407  1.00  0.00     0.020 C 
HETATM    7  C   UNL     1       8.804  30.442  60.101  1.00  0.00     0.126 C 
HETATM    8  O   UNL     1       7.987  28.350  58.491  1.00  0.00    -0.273 OA
ENDROOT
BRANCH   1   9
HETATM    9  C   UNL     1       6.915  29.712  56.851  1.00  0.00     0.185 C 
BRANCH   9  10
HETATM   10  S   UNL     1       7.393  28.493  55.590  1.00  0.00    -0.082 SA
BRANCH  10  11
HETATM   11  C   UNL     1       5.872  28.267  54.783  1.00  0.00     0.173 A 
HETATM   12  N   UNL     1       5.603  27.243  53.888  1.00  0.00    -0.299 N 
HETATM   13  C   UNL     1       4.384  27.568  53.322  1.00  0.00     0.118 A 
HETATM   14  C   UNL     1       3.972  28.724  53.939  1.00  0.00     0.137 A 
HETATM   15  N   UNL     1       4.896  29.144  54.855  1.00  0.00    -0.235 NA
BRANCH  12  16
HETATM   16  C   UNL     1       6.321  26.038  53.647  1.00  0.00     0.047 A 
HETATM   17  C   UNL     1       6.431  25.021  54.628  1.00  0.00    -0.029 A 
HETATM   18  C   UNL     1       7.292  23.925  54.371  1.00  0.00    -0.054 A 
HETATM   19  C   UNL     1       5.631  25.047  55.909  1.00  0.00     0.051 C 
HETATM   20  C   UNL     1       7.491  22.812  55.369  1.00  0.00     0.049 C 
HETATM   21  C   UNL     1       7.952  23.828  53.135  1.00  0.00     0.007 A 
HETATM   22  C   UNL     1       7.799  24.813  52.165  1.00  0.00     0.003 A 
HETATM   23  C   UNL     1       6.994  25.918  52.420  1.00  0.00     0.030 A 
ENDBRANCH  12  16
ENDBRANCH  10  11
ENDBRANCH   9  10
ENDBRANCH   1   9
BRANCH   4  24
HETATM   24  C   UNL     1       5.471  31.928  60.599  1.00  0.00     0.130 C 
BRANCH  24  25
HETATM   25  N   UNL     1       4.369  32.876  60.659  1.00  0.00    -0.342 N 
HETATM   26  C   UNL     1       3.984  33.762  61.620  1.00  0.00     0.320 C 
HETATM   27  N   UNL     1       4.795  33.869  62.714  1.00  0.00    -0.309 N 
HETATM   28  O   UNL     1       2.941  34.378  61.426  1.00  0.00    -0.247 OA
HETATM   29  H   UNL     1       5.683  33.398  62.668  1.00  0.00     0.170 HD
HETATM   30  H   UNL     1       3.731  32.895  59.872  1.00  0.00     0.164 HD
BRANCH  27  31
HETATM   31  C   UNL     1       4.606  34.682  63.853  1.00  0.00     0.039 A 
HETATM   32  C   UNL     1       5.044  36.003  63.953  1.00  0.00     0.071 A 
HETATM   33  C   UNL     1       4.814  36.722  65.125  1.00  0.00     0.118 A 
HETATM   34  F   UNL     1       5.237  37.990  65.212  1.00  0.00    -0.206 F 
HETATM   35  C   UNL     1       4.156  36.150  66.207  1.00  0.00     0.042 A 
HETATM   36  C   UNL     1       3.709  34.836  66.115  1.00  0.00     0.005 A 
HETATM   37  C   UNL     1       3.929  34.108  64.940  1.00  0.00     0.030 A 
ENDBRANCH  27  31
ENDBRANCH  24  25
ENDBRANCH   4  24
TORSDOF 7
ENDMDL
MODEL 6
REMARK VINA RESULT:      -9.9      4.624      8.820
REMARK  7 active torsions:
REMARK  status: ('A' for Active; 'I' for Inactive)
REMARK    1  A    between atoms: C_5  and  N_6 
REMARK    2  A    between atoms: C_7  and  S_8 
REMARK    3  A    between atoms: S_8  and  C_9 
REMARK    4  A    between atoms: C_9  and  C_10 
REMARK       I    between atoms: C_10  and  N_11 
REMARK    5  A    between atoms: C_13  and  C_14 
REMARK    6  A    between atoms: C_14  and  N_15 
REMARK       I    between atoms: N_15  and  C_16 
REMARK       I    between atoms: C_16  and  N_17 
REMARK    7  A    between atoms: N_17  and  C_18 
ROOT
HETATM    1  C   UNL     1       5.364  28.978  50.993  1.00  0.00     0.229 C 
HETATM    2  N   UNL     1       4.955  28.685  52.296  1.00  0.00    -0.351 N 
HETATM    3  C   UNL     1       4.556  27.356  52.760  1.00  0.00     0.132 C 
HETATM    4  C   UNL     1       5.028  27.098  54.198  1.00  0.00     0.021 C 
HETATM    5  C   UNL     1       4.520  28.220  55.118  1.00  0.00     0.009 C 
HETATM    6  C   UNL     1       4.908  29.606  54.602  1.00  0.00     0.020 C 
HETATM    7  C   UNL     1       4.522  29.799  53.138  1.00  0.00     0.126 C 
HETATM    8  O   UNL     1       5.761  30.109  50.688  1.00  0.00    -0.273 OA
ENDROOT
BRANCH   1   9
HETATM    9  C   UNL     1       5.401  27.868  49.951  1.00  0.00     0.185 C 
BRANCH   9  10
HETATM   10  S   UNL     1       5.234  28.494  48.252  1.00  0.00    -0.082 SA
BRANCH  10  11
HETATM   11  C   UNL     1       3.962  27.466  47.667  1.00  0.00     0.173 A 
HETATM   12  N   UNL     1       2.625  27.828  47.608  1.00  0.00    -0.299 N 
HETATM   13  C   UNL     1       1.947  26.661  47.307  1.00  0.00     0.118 A 
HETATM   14  C   UNL     1       2.906  25.691  47.152  1.00  0.00     0.137 A 
HETATM   15  N   UNL     1       4.156  26.202  47.364  1.00  0.00    -0.235 NA
BRANCH  12  16
HETATM   16  C   UNL     1       2.030  29.118  47.705  1.00  0.00     0.047 A 
HETATM   17  C   UNL     1       1.492  29.606  48.922  1.00  0.00    -0.029 A 
HETATM   18  C   UNL     1       0.776  30.830  48.901  1.00  0.00    -0.054 A 
HETATM   19  C   UNL     1       1.692  28.891  50.237  1.00  0.00     0.051 C 
HETATM   20  C   UNL     1       0.147  31.410  50.141  1.00  0.00     0.049 C 
HETATM   21  C   UNL     1       0.682  31.564  47.707  1.00  0.00     0.007 A 
HETATM   22  C   UNL     1       1.255  31.093  46.531  1.00  0.00     0.003 A 
HETATM   23  C   UNL     1       1.919  29.871  46.525  1.00  0.00     0.030 A 
ENDBRANCH  12  16
ENDBRANCH  10  11
ENDBRANCH   9  10
ENDBRANCH   1   9
BRANCH   4  24
HETATM   24  C   UNL     1       6.560  26.958  54.295  1.00  0.00     0.130 C 
BRANCH  24  25
HETATM   25  N   UNL     1       6.974  26.233  55.487  1.00  0.00    -0.342 N 
HETATM   26  C   UNL     1       7.417  24.956  55.665  1.00  0.00     0.320 C 
HETATM   27  N   UNL     1       7.594  24.207  54.537  1.00  0.00    -0.309 N 
HETATM   28  O   UNL     1       7.609  24.588  56.819  1.00  0.00    -0.247 OA
HETATM   29  H   UNL     1       7.522  24.689  53.656  1.00  0.00     0.170 HD
HETATM   30  H   UNL     1       6.912  26.722  56.372  1.00  0.00     0.164 HD
BRANCH  27  31
HETATM   31  C   UNL     1       8.009  22.860  54.451  1.00  0.00     0.039 A 
HETATM   32  C   UNL     1       8.669  22.178  55.473  1.00  0.00     0.071 A 
HETATM   33  C   UNL     1       9.043  20.849  55.289  1.00  0.00     0.118 A 
HETATM   34  F   UNL     1       9.676  20.201  56.277  1.00  0.00    -0.206 F 
HETATM   35  C   UNL     1       8.776  20.179  54.102  1.00  0.00     0.042 A 
HETATM   36  C   UNL     1       8.112  20.847  53.078  1.00  0.00     0.005 A 
HETATM   37  C   UNL     1       7.725  22.180  53.256  1.00  0.00     0.030 A 
ENDBRANCH  27  31
ENDBRANCH  24  25
ENDBRANCH   4  24
TORSDOF 7
ENDMDL
MODEL 7
REMARK VINA RESULT:      -9.9      2.968      7.488
REMARK  7 active torsions:
REMARK  status: ('A' for Active; 'I' for Inactive)
REMARK    1  A    between atoms: C_5  and  N_6 
REMARK    2  A    between atoms: C_7  and  S_8 
REMARK    3  A    between atoms: S_8  and  C_9 
REMARK    4  A    between atoms: C_9  and  C_10 
REMARK       I    between atoms: C_10  and  N_11 
REMARK    5  A    between atoms: C_13  and  C_14 
REMARK    6  A    between atoms: C_14  and  N_15 
REMARK       I    between atoms: N_15  and  C_16 
REMARK       I    between atoms: C_16  and  N_17 
REMARK    7  A    between atoms: N_17  and  C_18 
ROOT
HETATM    1  C   UNL     1       4.951  30.458  55.943  1.00  0.00     0.229 C 
HETATM    2  N   UNL     1       5.708  29.512  56.637  1.00  0.00    -0.351 N 
HETATM    3  C   UNL     1       5.327  28.111  56.811  1.00  0.00     0.132 C 
HETATM    4  C   UNL     1       6.549  27.184  56.744  1.00  0.00     0.021 C 
HETATM    5  C   UNL     1       7.601  27.640  57.768  1.00  0.00     0.009 C 
HETATM    6  C   UNL     1       7.961  29.117  57.604  1.00  0.00     0.020 C 
HETATM    7  C   UNL     1       6.722  30.007  57.568  1.00  0.00     0.126 C 
HETATM    8  O   UNL     1       5.368  31.609  55.769  1.00  0.00    -0.273 OA
ENDROOT
BRANCH   1   9
HETATM    9  C   UNL     1       3.625  30.044  55.317  1.00  0.00     0.185 C 
BRANCH   9  10
HETATM   10  S   UNL     1       3.814  29.417  53.621  1.00  0.00    -0.082 SA
BRANCH  10  11
HETATM   11  C   UNL     1       3.344  30.822  52.716  1.00  0.00     0.173 A 
HETATM   12  N   UNL     1       3.561  30.988  51.356  1.00  0.00    -0.299 N 
HETATM   13  C   UNL     1       3.250  32.311  51.099  1.00  0.00     0.118 A 
HETATM   14  C   UNL     1       2.821  32.841  52.291  1.00  0.00     0.137 A 
HETATM   15  N   UNL     1       2.869  31.906  53.287  1.00  0.00    -0.235 NA
BRANCH  12  16
HETATM   16  C   UNL     1       3.908  30.023  50.369  1.00  0.00     0.047 A 
HETATM   17  C   UNL     1       2.954  29.126  49.828  1.00  0.00    -0.029 A 
HETATM   18  C   UNL     1       3.409  28.093  48.971  1.00  0.00    -0.054 A 
HETATM   19  C   UNL     1       1.475  29.262  50.101  1.00  0.00     0.051 C 
HETATM   20  C   UNL     1       2.469  27.078  48.372  1.00  0.00     0.049 C 
HETATM   21  C   UNL     1       4.766  28.025  48.615  1.00  0.00     0.007 A 
HETATM   22  C   UNL     1       5.683  28.941  49.120  1.00  0.00     0.003 A 
HETATM   23  C   UNL     1       5.261  29.931  50.000  1.00  0.00     0.030 A 
ENDBRANCH  12  16
ENDBRANCH  10  11
ENDBRANCH   9  10
ENDBRANCH   1   9
BRANCH   4  24
HETATM   24  C   UNL     1       7.155  27.115  55.328  1.00  0.00     0.130 C 
BRANCH  24  25
HETATM   25  N   UNL     1       6.369  26.283  54.431  1.00  0.00    -0.342 N 
HETATM   26  C   UNL     1       6.447  24.958  54.119  1.00  0.00     0.320 C 
HETATM   27  N   UNL     1       7.367  24.220  54.809  1.00  0.00    -0.309 N 
HETATM   28  O   UNL     1       5.694  24.545  53.244  1.00  0.00    -0.247 OA
HETATM   29  H   UNL     1       7.817  24.670  55.588  1.00  0.00     0.170 HD
HETATM   30  H   UNL     1       5.635  26.737  53.900  1.00  0.00     0.164 HD
BRANCH  27  31
HETATM   31  C   UNL     1       7.665  22.849  54.654  1.00  0.00     0.039 A 
HETATM   32  C   UNL     1       7.917  22.237  53.426  1.00  0.00     0.071 A 
HETATM   33  C   UNL     1       8.197  20.872  53.377  1.00  0.00     0.118 A 
HETATM   34  F   UNL     1       8.440  20.293  52.194  1.00  0.00    -0.206 F 
HETATM   35  C   UNL     1       8.229  20.099  54.530  1.00  0.00     0.042 A 
HETATM   36  C   UNL     1       7.985  20.700  55.761  1.00  0.00     0.005 A 
HETATM   37  C   UNL     1       7.710  22.070  55.821  1.00  0.00     0.030 A 
ENDBRANCH  27  31
ENDBRANCH  24  25
ENDBRANCH   4  24
TORSDOF 7
ENDMDL
MODEL 8
REMARK VINA RESULT:      -9.9      3.208      4.761
REMARK  7 active torsions:
REMARK  status: ('A' for Active; 'I' for Inactive)
REMARK    1  A    between atoms: C_5  and  N_6 
REMARK    2  A    between atoms: C_7  and  S_8 
REMARK    3  A    between atoms: S_8  and  C_9 
REMARK    4  A    between atoms: C_9  and  C_10 
REMARK       I    between atoms: C_10  and  N_11 
REMARK    5  A    between atoms: C_13  and  C_14 
REMARK    6  A    between atoms: C_14  and  N_15 
REMARK       I    between atoms: N_15  and  C_16 
REMARK       I    between atoms: C_16  and  N_17 
REMARK    7  A    between atoms: N_17  and  C_18 
ROOT
HETATM    1  C   UNL     1       2.965  29.262  51.270  1.00  0.00     0.229 C 
HETATM    2  N   UNL     1       3.596  28.563  50.239  1.00  0.00    -0.351 N 
HETATM    3  C   UNL     1       5.044  28.517  50.034  1.00  0.00     0.132 C 
HETATM    4  C   UNL     1       5.499  27.134  49.546  1.00  0.00     0.021 C 
HETATM    5  C   UNL     1       4.713  26.747  48.284  1.00  0.00     0.009 C 
HETATM    6  C   UNL     1       3.201  26.838  48.497  1.00  0.00     0.020 C 
HETATM    7  C   UNL     1       2.787  28.186  49.081  1.00  0.00     0.126 C 
HETATM    8  O   UNL     1       1.740  29.197  51.430  1.00  0.00    -0.273 OA
ENDROOT
BRANCH   1   9
HETATM    9  C   UNL     1       3.805  30.052  52.265  1.00  0.00     0.185 C 
BRANCH   9  10
HETATM   10  S   UNL     1       4.597  28.992  53.513  1.00  0.00    -0.082 SA
BRANCH  10  11
HETATM   11  C   UNL     1       4.212  29.874  54.959  1.00  0.00     0.173 A 
HETATM   12  N   UNL     1       4.870  29.722  56.169  1.00  0.00    -0.299 N 
HETATM   13  C   UNL     1       4.111  30.426  57.085  1.00  0.00     0.118 A 
HETATM   14  C   UNL     1       3.084  30.995  56.373  1.00  0.00     0.137 A 
HETATM   15  N   UNL     1       3.161  30.658  55.051  1.00  0.00    -0.235 NA
BRANCH  12  16
HETATM   16  C   UNL     1       6.118  29.097  56.450  1.00  0.00     0.047 A 
HETATM   17  C   UNL     1       6.211  27.722  56.780  1.00  0.00    -0.029 A 
HETATM   18  C   UNL     1       7.465  27.212  57.201  1.00  0.00    -0.054 A 
HETATM   19  C   UNL     1       5.036  26.782  56.657  1.00  0.00     0.051 C 
HETATM   20  C   UNL     1       7.651  25.770  57.597  1.00  0.00     0.049 C 
HETATM   21  C   UNL     1       8.594  28.048  57.208  1.00  0.00     0.007 A 
HETATM   22  C   UNL     1       8.494  29.385  56.838  1.00  0.00     0.003 A 
HETATM   23  C   UNL     1       7.262  29.912  56.468  1.00  0.00     0.030 A 
ENDBRANCH  12  16
ENDBRANCH  10  11
ENDBRANCH   9  10
ENDBRANCH   1   9
BRANCH   4  24
HETATM   24  C   UNL     1       5.356  26.054  50.636  1.00  0.00     0.130 C 
BRANCH  24  25
HETATM   25  N   UNL     1       6.098  26.384  51.843  1.00  0.00    -0.342 N 
HETATM   26  C   UNL     1       6.709  25.602  52.777  1.00  0.00     0.320 C 
HETATM   27  N   UNL     1       6.717  24.257  52.537  1.00  0.00    -0.309 N 
HETATM   28  O   UNL     1       7.189  26.168  53.753  1.00  0.00    -0.247 OA
HETATM   29  H   UNL     1       6.401  23.955  51.631  1.00  0.00     0.170 HD
HETATM   30  H   UNL     1       6.178  27.365  52.085  1.00  0.00     0.164 HD
BRANCH  27  31
HETATM   31  C   UNL     1       7.251  23.237  53.356  1.00  0.00     0.039 A 
HETATM   32  C   UNL     1       7.916  22.112  52.869  1.00  0.00     0.071 A 
HETATM   33  C   UNL     1       8.403  21.156  53.759  1.00  0.00     0.118 A 
HETATM   34  F   UNL     1       9.042  20.079  53.283  1.00  0.00    -0.206 F 
HETATM   35  C   UNL     1       8.237  21.295  55.131  1.00  0.00     0.042 A 
HETATM   36  C   UNL     1       7.581  22.416  55.628  1.00  0.00     0.005 A 
HETATM   37  C   UNL     1       7.095  23.385  54.742  1.00  0.00     0.030 A 
ENDBRANCH  27  31
ENDBRANCH  24  25
ENDBRANCH   4  24
TORSDOF 7
ENDMDL
MODEL 9
REMARK VINA RESULT:      -9.8      3.498      8.205
REMARK  7 active torsions:
REMARK  status: ('A' for Active; 'I' for Inactive)
REMARK    1  A    between atoms: C_5  and  N_6 
REMARK    2  A    between atoms: C_7  and  S_8 
REMARK    3  A    between atoms: S_8  and  C_9 
REMARK    4  A    between atoms: C_9  and  C_10 
REMARK       I    between atoms: C_10  and  N_11 
REMARK    5  A    between atoms: C_13  and  C_14 
REMARK    6  A    between atoms: C_14  and  N_15 
REMARK       I    between atoms: N_15  and  C_16 
REMARK       I    between atoms: C_16  and  N_17 
REMARK    7  A    between atoms: N_17  and  C_18 
ROOT
HETATM    1  C   UNL     1       4.266  30.165  53.770  1.00  0.00     0.229 C 
HETATM    2  N   UNL     1       4.426  29.408  54.932  1.00  0.00    -0.351 N 
HETATM    3  C   UNL     1       4.289  27.953  55.000  1.00  0.00     0.132 C 
HETATM    4  C   UNL     1       5.308  27.336  55.969  1.00  0.00     0.021 C 
HETATM    5  C   UNL     1       5.180  28.005  57.347  1.00  0.00     0.009 C 
HETATM    6  C   UNL     1       5.284  29.528  57.259  1.00  0.00     0.020 C 
HETATM    7  C   UNL     1       4.335  30.106  56.214  1.00  0.00     0.126 C 
HETATM    8  O   UNL     1       4.471  31.384  53.768  1.00  0.00    -0.273 OA
ENDROOT
BRANCH   1   9
HETATM    9  C   UNL     1       3.914  29.466  52.462  1.00  0.00     0.185 C 
BRANCH   9  10
HETATM   10  S   UNL     1       5.383  28.985  51.505  1.00  0.00    -0.082 SA
BRANCH  10  11
HETATM   11  C   UNL     1       5.285  30.122  50.195  1.00  0.00     0.173 A 
HETATM   12  N   UNL     1       4.545  29.926  49.040  1.00  0.00    -0.299 N 
HETATM   13  C   UNL     1       4.927  30.946  48.188  1.00  0.00     0.118 A 
HETATM   14  C   UNL     1       5.822  31.715  48.890  1.00  0.00     0.137 A 
HETATM   15  N   UNL     1       6.029  31.204  50.140  1.00  0.00    -0.235 NA
BRANCH  12  16
HETATM   16  C   UNL     1       3.517  28.978  48.772  1.00  0.00     0.047 A 
HETATM   17  C   UNL     1       3.775  27.762  48.093  1.00  0.00    -0.029 A 
HETATM   18  C   UNL     1       2.675  26.947  47.725  1.00  0.00    -0.054 A 
HETATM   19  C   UNL     1       5.177  27.289  47.791  1.00  0.00     0.051 C 
HETATM   20  C   UNL     1       2.854  25.651  46.977  1.00  0.00     0.049 C 
HETATM   21  C   UNL     1       1.373  27.317  48.101  1.00  0.00     0.007 A 
HETATM   22  C   UNL     1       1.141  28.493  48.807  1.00  0.00     0.003 A 
HETATM   23  C   UNL     1       2.205  29.326  49.134  1.00  0.00     0.030 A 
ENDBRANCH  12  16
ENDBRANCH  10  11
ENDBRANCH   9  10
ENDBRANCH   1   9
BRANCH   4  24
HETATM   24  C   UNL     1       6.753  27.437  55.440  1.00  0.00     0.130 C 
BRANCH  24  25
HETATM   25  N   UNL     1       7.679  26.616  56.204  1.00  0.00    -0.342 N 
HETATM   26  C   UNL     1       8.019  25.299  56.106  1.00  0.00     0.320 C 
HETATM   27  N   UNL     1       7.474  24.603  55.065  1.00  0.00    -0.309 N 
HETATM   28  O   UNL     1       8.775  24.853  56.962  1.00  0.00    -0.247 OA
HETATM   29  H   UNL     1       6.979  25.138  54.371  1.00  0.00     0.170 HD
HETATM   30  H   UNL     1       8.161  27.057  56.979  1.00  0.00     0.164 HD
BRANCH  27  31
HETATM   31  C   UNL     1       7.639  23.234  54.761  1.00  0.00     0.039 A 
HETATM   32  C   UNL     1       7.597  22.212  55.709  1.00  0.00     0.071 A 
HETATM   33  C   UNL     1       7.778  20.889  55.310  1.00  0.00     0.118 A 
HETATM   34  F   UNL     1       7.735  19.913  56.228  1.00  0.00    -0.206 F 
HETATM   35  C   UNL     1       8.004  20.559  53.980  1.00  0.00     0.042 A 
HETATM   36  C   UNL     1       8.041  21.570  53.024  1.00  0.00     0.005 A 
HETATM   37  C   UNL     1       7.853  22.900  53.414  1.00  0.00     0.030 A 
ENDBRANCH  27  31
ENDBRANCH  24  25
ENDBRANCH   4  24
TORSDOF 7
ENDMDL
MODEL 10
REMARK VINA RESULT:      -9.5      4.282      9.021
REMARK  7 active torsions:
REMARK  status: ('A' for Active; 'I' for Inactive)
REMARK    1  A    between atoms: C_5  and  N_6 
REMARK    2  A    between atoms: C_7  and  S_8 
REMARK    3  A    between atoms: S_8  and  C_9 
REMARK    4  A    between atoms: C_9  and  C_10 
REMARK       I    between atoms: C_10  and  N_11 
REMARK    5  A    between atoms: C_13  and  C_14 
REMARK    6  A    between atoms: C_14  and  N_15 
REMARK       I    between atoms: N_15  and  C_16 
REMARK       I    between atoms: C_16  and  N_17 
REMARK    7  A    between atoms: N_17  and  C_18 
ROOT
HETATM    1  C   UNL     1       4.100  30.763  52.003  1.00  0.00     0.229 C 
HETATM    2  N   UNL     1       4.047  29.943  53.132  1.00  0.00    -0.351 N 
HETATM    3  C   UNL     1       3.686  28.525  53.110  1.00  0.00     0.132 C 
HETATM    4  C   UNL     1       4.517  27.718  54.118  1.00  0.00     0.021 C 
HETATM    5  C   UNL     1       4.379  28.340  55.517  1.00  0.00     0.009 C 
HETATM    6  C   UNL     1       4.719  29.831  55.520  1.00  0.00     0.020 C 
HETATM    7  C   UNL     1       3.958  30.592  54.439  1.00  0.00     0.126 C 
HETATM    8  O   UNL     1       4.486  31.935  52.083  1.00  0.00    -0.273 OA
ENDROOT
BRANCH   1   9
HETATM    9  C   UNL     1       3.755  30.183  50.637  1.00  0.00     0.185 C 
BRANCH   9  10
HETATM   10  S   UNL     1       1.987  29.796  50.465  1.00  0.00    -0.082 SA
BRANCH  10  11
HETATM   11  C   UNL     1       1.711  30.325  48.834  1.00  0.00     0.173 A 
HETATM   12  N   UNL     1       2.380  29.831  47.725  1.00  0.00    -0.299 N 
HETATM   13  C   UNL     1       2.027  30.672  46.685  1.00  0.00     0.118 A 
HETATM   14  C   UNL     1       1.139  31.578  47.211  1.00  0.00     0.137 A 
HETATM   15  N   UNL     1       0.938  31.347  48.543  1.00  0.00    -0.235 NA
BRANCH  12  16
HETATM   16  C   UNL     1       3.170  28.654  47.592  1.00  0.00     0.047 A 
HETATM   17  C   UNL     1       2.603  27.357  47.666  1.00  0.00    -0.029 A 
HETATM   18  C   UNL     1       3.474  26.239  47.685  1.00  0.00    -0.054 A 
HETATM   19  C   UNL     1       1.110  27.130  47.682  1.00  0.00     0.051 C 
HETATM   20  C   UNL     1       2.961  24.826  47.790  1.00  0.00     0.049 C 
HETATM   21  C   UNL     1       4.860  26.430  47.553  1.00  0.00     0.007 A 
HETATM   22  C   UNL     1       5.397  27.707  47.437  1.00  0.00     0.003 A 
HETATM   23  C   UNL     1       4.559  28.817  47.465  1.00  0.00     0.030 A 
ENDBRANCH  12  16
ENDBRANCH  10  11
ENDBRANCH   9  10
ENDBRANCH   1   9
BRANCH   4  24
HETATM   24  C   UNL     1       5.999  27.616  53.706  1.00  0.00     0.130 C 
BRANCH  24  25
HETATM   25  N   UNL     1       6.839  27.117  54.784  1.00  0.00    -0.342 N 
HETATM   26  C   UNL     1       7.300  25.867  55.073  1.00  0.00     0.320 C 
HETATM   27  N   UNL     1       7.009  24.884  54.170  1.00  0.00    -0.309 N 
HETATM   28  O   UNL     1       7.925  25.730  56.119  1.00  0.00    -0.247 OA
HETATM   29  H   UNL     1       6.602  25.176  53.297  1.00  0.00     0.170 HD
HETATM   30  H   UNL     1       7.137  27.784  55.487  1.00  0.00     0.164 HD
BRANCH  27  31
HETATM   31  C   UNL     1       7.338  23.514  54.249  1.00  0.00     0.039 A 
HETATM   32  C   UNL     1       7.380  22.787  55.439  1.00  0.00     0.071 A 
HETATM   33  C   UNL     1       7.724  21.436  55.413  1.00  0.00     0.118 A 
HETATM   34  F   UNL     1       7.761  20.745  56.561  1.00  0.00    -0.206 F 
HETATM   35  C   UNL     1       8.030  20.790  54.222  1.00  0.00     0.042 A 
HETATM   36  C   UNL     1       7.985  21.503  53.029  1.00  0.00     0.005 A 
HETATM   37  C   UNL     1       7.634  22.858  53.044  1.00  0.00     0.030 A 
ENDBRANCH  27  31
ENDBRANCH  24  25
ENDBRANCH   4  24
TORSDOF 7
ENDMDL
