MODEL 1
REMARK VINA RESULT:      -8.7      0.000      0.000
REMARK  4 active torsions:
REMARK  status: ('A' for Active; 'I' for Inactive)
REMARK    1  A    between atoms: S_2  and  N_3 
REMARK    2  A    between atoms: N_3  and  N_4 
REMARK    3  A    between atoms: C_10  and  C_11 
REMARK    4  A    between atoms: C_12  and  O_13 
ROOT
HETATM    1  N   UNL     1       7.373  25.317  53.843  1.00  0.00    -0.224 N 
HETATM    2  C   UNL     1       7.736  24.254  53.019  1.00  0.00     0.276 C 
HETATM    3  O   UNL     1       7.956  24.325  51.815  1.00  0.00    -0.266 OA
HETATM    4  C   UNL     1       7.856  22.946  53.709  1.00  0.00     0.055 A 
HETATM    5  C   UNL     1       7.564  22.873  55.079  1.00  0.00     0.026 A 
HETATM    6  N   UNL     1       7.143  24.010  55.803  1.00  0.00    -0.265 NA
HETATM    7  C   UNL     1       7.695  25.255  55.261  1.00  0.00     0.224 C 
HETATM    8  C   UNL     1       8.212  21.800  52.987  1.00  0.00     0.019 A 
HETATM    9  C   UNL     1       8.245  20.563  53.627  1.00  0.00     0.001 A 
HETATM   10  C   UNL     1       7.907  20.470  54.976  1.00  0.00     0.002 A 
HETATM   11  C   UNL     1       7.552  21.616  55.694  1.00  0.00     0.024 A 
HETATM   12  H   UNL     1       7.359  23.910  56.794  1.00  0.00     0.130 HD
ENDROOT
BRANCH   7  13
HETATM   13  C   UNL     1       7.159  26.413  56.085  1.00  0.00     0.014 A 
HETATM   14  C   UNL     1       5.791  26.592  56.340  1.00  0.00     0.075 A 
HETATM   15  C   UNL     1       5.327  27.701  57.043  1.00  0.00     0.037 A 
HETATM   16  C   UNL     1       6.227  28.654  57.511  1.00  0.00     0.003 A 
HETATM   17  C   UNL     1       7.590  28.499  57.272  1.00  0.00     0.001 A 
HETATM   18  C   UNL     1       8.054  27.389  56.562  1.00  0.00     0.013 A 
BRANCH  14  19
HETATM   19  O   UNL     1       4.843  25.705  55.911  1.00  0.00    -0.360 OA
HETATM   20  H   UNL     1       3.957  26.031  56.177  1.00  0.00     0.217 HD
ENDBRANCH  14  19
ENDBRANCH   7  13
BRANCH   1  21
HETATM   21  N   UNL     1       7.048  26.647  53.260  1.00  0.00    -0.220 N 
HETATM   22  H   UNL     1       7.373  27.468  53.774  1.00  0.00     0.200 HD
BRANCH  21  23
HETATM   23  S   UNL     1       5.528  26.866  52.509  1.00  0.00     0.240 S 
HETATM   24  C   UNL     1       5.082  28.448  53.185  1.00  0.00     0.187 C 
HETATM   25  O   UNL     1       4.589  25.906  53.049  1.00  0.00    -0.205 OA
HETATM   26  O   UNL     1       5.732  27.063  51.090  1.00  0.00    -0.205 OA
ENDBRANCH  21  23
ENDBRANCH   1  21
TORSDOF 4
ENDMDL
MODEL 2
REMARK VINA RESULT:      -8.0      3.749      6.292
REMARK  4 active torsions:
REMARK  status: ('A' for Active; 'I' for Inactive)
REMARK    1  A    between atoms: S_2  and  N_3 
REMARK    2  A    between atoms: N_3  and  N_4 
REMARK    3  A    between atoms: C_10  and  C_11 
REMARK    4  A    between atoms: C_12  and  O_13 
ROOT
HETATM    1  N   UNL     1       5.095  27.642  51.093  1.00  0.00    -0.224 N 
HETATM    2  C   UNL     1       4.486  28.409  50.101  1.00  0.00     0.276 C 
HETATM    3  O   UNL     1       4.454  29.633  50.063  1.00  0.00    -0.266 OA
HETATM    4  C   UNL     1       3.837  27.625  49.022  1.00  0.00     0.055 A 
HETATM    5  C   UNL     1       3.847  26.224  49.100  1.00  0.00     0.026 A 
HETATM    6  N   UNL     1       4.444  25.553  50.189  1.00  0.00    -0.265 NA
HETATM    7  C   UNL     1       5.564  26.304  50.764  1.00  0.00     0.224 C 
HETATM    8  C   UNL     1       3.187  28.282  47.969  1.00  0.00     0.019 A 
HETATM    9  C   UNL     1       2.513  27.540  47.002  1.00  0.00     0.001 A 
HETATM   10  C   UNL     1       2.473  26.150  47.098  1.00  0.00     0.002 A 
HETATM   11  C   UNL     1       3.123  25.497  48.149  1.00  0.00     0.024 A 
HETATM   12  H   UNL     1       4.728  24.611  49.923  1.00  0.00     0.130 HD
ENDROOT
BRANCH   7  13
HETATM   13  C   UNL     1       6.112  25.517  51.942  1.00  0.00     0.014 A 
HETATM   14  C   UNL     1       5.317  25.138  53.036  1.00  0.00     0.075 A 
HETATM   15  C   UNL     1       5.866  24.474  54.130  1.00  0.00     0.037 A 
HETATM   16  C   UNL     1       7.224  24.169  54.150  1.00  0.00     0.003 A 
HETATM   17  C   UNL     1       8.033  24.533  53.077  1.00  0.00     0.001 A 
HETATM   18  C   UNL     1       7.484  25.204  51.982  1.00  0.00     0.013 A 
BRANCH  14  19
HETATM   19  O   UNL     1       3.978  25.404  53.095  1.00  0.00    -0.360 OA
HETATM   20  H   UNL     1       3.518  24.637  53.497  1.00  0.00     0.217 HD
ENDBRANCH  14  19
ENDBRANCH   7  13
BRANCH   1  21
HETATM   21  N   UNL     1       5.632  28.287  52.323  1.00  0.00    -0.220 N 
HETATM   22  H   UNL     1       6.479  27.880  52.723  1.00  0.00     0.200 HD
BRANCH  21  23
HETATM   23  S   UNL     1       4.531  28.870  53.492  1.00  0.00     0.240 S 
HETATM   24  C   UNL     1       5.372  28.366  54.975  1.00  0.00     0.187 C 
HETATM   25  O   UNL     1       3.311  28.095  53.425  1.00  0.00    -0.205 OA
HETATM   26  O   UNL     1       4.553  30.317  53.474  1.00  0.00    -0.205 OA
ENDBRANCH  21  23
ENDBRANCH   1  21
TORSDOF 4
ENDMDL
MODEL 3
REMARK VINA RESULT:      -7.8      2.985      4.066
REMARK  4 active torsions:
REMARK  status: ('A' for Active; 'I' for Inactive)
REMARK    1  A    between atoms: S_2  and  N_3 
REMARK    2  A    between atoms: N_3  and  N_4 
REMARK    3  A    between atoms: C_10  and  C_11 
REMARK    4  A    between atoms: C_12  and  O_13 
ROOT
HETATM    1  N   UNL     1       7.439  28.187  55.846  1.00  0.00    -0.224 N 
HETATM    2  C   UNL     1       6.958  27.093  55.130  1.00  0.00     0.276 C 
HETATM    3  O   UNL     1       6.221  27.147  54.152  1.00  0.00    -0.266 OA
HETATM    4  C   UNL     1       7.410  25.773  55.634  1.00  0.00     0.055 A 
HETATM    5  C   UNL     1       8.222  25.726  56.777  1.00  0.00     0.026 A 
HETATM    6  N   UNL     1       8.598  26.902  57.461  1.00  0.00    -0.265 NA
HETATM    7  C   UNL     1       8.696  28.061  56.570  1.00  0.00     0.224 C 
HETATM    8  C   UNL     1       6.990  24.596  55.000  1.00  0.00     0.019 A 
HETATM    9  C   UNL     1       7.355  23.360  55.527  1.00  0.00     0.001 A 
HETATM   10  C   UNL     1       8.119  23.299  56.691  1.00  0.00     0.002 A 
HETATM   11  C   UNL     1       8.536  24.475  57.322  1.00  0.00     0.024 A 
HETATM   12  H   UNL     1       9.464  26.759  57.979  1.00  0.00     0.130 HD
ENDROOT
BRANCH   7  13
HETATM   13  C   UNL     1       9.071  29.274  57.404  1.00  0.00     0.014 A 
HETATM   14  C   UNL     1       8.274  29.744  58.459  1.00  0.00     0.075 A 
HETATM   15  C   UNL     1       8.615  30.898  59.161  1.00  0.00     0.037 A 
HETATM   16  C   UNL     1       9.766  31.604  58.823  1.00  0.00     0.003 A 
HETATM   17  C   UNL     1      10.574  31.157  57.781  1.00  0.00     0.001 A 
HETATM   18  C   UNL     1      10.230  30.003  57.074  1.00  0.00     0.013 A 
BRANCH  14  19
HETATM   19  O   UNL     1       7.127  29.113  58.848  1.00  0.00    -0.360 OA
HETATM   20  H   UNL     1       6.655  29.678  59.496  1.00  0.00     0.217 HD
ENDBRANCH  14  19
ENDBRANCH   7  13
BRANCH   1  21
HETATM   21  N   UNL     1       6.932  29.557  55.563  1.00  0.00    -0.220 N 
HETATM   22  H   UNL     1       7.580  30.331  55.722  1.00  0.00     0.200 HD
BRANCH  21  23
HETATM   23  S   UNL     1       5.310  29.930  55.951  1.00  0.00     0.240 S 
HETATM   24  C   UNL     1       5.533  31.546  56.658  1.00  0.00     0.187 C 
HETATM   25  O   UNL     1       4.868  29.067  57.025  1.00  0.00    -0.205 OA
HETATM   26  O   UNL     1       4.566  30.113  54.724  1.00  0.00    -0.205 OA
ENDBRANCH  21  23
ENDBRANCH   1  21
TORSDOF 4
ENDMDL
MODEL 4
REMARK VINA RESULT:      -7.8      2.148      3.958
REMARK  4 active torsions:
REMARK  status: ('A' for Active; 'I' for Inactive)
REMARK    1  A    between atoms: S_2  and  N_3 
REMARK    2  A    between atoms: N_3  and  N_4 
REMARK    3  A    between atoms: C_10  and  C_11 
REMARK    4  A    between atoms: C_12  and  O_13 
ROOT
HETATM    1  N   UNL     1       7.575  24.693  55.110  1.00  0.00    -0.224 N 
HETATM    2  C   UNL     1       8.240  23.708  55.838  1.00  0.00     0.276 C 
HETATM    3  O   UNL     1       8.748  23.856  56.943  1.00  0.00    -0.266 OA
HETATM    4  C   UNL     1       8.308  22.384  55.172  1.00  0.00     0.055 A 
HETATM    5  C   UNL     1       7.756  22.240  53.890  1.00  0.00     0.026 A 
HETATM    6  N   UNL     1       7.158  23.329  53.221  1.00  0.00    -0.265 NA
HETATM    7  C   UNL     1       6.559  24.296  54.146  1.00  0.00     0.224 C 
HETATM    8  C   UNL     1       8.955  21.313  55.801  1.00  0.00     0.019 A 
HETATM    9  C   UNL     1       9.083  20.096  55.137  1.00  0.00     0.001 A 
HETATM   10  C   UNL     1       8.584  19.956  53.843  1.00  0.00     0.002 A 
HETATM   11  C   UNL     1       7.938  21.027  53.217  1.00  0.00     0.024 A 
HETATM   12  H   UNL     1       6.478  23.004  52.534  1.00  0.00     0.130 HD
ENDROOT
BRANCH   7  13
HETATM   13  C   UNL     1       5.976  25.438  53.332  1.00  0.00     0.014 A 
HETATM   14  C   UNL     1       6.606  25.953  52.189  1.00  0.00     0.075 A 
HETATM   15  C   UNL     1       6.077  27.044  51.503  1.00  0.00     0.037 A 
HETATM   16  C   UNL     1       4.901  27.640  51.947  1.00  0.00     0.003 A 
HETATM   17  C   UNL     1       4.255  27.147  53.078  1.00  0.00     0.001 A 
HETATM   18  C   UNL     1       4.789  26.056  53.768  1.00  0.00     0.013 A 
BRANCH  14  19
HETATM   19  O   UNL     1       7.766  25.428  51.692  1.00  0.00    -0.360 OA
HETATM   20  H   UNL     1       7.587  25.034  50.812  1.00  0.00     0.217 HD
ENDBRANCH  14  19
ENDBRANCH   7  13
BRANCH   1  21
HETATM   21  N   UNL     1       7.580  26.107  55.574  1.00  0.00    -0.220 N 
HETATM   22  H   UNL     1       8.442  26.637  55.427  1.00  0.00     0.200 HD
BRANCH  21  23
HETATM   23  S   UNL     1       6.773  26.499  57.028  1.00  0.00     0.240 S 
HETATM   24  C   UNL     1       6.061  28.061  56.566  1.00  0.00     0.187 C 
HETATM   25  O   UNL     1       7.754  26.780  58.055  1.00  0.00    -0.205 OA
HETATM   26  O   UNL     1       5.672  25.579  57.214  1.00  0.00    -0.205 OA
ENDBRANCH  21  23
ENDBRANCH   1  21
TORSDOF 4
ENDMDL
MODEL 5
REMARK VINA RESULT:      -7.5      2.519      3.683
REMARK  4 active torsions:
REMARK  status: ('A' for Active; 'I' for Inactive)
REMARK    1  A    between atoms: S_2  and  N_3 
REMARK    2  A    between atoms: N_3  and  N_4 
REMARK    3  A    between atoms: C_10  and  C_11 
REMARK    4  A    between atoms: C_12  and  O_13 
ROOT
HETATM    1  N   UNL     1       7.239  26.070  55.935  1.00  0.00    -0.224 N 
HETATM    2  C   UNL     1       8.008  24.966  56.297  1.00  0.00     0.276 C 
HETATM    3  O   UNL     1       8.599  24.824  57.361  1.00  0.00    -0.266 OA
HETATM    4  C   UNL     1       8.081  23.897  55.270  1.00  0.00     0.055 A 
HETATM    5  C   UNL     1       7.430  24.091  54.042  1.00  0.00     0.026 A 
HETATM    6  N   UNL     1       6.728  25.283  53.762  1.00  0.00    -0.265 NA
HETATM    7  C   UNL     1       6.165  25.898  54.967  1.00  0.00     0.224 C 
HETATM    8  C   UNL     1       8.827  22.737  55.514  1.00  0.00     0.019 A 
HETATM    9  C   UNL     1       8.954  21.774  54.516  1.00  0.00     0.001 A 
HETATM   10  C   UNL     1       8.355  21.979  53.274  1.00  0.00     0.002 A 
HETATM   11  C   UNL     1       7.611  23.138  53.033  1.00  0.00     0.024 A 
HETATM   12  H   UNL     1       6.009  25.123  53.057  1.00  0.00     0.130 HD
ENDROOT
BRANCH   7  13
HETATM   13  C   UNL     1       5.463  27.184  54.564  1.00  0.00     0.014 A 
HETATM   14  C   UNL     1       4.536  27.833  55.393  1.00  0.00     0.075 A 
HETATM   15  C   UNL     1       3.861  28.974  54.966  1.00  0.00     0.037 A 
HETATM   16  C   UNL     1       4.106  29.493  53.698  1.00  0.00     0.003 A 
HETATM   17  C   UNL     1       5.022  28.868  52.856  1.00  0.00     0.001 A 
HETATM   18  C   UNL     1       5.695  27.720  53.283  1.00  0.00     0.013 A 
BRANCH  14  19
HETATM   19  O   UNL     1       4.236  27.384  56.649  1.00  0.00    -0.360 OA
HETATM   20  H   UNL     1       5.071  27.205  57.132  1.00  0.00     0.217 HD
ENDBRANCH  14  19
ENDBRANCH   7  13
BRANCH   1  21
HETATM   21  N   UNL     1       7.218  27.288  56.791  1.00  0.00    -0.220 N 
HETATM   22  H   UNL     1       6.305  27.599  57.128  1.00  0.00     0.200 HD
BRANCH  21  23
HETATM   23  S   UNL     1       8.286  28.570  56.421  1.00  0.00     0.240 S 
HETATM   24  C   UNL     1       7.230  29.954  56.778  1.00  0.00     0.187 C 
HETATM   25  O   UNL     1       8.527  28.591  54.994  1.00  0.00    -0.205 OA
HETATM   26  O   UNL     1       9.347  28.593  57.405  1.00  0.00    -0.205 OA
ENDBRANCH  21  23
ENDBRANCH   1  21
TORSDOF 4
ENDMDL
MODEL 6
REMARK VINA RESULT:      -7.2      2.816      5.288
REMARK  4 active torsions:
REMARK  status: ('A' for Active; 'I' for Inactive)
REMARK    1  A    between atoms: S_2  and  N_3 
REMARK    2  A    between atoms: N_3  and  N_4 
REMARK    3  A    between atoms: C_10  and  C_11 
REMARK    4  A    between atoms: C_12  and  O_13 
ROOT
HETATM    1  N   UNL     1       5.392  26.519  53.245  1.00  0.00    -0.224 N 
HETATM    2  C   UNL     1       5.050  25.992  52.001  1.00  0.00     0.276 C 
HETATM    3  O   UNL     1       4.764  24.822  51.775  1.00  0.00    -0.266 OA
HETATM    4  C   UNL     1       5.043  26.976  50.891  1.00  0.00     0.055 A 
HETATM    5  C   UNL     1       5.410  28.304  51.158  1.00  0.00     0.026 A 
HETATM    6  N   UNL     1       5.800  28.712  52.452  1.00  0.00    -0.265 NA
HETATM    7  C   UNL     1       5.148  27.931  53.507  1.00  0.00     0.224 C 
HETATM    8  C   UNL     1       4.719  26.567  49.591  1.00  0.00     0.019 A 
HETATM    9  C   UNL     1       4.791  27.479  48.541  1.00  0.00     0.001 A 
HETATM   10  C   UNL     1       5.203  28.788  48.786  1.00  0.00     0.002 A 
HETATM   11  C   UNL     1       5.527  29.194  50.084  1.00  0.00     0.024 A 
HETATM   12  H   UNL     1       5.642  29.711  52.580  1.00  0.00     0.130 HD
ENDROOT
BRANCH   7  13
HETATM   13  C   UNL     1       5.657  28.424  54.850  1.00  0.00     0.014 A 
HETATM   14  C   UNL     1       7.019  28.638  55.112  1.00  0.00     0.075 A 
HETATM   15  C   UNL     1       7.458  29.027  56.375  1.00  0.00     0.037 A 
HETATM   16  C   UNL     1       6.539  29.216  57.403  1.00  0.00     0.003 A 
HETATM   17  C   UNL     1       5.183  29.011  57.169  1.00  0.00     0.001 A 
HETATM   18  C   UNL     1       4.743  28.615  55.903  1.00  0.00     0.013 A 
BRANCH  14  19
HETATM   19  O   UNL     1       7.984  28.469  54.159  1.00  0.00    -0.360 OA
HETATM   20  H   UNL     1       7.556  28.218  53.313  1.00  0.00     0.217 HD
ENDBRANCH  14  19
ENDBRANCH   7  13
BRANCH   1  21
HETATM   21  N   UNL     1       5.608  25.621  54.412  1.00  0.00    -0.220 N 
HETATM   22  H   UNL     1       5.224  25.929  55.308  1.00  0.00     0.200 HD
BRANCH  21  23
HETATM   23  S   UNL     1       7.100  24.799  54.551  1.00  0.00     0.240 S 
HETATM   24  C   UNL     1       7.512  25.205  56.232  1.00  0.00     0.187 C 
HETATM   25  O   UNL     1       8.083  25.455  53.716  1.00  0.00    -0.205 OA
HETATM   26  O   UNL     1       6.853  23.374  54.516  1.00  0.00    -0.205 OA
ENDBRANCH  21  23
ENDBRANCH   1  21
TORSDOF 4
ENDMDL
MODEL 7
REMARK VINA RESULT:      -7.0      2.678      4.940
REMARK  4 active torsions:
REMARK  status: ('A' for Active; 'I' for Inactive)
REMARK    1  A    between atoms: S_2  and  N_3 
REMARK    2  A    between atoms: N_3  and  N_4 
REMARK    3  A    between atoms: C_10  and  C_11 
REMARK    4  A    between atoms: C_12  and  O_13 
ROOT
HETATM    1  N   UNL     1       6.982  26.412  53.796  1.00  0.00    -0.224 N 
HETATM    2  C   UNL     1       6.330  25.896  52.678  1.00  0.00     0.276 C 
HETATM    3  O   UNL     1       6.214  24.707  52.403  1.00  0.00    -0.266 OA
HETATM    4  C   UNL     1       5.741  26.916  51.776  1.00  0.00     0.055 A 
HETATM    5  C   UNL     1       5.915  28.274  52.083  1.00  0.00     0.026 A 
HETATM    6  N   UNL     1       6.651  28.683  53.216  1.00  0.00    -0.265 NA
HETATM    7  C   UNL     1       6.579  27.713  54.312  1.00  0.00     0.224 C 
HETATM    8  C   UNL     1       5.063  26.522  50.615  1.00  0.00     0.019 A 
HETATM    9  C   UNL     1       4.582  27.487  49.735  1.00  0.00     0.001 A 
HETATM   10  C   UNL     1       4.794  28.838  50.003  1.00  0.00     0.002 A 
HETATM   11  C   UNL     1       5.470  29.229  51.162  1.00  0.00     0.024 A 
HETATM   12  H   UNL     1       6.359  29.610  53.523  1.00  0.00     0.130 HD
ENDROOT
BRANCH   7  13
HETATM   13  C   UNL     1       7.425  28.228  55.463  1.00  0.00     0.014 A 
HETATM   14  C   UNL     1       7.003  28.167  56.800  1.00  0.00     0.075 A 
HETATM   15  C   UNL     1       7.775  28.709  57.825  1.00  0.00     0.037 A 
HETATM   16  C   UNL     1       8.991  29.319  57.532  1.00  0.00     0.003 A 
HETATM   17  C   UNL     1       9.432  29.392  56.214  1.00  0.00     0.001 A 
HETATM   18  C   UNL     1       8.656  28.853  55.185  1.00  0.00     0.013 A 
BRANCH  14  19
HETATM   19  O   UNL     1       5.821  27.589  57.170  1.00  0.00    -0.360 OA
HETATM   20  H   UNL     1       5.633  26.836  56.570  1.00  0.00     0.217 HD
ENDBRANCH  14  19
ENDBRANCH   7  13
BRANCH   1  21
HETATM   21  N   UNL     1       7.766  25.519  54.692  1.00  0.00    -0.220 N 
HETATM   22  H   UNL     1       8.645  25.152  54.322  1.00  0.00     0.200 HD
BRANCH  21  23
HETATM   23  S   UNL     1       6.927  24.415  55.692  1.00  0.00     0.240 S 
HETATM   24  C   UNL     1       7.928  24.517  57.157  1.00  0.00     0.187 C 
HETATM   25  O   UNL     1       7.097  23.077  55.168  1.00  0.00    -0.205 OA
HETATM   26  O   UNL     1       5.638  24.978  56.030  1.00  0.00    -0.205 OA
ENDBRANCH  21  23
ENDBRANCH   1  21
TORSDOF 4
ENDMDL
MODEL 8
REMARK VINA RESULT:      -6.8      2.316      4.409
REMARK  4 active torsions:
REMARK  status: ('A' for Active; 'I' for Inactive)
REMARK    1  A    between atoms: S_2  and  N_3 
REMARK    2  A    between atoms: N_3  and  N_4 
REMARK    3  A    between atoms: C_10  and  C_11 
REMARK    4  A    between atoms: C_12  and  O_13 
ROOT
HETATM    1  N   UNL     1       6.603  27.386  54.140  1.00  0.00    -0.224 N 
HETATM    2  C   UNL     1       7.268  26.512  54.998  1.00  0.00     0.276 C 
HETATM    3  O   UNL     1       7.633  26.769  56.139  1.00  0.00    -0.266 OA
HETATM    4  C   UNL     1       7.529  25.165  54.433  1.00  0.00     0.055 A 
HETATM    5  C   UNL     1       7.140  24.898  53.111  1.00  0.00     0.026 A 
HETATM    6  N   UNL     1       6.526  25.885  52.311  1.00  0.00    -0.265 NA
HETATM    7  C   UNL     1       5.742  26.839  53.101  1.00  0.00     0.224 C 
HETATM    8  C   UNL     1       8.195  24.198  55.197  1.00  0.00     0.019 A 
HETATM    9  C   UNL     1       8.505  22.964  54.631  1.00  0.00     0.001 A 
HETATM   10  C   UNL     1       8.169  22.705  53.303  1.00  0.00     0.002 A 
HETATM   11  C   UNL     1       7.505  23.671  52.543  1.00  0.00     0.024 A 
HETATM   12  H   UNL     1       5.960  25.458  51.579  1.00  0.00     0.130 HD
ENDROOT
BRANCH   7  13
HETATM   13  C   UNL     1       5.154  27.872  52.156  1.00  0.00     0.014 A 
HETATM   14  C   UNL     1       3.808  28.266  52.207  1.00  0.00     0.075 A 
HETATM   15  C   UNL     1       3.285  29.168  51.284  1.00  0.00     0.037 A 
HETATM   16  C   UNL     1       4.102  29.699  50.290  1.00  0.00     0.003 A 
HETATM   17  C   UNL     1       5.441  29.325  50.219  1.00  0.00     0.001 A 
HETATM   18  C   UNL     1       5.964  28.417  51.142  1.00  0.00     0.013 A 
BRANCH  14  19
HETATM   19  O   UNL     1       2.940  27.788  53.148  1.00  0.00    -0.360 OA
HETATM   20  H   UNL     1       2.739  28.502  53.790  1.00  0.00     0.217 HD
ENDBRANCH  14  19
ENDBRANCH   7  13
BRANCH   1  21
HETATM   21  N   UNL     1       6.430  28.818  54.507  1.00  0.00    -0.220 N 
HETATM   22  H   UNL     1       7.282  29.358  54.672  1.00  0.00     0.200 HD
BRANCH  21  23
HETATM   23  S   UNL     1       5.132  29.252  55.531  1.00  0.00     0.240 S 
HETATM   24  C   UNL     1       6.042  29.751  56.975  1.00  0.00     0.187 C 
HETATM   25  O   UNL     1       4.397  28.062  55.897  1.00  0.00    -0.205 OA
HETATM   26  O   UNL     1       4.502  30.444  55.006  1.00  0.00    -0.205 OA
ENDBRANCH  21  23
ENDBRANCH   1  21
TORSDOF 4
ENDMDL
MODEL 9
REMARK VINA RESULT:      -6.7      2.142      4.164
REMARK  4 active torsions:
REMARK  status: ('A' for Active; 'I' for Inactive)
REMARK    1  A    between atoms: S_2  and  N_3 
REMARK    2  A    between atoms: N_3  and  N_4 
REMARK    3  A    between atoms: C_10  and  C_11 
REMARK    4  A    between atoms: C_12  and  O_13 
ROOT
HETATM    1  N   UNL     1       5.743  25.809  54.883  1.00  0.00    -0.224 N 
HETATM    2  C   UNL     1       6.309  24.821  55.686  1.00  0.00     0.276 C 
HETATM    3  O   UNL     1       6.302  24.805  56.911  1.00  0.00    -0.266 OA
HETATM    4  C   UNL     1       6.961  23.715  54.943  1.00  0.00     0.055 A 
HETATM    5  C   UNL     1       6.995  23.767  53.541  1.00  0.00     0.026 A 
HETATM    6  N   UNL     1       6.440  24.854  52.832  1.00  0.00    -0.265 NA
HETATM    7  C   UNL     1       5.309  25.464  53.537  1.00  0.00     0.224 C 
HETATM    8  C   UNL     1       7.570  22.663  55.639  1.00  0.00     0.019 A 
HETATM    9  C   UNL     1       8.247  21.669  54.936  1.00  0.00     0.001 A 
HETATM   10  C   UNL     1       8.332  21.738  53.546  1.00  0.00     0.002 A 
HETATM   11  C   UNL     1       7.723  22.789  52.854  1.00  0.00     0.024 A 
HETATM   12  H   UNL     1       6.180  24.576  51.886  1.00  0.00     0.130 HD
ENDROOT
BRANCH   7  13
HETATM   13  C   UNL     1       4.809  26.637  52.712  1.00  0.00     0.014 A 
HETATM   14  C   UNL     1       5.286  26.914  51.421  1.00  0.00     0.075 A 
HETATM   15  C   UNL     1       4.854  28.035  50.717  1.00  0.00     0.037 A 
HETATM   16  C   UNL     1       3.928  28.903  51.291  1.00  0.00     0.003 A 
HETATM   17  C   UNL     1       3.439  28.649  52.570  1.00  0.00     0.001 A 
HETATM   18  C   UNL     1       3.876  27.527  53.277  1.00  0.00     0.013 A 
BRANCH  14  19
HETATM   19  O   UNL     1       6.198  26.115  50.790  1.00  0.00    -0.360 OA
HETATM   20  H   UNL     1       6.779  25.701  51.464  1.00  0.00     0.217 HD
ENDBRANCH  14  19
ENDBRANCH   7  13
BRANCH   1  21
HETATM   21  N   UNL     1       5.211  27.061  55.488  1.00  0.00    -0.220 N 
HETATM   22  H   UNL     1       4.322  27.407  55.122  1.00  0.00     0.200 HD
BRANCH  21  23
HETATM   23  S   UNL     1       6.309  28.300  55.913  1.00  0.00     0.240 S 
HETATM   24  C   UNL     1       7.582  28.000  54.709  1.00  0.00     0.187 C 
HETATM   25  O   UNL     1       6.885  28.000  57.206  1.00  0.00    -0.205 OA
HETATM   26  O   UNL     1       5.719  29.579  55.584  1.00  0.00    -0.205 OA
ENDBRANCH  21  23
ENDBRANCH   1  21
TORSDOF 4
ENDMDL
MODEL 10
REMARK VINA RESULT:      -6.4      3.404      4.909
REMARK  4 active torsions:
REMARK  status: ('A' for Active; 'I' for Inactive)
REMARK    1  A    between atoms: S_2  and  N_3 
REMARK    2  A    between atoms: N_3  and  N_4 
REMARK    3  A    between atoms: C_10  and  C_11 
REMARK    4  A    between atoms: C_12  and  O_13 
ROOT
HETATM    1  N   UNL     1       6.485  28.444  55.243  1.00  0.00    -0.224 N 
HETATM    2  C   UNL     1       7.303  27.345  54.993  1.00  0.00     0.276 C 
HETATM    3  O   UNL     1       8.478  27.237  55.327  1.00  0.00    -0.266 OA
HETATM    4  C   UNL     1       6.647  26.236  54.258  1.00  0.00     0.055 A 
HETATM    5  C   UNL     1       5.314  26.390  53.849  1.00  0.00     0.026 A 
HETATM    6  N   UNL     1       4.598  27.579  54.105  1.00  0.00    -0.265 NA
HETATM    7  C   UNL     1       5.045  28.249  55.330  1.00  0.00     0.224 C 
HETATM    8  C   UNL     1       7.367  25.077  53.944  1.00  0.00     0.019 A 
HETATM    9  C   UNL     1       6.767  24.074  53.186  1.00  0.00     0.001 A 
HETATM   10  C   UNL     1       5.460  24.238  52.729  1.00  0.00     0.002 A 
HETATM   11  C   UNL     1       4.743  25.396  53.045  1.00  0.00     0.024 A 
HETATM   12  H   UNL     1       3.594  27.402  54.125  1.00  0.00     0.130 HD
ENDROOT
BRANCH   7  13
HETATM   13  C   UNL     1       4.240  29.526  55.497  1.00  0.00     0.014 A 
HETATM   14  C   UNL     1       3.843  30.014  56.752  1.00  0.00     0.075 A 
HETATM   15  C   UNL     1       3.050  31.153  56.865  1.00  0.00     0.037 A 
HETATM   16  C   UNL     1       2.640  31.832  55.721  1.00  0.00     0.003 A 
HETATM   17  C   UNL     1       3.021  31.369  54.465  1.00  0.00     0.001 A 
HETATM   18  C   UNL     1       3.813  30.224  54.351  1.00  0.00     0.013 A 
BRANCH  14  19
HETATM   19  O   UNL     1       4.199  29.402  57.921  1.00  0.00    -0.360 OA
HETATM   20  H   UNL     1       4.552  28.509  57.720  1.00  0.00     0.217 HD
ENDBRANCH  14  19
ENDBRANCH   7  13
BRANCH   1  21
HETATM   21  N   UNL     1       7.054  29.695  55.815  1.00  0.00    -0.220 N 
HETATM   22  H   UNL     1       7.717  30.209  55.231  1.00  0.00     0.200 HD
BRANCH  21  23
HETATM   23  S   UNL     1       7.428  29.742  57.482  1.00  0.00     0.240 S 
HETATM   24  C   UNL     1       9.197  29.885  57.390  1.00  0.00     0.187 C 
HETATM   25  O   UNL     1       7.148  28.448  58.067  1.00  0.00    -0.205 OA
HETATM   26  O   UNL     1       6.939  30.985  58.036  1.00  0.00    -0.205 OA
ENDBRANCH  21  23
ENDBRANCH   1  21
TORSDOF 4
ENDMDL
