MODEL 1
REMARK VINA RESULT:      -8.9      0.000      0.000
REMARK  5 active torsions:
REMARK  status: ('A' for Active; 'I' for Inactive)
REMARK    1  A    between atoms: C_4  and  C_5 
REMARK       I    between atoms: C_5  and  N_6 
REMARK    2  A    between atoms: N_6  and  C_7 
REMARK    3  A    between atoms: C_7  and  C_8 
REMARK    4  A    between atoms: C_8  and  C_9 
REMARK    5  A    between atoms: C_18  and  O_19 
ROOT
HETATM    1  C   UNL     1       8.187  25.244  57.096  1.00  0.00     0.254 C 
HETATM    2  N   UNL     1       7.596  26.454  56.793  1.00  0.00    -0.356 N 
HETATM    3  O   UNL     1       8.772  25.028  58.154  1.00  0.00    -0.268 OA
HETATM    4  H   UNL     1       6.876  26.464  56.080  1.00  0.00     0.162 HD
ENDROOT
BRANCH   1   5
HETATM    5  C   UNL     1       8.059  24.148  56.095  1.00  0.00     0.066 A 
HETATM    6  C   UNL     1       7.927  24.429  54.727  1.00  0.00     0.026 A 
HETATM    7  C   UNL     1       7.801  23.391  53.794  1.00  0.00    -0.060 A 
HETATM    8  C   UNL     1       7.704  23.685  52.326  1.00  0.00     0.048 C 
HETATM    9  C   UNL     1       7.829  22.063  54.241  1.00  0.00     0.016 A 
HETATM   10  C   UNL     1       7.969  21.757  55.603  1.00  0.00    -0.027 A 
HETATM   11  C   UNL     1       8.107  22.808  56.521  1.00  0.00     0.087 A 
HETATM   12  C   UNL     1       8.044  20.321  56.037  1.00  0.00     0.051 C 
BRANCH  11  13
HETATM   13  O   UNL     1       8.296  22.469  57.838  1.00  0.00    -0.359 OA
HETATM   14  H   UNL     1       8.136  23.271  58.384  1.00  0.00     0.218 HD
ENDBRANCH  11  13
ENDBRANCH   1   5
BRANCH   2  15
HETATM   15  C   UNL     1       7.570  27.533  57.768  1.00  0.00     0.136 C 
BRANCH  15  16
HETATM   16  C   UNL     1       7.375  28.940  57.128  1.00  0.00    -0.004 C 
HETATM   17  C   UNL     1       7.482  28.796  55.592  1.00  0.00     0.021 C 
HETATM   18  C   UNL     1       5.931  29.405  57.436  1.00  0.00     0.021 C 
BRANCH  16  19
HETATM   19  C   UNL     1       8.456  29.926  57.607  1.00  0.00    -0.046 A 
HETATM   20  C   UNL     1       8.157  30.886  58.591  1.00  0.00     0.027 A 
HETATM   21  C   UNL     1       9.143  31.769  59.009  1.00  0.00     0.116 A 
HETATM   22  N   UNL     1      10.400  31.771  58.526  1.00  0.00    -0.273 NA
HETATM   23  C   UNL     1      10.685  30.842  57.594  1.00  0.00     0.116 A 
HETATM   24  C   UNL     1       9.765  29.918  57.111  1.00  0.00     0.027 A 
ENDBRANCH  16  19
ENDBRANCH  15  16
ENDBRANCH   2  15
TORSDOF 5
ENDMDL
MODEL 2
REMARK VINA RESULT:      -8.7      2.172      7.472
REMARK  5 active torsions:
REMARK  status: ('A' for Active; 'I' for Inactive)
REMARK    1  A    between atoms: C_4  and  C_5 
REMARK       I    between atoms: C_5  and  N_6 
REMARK    2  A    between atoms: N_6  and  C_7 
REMARK    3  A    between atoms: C_7  and  C_8 
REMARK    4  A    between atoms: C_8  and  C_9 
REMARK    5  A    between atoms: C_18  and  O_19 
ROOT
HETATM    1  C   UNL     1       7.079  26.695  56.858  1.00  0.00     0.254 C 
HETATM    2  N   UNL     1       6.381  26.621  55.671  1.00  0.00    -0.356 N 
HETATM    3  O   UNL     1       7.252  25.730  57.599  1.00  0.00    -0.268 OA
HETATM    4  H   UNL     1       6.550  27.338  54.976  1.00  0.00     0.162 HD
ENDROOT
BRANCH   1   5
HETATM    5  C   UNL     1       7.683  28.009  57.218  1.00  0.00     0.066 A 
HETATM    6  C   UNL     1       9.057  28.244  57.053  1.00  0.00     0.026 A 
HETATM    7  C   UNL     1       9.615  29.481  57.400  1.00  0.00    -0.060 A 
HETATM    8  C   UNL     1      11.076  29.752  57.184  1.00  0.00     0.048 C 
HETATM    9  C   UNL     1       8.783  30.492  57.897  1.00  0.00     0.016 A 
HETATM   10  C   UNL     1       7.406  30.283  58.063  1.00  0.00    -0.027 A 
HETATM   11  C   UNL     1       6.861  29.045  57.698  1.00  0.00     0.087 A 
HETATM   12  C   UNL     1       6.538  31.409  58.552  1.00  0.00     0.051 C 
BRANCH  11  13
HETATM   13  O   UNL     1       5.501  28.896  57.823  1.00  0.00    -0.359 OA
HETATM   14  H   UNL     1       5.299  28.746  58.774  1.00  0.00     0.218 HD
ENDBRANCH  11  13
ENDBRANCH   1   5
BRANCH   2  15
HETATM   15  C   UNL     1       5.867  25.348  55.189  1.00  0.00     0.136 C 
BRANCH  15  16
HETATM   16  C   UNL     1       6.558  24.856  53.883  1.00  0.00    -0.004 C 
HETATM   17  C   UNL     1       5.484  24.744  52.776  1.00  0.00     0.021 C 
HETATM   18  C   UNL     1       7.556  25.951  53.433  1.00  0.00     0.021 C 
BRANCH  16  19
HETATM   19  C   UNL     1       7.208  23.474  54.081  1.00  0.00    -0.046 A 
HETATM   20  C   UNL     1       7.327  22.922  55.369  1.00  0.00     0.027 A 
HETATM   21  C   UNL     1       7.918  21.677  55.530  1.00  0.00     0.116 A 
HETATM   22  N   UNL     1       8.399  20.939  54.511  1.00  0.00    -0.273 NA
HETATM   23  C   UNL     1       8.270  21.465  53.278  1.00  0.00     0.116 A 
HETATM   24  C   UNL     1       7.695  22.704  53.018  1.00  0.00     0.027 A 
ENDBRANCH  16  19
ENDBRANCH  15  16
ENDBRANCH   2  15
TORSDOF 5
ENDMDL
MODEL 3
REMARK VINA RESULT:      -8.6      1.422      2.432
REMARK  5 active torsions:
REMARK  status: ('A' for Active; 'I' for Inactive)
REMARK    1  A    between atoms: C_4  and  C_5 
REMARK       I    between atoms: C_5  and  N_6 
REMARK    2  A    between atoms: N_6  and  C_7 
REMARK    3  A    between atoms: C_7  and  C_8 
REMARK    4  A    between atoms: C_8  and  C_9 
REMARK    5  A    between atoms: C_18  and  O_19 
ROOT
HETATM    1  C   UNL     1       7.167  25.541  56.773  1.00  0.00     0.254 C 
HETATM    2  N   UNL     1       8.044  26.598  56.898  1.00  0.00    -0.356 N 
HETATM    3  O   UNL     1       6.189  25.387  57.502  1.00  0.00    -0.268 OA
HETATM    4  H   UNL     1       8.612  26.840  56.095  1.00  0.00     0.162 HD
ENDROOT
BRANCH   1   5
HETATM    5  C   UNL     1       7.409  24.575  55.665  1.00  0.00     0.066 A 
HETATM    6  C   UNL     1       7.541  23.202  55.917  1.00  0.00     0.026 A 
HETATM    7  C   UNL     1       7.775  22.303  54.868  1.00  0.00    -0.060 A 
HETATM    8  C   UNL     1       7.873  20.828  55.128  1.00  0.00     0.048 C 
HETATM    9  C   UNL     1       7.856  22.788  53.556  1.00  0.00     0.016 A 
HETATM   10  C   UNL     1       7.720  24.156  53.278  1.00  0.00    -0.027 A 
HETATM   11  C   UNL     1       7.472  25.040  54.338  1.00  0.00     0.087 A 
HETATM   12  C   UNL     1       7.763  24.632  51.853  1.00  0.00     0.051 C 
BRANCH  11  13
HETATM   13  O   UNL     1       7.289  26.364  54.021  1.00  0.00    -0.359 OA
HETATM   14  H   UNL     1       7.762  26.905  54.692  1.00  0.00     0.218 HD
ENDBRANCH  11  13
ENDBRANCH   1   5
BRANCH   2  15
HETATM   15  C   UNL     1       7.807  27.649  57.876  1.00  0.00     0.136 C 
BRANCH  15  16
HETATM   16  C   UNL     1       7.462  29.025  57.233  1.00  0.00    -0.004 C 
HETATM   17  C   UNL     1       8.020  29.043  55.791  1.00  0.00     0.021 C 
HETATM   18  C   UNL     1       5.921  29.122  57.120  1.00  0.00     0.021 C 
BRANCH  16  19
HETATM   19  C   UNL     1       8.096  30.185  58.022  1.00  0.00    -0.046 A 
HETATM   20  C   UNL     1       7.314  30.967  58.890  1.00  0.00     0.027 A 
HETATM   21  C   UNL     1       7.901  32.010  59.591  1.00  0.00     0.116 A 
HETATM   22  N   UNL     1       9.205  32.335  59.497  1.00  0.00    -0.273 NA
HETATM   23  C   UNL     1       9.953  31.575  58.675  1.00  0.00     0.116 A 
HETATM   24  C   UNL     1       9.455  30.512  57.931  1.00  0.00     0.027 A 
ENDBRANCH  16  19
ENDBRANCH  15  16
ENDBRANCH   2  15
TORSDOF 5
ENDMDL
MODEL 4
REMARK VINA RESULT:      -8.6      4.945      8.489
REMARK  5 active torsions:
REMARK  status: ('A' for Active; 'I' for Inactive)
REMARK    1  A    between atoms: C_4  and  C_5 
REMARK       I    between atoms: C_5  and  N_6 
REMARK    2  A    between atoms: N_6  and  C_7 
REMARK    3  A    between atoms: C_7  and  C_8 
REMARK    4  A    between atoms: C_8  and  C_9 
REMARK    5  A    between atoms: C_18  and  O_19 
ROOT
HETATM    1  C   UNL     1       5.171  26.501  52.232  1.00  0.00     0.254 C 
HETATM    2  N   UNL     1       5.579  25.184  52.189  1.00  0.00    -0.356 N 
HETATM    3  O   UNL     1       4.915  27.093  53.278  1.00  0.00    -0.268 OA
HETATM    4  H   UNL     1       6.073  24.868  51.363  1.00  0.00     0.162 HD
ENDROOT
BRANCH   1   5
HETATM    5  C   UNL     1       5.088  27.236  50.939  1.00  0.00     0.066 A 
HETATM    6  C   UNL     1       4.545  26.631  49.796  1.00  0.00     0.026 A 
HETATM    7  C   UNL     1       4.476  27.329  48.583  1.00  0.00    -0.060 A 
HETATM    8  C   UNL     1       3.856  26.701  47.369  1.00  0.00     0.048 C 
HETATM    9  C   UNL     1       4.939  28.650  48.527  1.00  0.00     0.016 A 
HETATM   10  C   UNL     1       5.479  29.279  49.658  1.00  0.00    -0.027 A 
HETATM   11  C   UNL     1       5.527  28.571  50.867  1.00  0.00     0.087 A 
HETATM   12  C   UNL     1       5.919  30.713  49.571  1.00  0.00     0.051 C 
BRANCH  11  13
HETATM   13  O   UNL     1       6.011  29.238  51.966  1.00  0.00    -0.359 OA
HETATM   14  H   UNL     1       5.244  29.586  52.473  1.00  0.00     0.218 HD
ENDBRANCH  11  13
ENDBRANCH   1   5
BRANCH   2  15
HETATM   15  C   UNL     1       5.804  24.435  53.416  1.00  0.00     0.136 C 
BRANCH  15  16
HETATM   16  C   UNL     1       7.311  24.243  53.756  1.00  0.00    -0.004 C 
HETATM   17  C   UNL     1       8.150  24.782  52.574  1.00  0.00     0.021 C 
HETATM   18  C   UNL     1       7.638  25.132  54.981  1.00  0.00     0.021 C 
BRANCH  16  19
HETATM   19  C   UNL     1       7.651  22.756  53.965  1.00  0.00    -0.046 A 
HETATM   20  C   UNL     1       7.980  21.940  52.868  1.00  0.00     0.027 A 
HETATM   21  C   UNL     1       8.281  20.602  53.074  1.00  0.00     0.116 A 
HETATM   22  N   UNL     1       8.280  20.012  54.284  1.00  0.00    -0.273 NA
HETATM   23  C   UNL     1       7.978  20.800  55.334  1.00  0.00     0.116 A 
HETATM   24  C   UNL     1       7.661  22.149  55.227  1.00  0.00     0.027 A 
ENDBRANCH  16  19
ENDBRANCH  15  16
ENDBRANCH   2  15
TORSDOF 5
ENDMDL
MODEL 5
REMARK VINA RESULT:      -8.6      2.078      2.808
REMARK  5 active torsions:
REMARK  status: ('A' for Active; 'I' for Inactive)
REMARK    1  A    between atoms: C_4  and  C_5 
REMARK       I    between atoms: C_5  and  N_6 
REMARK    2  A    between atoms: N_6  and  C_7 
REMARK    3  A    between atoms: C_7  and  C_8 
REMARK    4  A    between atoms: C_8  and  C_9 
REMARK    5  A    between atoms: C_18  and  O_19 
ROOT
HETATM    1  C   UNL     1       7.126  24.865  54.125  1.00  0.00     0.254 C 
HETATM    2  N   UNL     1       5.942  25.309  54.677  1.00  0.00    -0.356 N 
HETATM    3  O   UNL     1       7.871  25.582  53.462  1.00  0.00    -0.268 OA
HETATM    4  H   UNL     1       5.557  24.787  55.455  1.00  0.00     0.162 HD
ENDROOT
BRANCH   1   5
HETATM    5  C   UNL     1       7.522  23.454  54.396  1.00  0.00     0.066 A 
HETATM    6  C   UNL     1       7.746  22.551  53.346  1.00  0.00     0.026 A 
HETATM    7  C   UNL     1       8.113  21.225  53.612  1.00  0.00    -0.060 A 
HETATM    8  C   UNL     1       8.397  20.267  52.492  1.00  0.00     0.048 C 
HETATM    9  C   UNL     1       8.275  20.813  54.941  1.00  0.00     0.016 A 
HETATM   10  C   UNL     1       8.064  21.701  56.008  1.00  0.00    -0.027 A 
HETATM   11  C   UNL     1       7.711  23.027  55.723  1.00  0.00     0.087 A 
HETATM   12  C   UNL     1       8.295  21.235  57.417  1.00  0.00     0.051 C 
BRANCH  11  13
HETATM   13  O   UNL     1       7.567  23.880  56.790  1.00  0.00    -0.359 OA
HETATM   14  H   UNL     1       7.860  23.406  57.600  1.00  0.00     0.218 HD
ENDBRANCH  11  13
ENDBRANCH   1   5
BRANCH   2  15
HETATM   15  C   UNL     1       5.546  26.705  54.562  1.00  0.00     0.136 C 
BRANCH  15  16
HETATM   16  C   UNL     1       5.424  27.428  55.935  1.00  0.00    -0.004 C 
HETATM   17  C   UNL     1       4.281  28.466  55.840  1.00  0.00     0.021 C 
HETATM   18  C   UNL     1       4.992  26.379  56.988  1.00  0.00     0.021 C 
BRANCH  16  19
HETATM   19  C   UNL     1       6.728  28.163  56.296  1.00  0.00    -0.046 A 
HETATM   20  C   UNL     1       7.022  28.476  57.636  1.00  0.00     0.027 A 
HETATM   21  C   UNL     1       8.200  29.141  57.943  1.00  0.00     0.116 A 
HETATM   22  N   UNL     1       9.108  29.520  57.023  1.00  0.00    -0.273 NA
HETATM   23  C   UNL     1       8.829  29.207  55.743  1.00  0.00     0.116 A 
HETATM   24  C   UNL     1       7.676  28.545  55.338  1.00  0.00     0.027 A 
ENDBRANCH  16  19
ENDBRANCH  15  16
ENDBRANCH   2  15
TORSDOF 5
ENDMDL
MODEL 6
REMARK VINA RESULT:      -8.5      4.966      8.522
REMARK  5 active torsions:
REMARK  status: ('A' for Active; 'I' for Inactive)
REMARK    1  A    between atoms: C_4  and  C_5 
REMARK       I    between atoms: C_5  and  N_6 
REMARK    2  A    between atoms: N_6  and  C_7 
REMARK    3  A    between atoms: C_7  and  C_8 
REMARK    4  A    between atoms: C_8  and  C_9 
REMARK    5  A    between atoms: C_18  and  O_19 
ROOT
HETATM    1  C   UNL     1       5.027  26.575  52.260  1.00  0.00     0.254 C 
HETATM    2  N   UNL     1       5.530  25.299  52.110  1.00  0.00    -0.356 N 
HETATM    3  O   UNL     1       4.676  27.037  53.343  1.00  0.00    -0.268 OA
HETATM    4  H   UNL     1       6.087  25.103  51.287  1.00  0.00     0.162 HD
ENDROOT
BRANCH   1   5
HETATM    5  C   UNL     1       4.958  27.432  51.044  1.00  0.00     0.066 A 
HETATM    6  C   UNL     1       5.424  28.756  51.064  1.00  0.00     0.026 A 
HETATM    7  C   UNL     1       5.349  29.556  49.916  1.00  0.00    -0.060 A 
HETATM    8  C   UNL     1       5.885  30.957  49.920  1.00  0.00     0.048 C 
HETATM    9  C   UNL     1       4.821  29.013  48.737  1.00  0.00     0.016 A 
HETATM   10  C   UNL     1       4.356  27.690  48.691  1.00  0.00    -0.027 A 
HETATM   11  C   UNL     1       4.452  26.900  49.844  1.00  0.00     0.087 A 
HETATM   12  C   UNL     1       3.842  27.129  47.395  1.00  0.00     0.051 C 
BRANCH  11  13
HETATM   13  O   UNL     1       4.038  25.593  49.745  1.00  0.00    -0.359 OA
HETATM   14  H   UNL     1       4.831  25.035  49.583  1.00  0.00     0.218 HD
ENDBRANCH  11  13
ENDBRANCH   1   5
BRANCH   2  15
HETATM   15  C   UNL     1       5.744  24.444  53.267  1.00  0.00     0.136 C 
BRANCH  15  16
HETATM   16  C   UNL     1       7.246  24.281  53.647  1.00  0.00    -0.004 C 
HETATM   17  C   UNL     1       8.105  24.793  52.467  1.00  0.00     0.021 C 
HETATM   18  C   UNL     1       7.534  25.212  54.850  1.00  0.00     0.021 C 
BRANCH  16  19
HETATM   19  C   UNL     1       7.599  22.806  53.910  1.00  0.00    -0.046 A 
HETATM   20  C   UNL     1       7.941  21.955  52.844  1.00  0.00     0.027 A 
HETATM   21  C   UNL     1       8.253  20.627  53.099  1.00  0.00     0.116 A 
HETATM   22  N   UNL     1       8.251  20.081  54.330  1.00  0.00    -0.273 NA
HETATM   23  C   UNL     1       7.936  20.902  55.350  1.00  0.00     0.116 A 
HETATM   24  C   UNL     1       7.608  22.244  55.193  1.00  0.00     0.027 A 
ENDBRANCH  16  19
ENDBRANCH  15  16
ENDBRANCH   2  15
TORSDOF 5
ENDMDL
MODEL 7
REMARK VINA RESULT:      -8.3      2.239      7.824
REMARK  5 active torsions:
REMARK  status: ('A' for Active; 'I' for Inactive)
REMARK    1  A    between atoms: C_4  and  C_5 
REMARK       I    between atoms: C_5  and  N_6 
REMARK    2  A    between atoms: N_6  and  C_7 
REMARK    3  A    between atoms: C_7  and  C_8 
REMARK    4  A    between atoms: C_8  and  C_9 
REMARK    5  A    between atoms: C_18  and  O_19 
ROOT
HETATM    1  C   UNL     1       7.412  26.848  56.948  1.00  0.00     0.254 C 
HETATM    2  N   UNL     1       7.208  26.248  55.723  1.00  0.00    -0.356 N 
HETATM    3  O   UNL     1       8.138  26.373  57.818  1.00  0.00    -0.268 OA
HETATM    4  H   UNL     1       6.880  26.828  54.960  1.00  0.00     0.162 HD
ENDROOT
BRANCH   1   5
HETATM    5  C   UNL     1       6.744  28.157  57.191  1.00  0.00     0.066 A 
HETATM    6  C   UNL     1       5.432  28.393  56.752  1.00  0.00     0.026 A 
HETATM    7  C   UNL     1       4.815  29.630  56.980  1.00  0.00    -0.060 A 
HETATM    8  C   UNL     1       3.397  29.872  56.553  1.00  0.00     0.048 C 
HETATM    9  C   UNL     1       5.516  30.627  57.671  1.00  0.00     0.016 A 
HETATM   10  C   UNL     1       6.826  30.413  58.125  1.00  0.00    -0.027 A 
HETATM   11  C   UNL     1       7.423  29.164  57.901  1.00  0.00     0.087 A 
HETATM   12  C   UNL     1       7.527  31.489  58.904  1.00  0.00     0.051 C 
BRANCH  11  13
HETATM   13  O   UNL     1       8.685  28.972  58.408  1.00  0.00    -0.359 OA
HETATM   14  H   UNL     1       9.104  29.855  58.521  1.00  0.00     0.218 HD
ENDBRANCH  11  13
ENDBRANCH   1   5
BRANCH   2  15
HETATM   15  C   UNL     1       7.921  25.032  55.363  1.00  0.00     0.136 C 
BRANCH  15  16
HETATM   16  C   UNL     1       7.369  24.349  54.077  1.00  0.00    -0.004 C 
HETATM   17  C   UNL     1       5.838  24.564  54.029  1.00  0.00     0.021 C 
HETATM   18  C   UNL     1       7.965  25.088  52.854  1.00  0.00     0.021 C 
BRANCH  16  19
HETATM   19  C   UNL     1       7.655  22.836  54.082  1.00  0.00    -0.046 A 
HETATM   20  C   UNL     1       7.660  22.117  55.290  1.00  0.00     0.027 A 
HETATM   21  C   UNL     1       7.923  20.754  55.277  1.00  0.00     0.116 A 
HETATM   22  N   UNL     1       8.180  20.052  54.157  1.00  0.00    -0.273 NA
HETATM   23  C   UNL     1       8.160  20.742  53.000  1.00  0.00     0.116 A 
HETATM   24  C   UNL     1       7.910  22.107  52.913  1.00  0.00     0.027 A 
ENDBRANCH  16  19
ENDBRANCH  15  16
ENDBRANCH   2  15
TORSDOF 5
ENDMDL
MODEL 8
REMARK VINA RESULT:      -8.3      1.429      1.954
REMARK  5 active torsions:
REMARK  status: ('A' for Active; 'I' for Inactive)
REMARK    1  A    between atoms: C_4  and  C_5 
REMARK       I    between atoms: C_5  and  N_6 
REMARK    2  A    between atoms: N_6  and  C_7 
REMARK    3  A    between atoms: C_7  and  C_8 
REMARK    4  A    between atoms: C_8  and  C_9 
REMARK    5  A    between atoms: C_18  and  O_19 
ROOT
HETATM    1  C   UNL     1       7.230  25.563  56.840  1.00  0.00     0.254 C 
HETATM    2  N   UNL     1       8.009  26.693  56.981  1.00  0.00    -0.356 N 
HETATM    3  O   UNL     1       6.230  25.346  57.519  1.00  0.00    -0.268 OA
HETATM    4  H   UNL     1       8.599  26.962  56.202  1.00  0.00     0.162 HD
ENDROOT
BRANCH   1   5
HETATM    5  C   UNL     1       7.614  24.594  55.776  1.00  0.00     0.066 A 
HETATM    6  C   UNL     1       7.529  24.937  54.418  1.00  0.00     0.026 A 
HETATM    7  C   UNL     1       7.887  24.016  53.425  1.00  0.00    -0.060 A 
HETATM    8  C   UNL     1       7.839  24.394  51.973  1.00  0.00     0.048 C 
HETATM    9  C   UNL     1       8.352  22.749  53.802  1.00  0.00     0.016 A 
HETATM   10  C   UNL     1       8.454  22.386  55.154  1.00  0.00    -0.027 A 
HETATM   11  C   UNL     1       8.105  23.325  56.135  1.00  0.00     0.087 A 
HETATM   12  C   UNL     1       9.004  21.036  55.520  1.00  0.00     0.051 C 
BRANCH  11  13
HETATM   13  O   UNL     1       8.270  22.952  57.446  1.00  0.00    -0.359 OA
HETATM   14  H   UNL     1       7.436  22.526  57.748  1.00  0.00     0.218 HD
ENDBRANCH  11  13
ENDBRANCH   1   5
BRANCH   2  15
HETATM   15  C   UNL     1       7.631  27.746  57.911  1.00  0.00     0.136 C 
BRANCH  15  16
HETATM   16  C   UNL     1       8.016  29.173  57.422  1.00  0.00    -0.004 C 
HETATM   17  C   UNL     1       9.542  29.205  57.167  1.00  0.00     0.021 C 
HETATM   18  C   UNL     1       7.327  29.408  56.056  1.00  0.00     0.021 C 
BRANCH  16  19
HETATM   19  C   UNL     1       7.671  30.238  58.479  1.00  0.00    -0.046 A 
HETATM   20  C   UNL     1       8.426  30.339  59.660  1.00  0.00     0.027 A 
HETATM   21  C   UNL     1       8.099  31.303  60.603  1.00  0.00     0.116 A 
HETATM   22  N   UNL     1       7.079  32.172  60.463  1.00  0.00    -0.273 NA
HETATM   23  C   UNL     1       6.367  32.080  59.324  1.00  0.00     0.116 A 
HETATM   24  C   UNL     1       6.617  31.148  58.324  1.00  0.00     0.027 A 
ENDBRANCH  16  19
ENDBRANCH  15  16
ENDBRANCH   2  15
TORSDOF 5
ENDMDL
MODEL 9
REMARK VINA RESULT:      -8.2      5.354      8.580
REMARK  5 active torsions:
REMARK  status: ('A' for Active; 'I' for Inactive)
REMARK    1  A    between atoms: C_4  and  C_5 
REMARK       I    between atoms: C_5  and  N_6 
REMARK    2  A    between atoms: N_6  and  C_7 
REMARK    3  A    between atoms: C_7  and  C_8 
REMARK    4  A    between atoms: C_8  and  C_9 
REMARK    5  A    between atoms: C_18  and  O_19 
ROOT
HETATM    1  C   UNL     1       5.775  27.077  51.151  1.00  0.00     0.254 C 
HETATM    2  N   UNL     1       6.427  25.890  51.413  1.00  0.00    -0.356 N 
HETATM    3  O   UNL     1       5.764  28.026  51.931  1.00  0.00    -0.268 OA
HETATM    4  H   UNL     1       6.668  25.298  50.628  1.00  0.00     0.162 HD
ENDROOT
BRANCH   1   5
HETATM    5  C   UNL     1       5.095  27.210  49.832  1.00  0.00     0.066 A 
HETATM    6  C   UNL     1       4.365  26.144  49.283  1.00  0.00     0.026 A 
HETATM    7  C   UNL     1       3.734  26.277  48.039  1.00  0.00    -0.060 A 
HETATM    8  C   UNL     1       2.916  25.156  47.469  1.00  0.00     0.048 C 
HETATM    9  C   UNL     1       3.822  27.496  47.354  1.00  0.00     0.016 A 
HETATM   10  C   UNL     1       4.540  28.578  47.886  1.00  0.00    -0.027 A 
HETATM   11  C   UNL     1       5.153  28.433  49.138  1.00  0.00     0.087 A 
HETATM   12  C   UNL     1       4.570  29.885  47.144  1.00  0.00     0.051 C 
BRANCH  11  13
HETATM   13  O   UNL     1       5.800  29.530  49.651  1.00  0.00    -0.359 OA
HETATM   14  H   UNL     1       6.077  29.317  50.571  1.00  0.00     0.218 HD
ENDBRANCH  11  13
ENDBRANCH   1   5
BRANCH   2  15
HETATM   15  C   UNL     1       7.216  25.728  52.624  1.00  0.00     0.136 C 
BRANCH  15  16
HETATM   16  C   UNL     1       6.481  24.927  53.740  1.00  0.00    -0.004 C 
HETATM   17  C   UNL     1       6.536  25.751  55.048  1.00  0.00     0.021 C 
HETATM   18  C   UNL     1       4.989  24.818  53.340  1.00  0.00     0.021 C 
BRANCH  16  19
HETATM   19  C   UNL     1       7.155  23.565  53.985  1.00  0.00    -0.046 A 
HETATM   20  C   UNL     1       7.280  23.058  55.291  1.00  0.00     0.027 A 
HETATM   21  C   UNL     1       7.894  21.830  55.495  1.00  0.00     0.116 A 
HETATM   22  N   UNL     1       8.390  21.068  54.502  1.00  0.00    -0.273 NA
HETATM   23  C   UNL     1       8.256  21.550  53.252  1.00  0.00     0.116 A 
HETATM   24  C   UNL     1       7.660  22.769  52.949  1.00  0.00     0.027 A 
ENDBRANCH  16  19
ENDBRANCH  15  16
ENDBRANCH   2  15
TORSDOF 5
ENDMDL
MODEL 10
REMARK VINA RESULT:      -8.0      3.695      7.973
REMARK  5 active torsions:
REMARK  status: ('A' for Active; 'I' for Inactive)
REMARK    1  A    between atoms: C_4  and  C_5 
REMARK       I    between atoms: C_5  and  N_6 
REMARK    2  A    between atoms: N_6  and  C_7 
REMARK    3  A    between atoms: C_7  and  C_8 
REMARK    4  A    between atoms: C_8  and  C_9 
REMARK    5  A    between atoms: C_18  and  O_19 
ROOT
HETATM    1  C   UNL     1       5.486  26.952  55.442  1.00  0.00     0.254 C 
HETATM    2  N   UNL     1       6.450  26.627  54.510  1.00  0.00    -0.356 N 
HETATM    3  O   UNL     1       5.207  26.234  56.399  1.00  0.00    -0.268 OA
HETATM    4  H   UNL     1       6.848  27.378  53.959  1.00  0.00     0.162 HD
ENDROOT
BRANCH   1   5
HETATM    5  C   UNL     1       4.794  28.262  55.285  1.00  0.00     0.066 A 
HETATM    6  C   UNL     1       4.384  28.718  54.023  1.00  0.00     0.026 A 
HETATM    7  C   UNL     1       3.739  29.954  53.886  1.00  0.00    -0.060 A 
HETATM    8  C   UNL     1       3.259  30.425  52.544  1.00  0.00     0.048 C 
HETATM    9  C   UNL     1       3.488  30.725  55.028  1.00  0.00     0.016 A 
HETATM   10  C   UNL     1       3.881  30.287  56.302  1.00  0.00    -0.027 A 
HETATM   11  C   UNL     1       4.513  29.041  56.422  1.00  0.00     0.087 A 
HETATM   12  C   UNL     1       3.551  31.119  57.508  1.00  0.00     0.051 C 
BRANCH  11  13
HETATM   13  O   UNL     1       4.834  28.621  57.690  1.00  0.00    -0.359 OA
HETATM   14  H   UNL     1       5.727  28.210  57.656  1.00  0.00     0.218 HD
ENDBRANCH  11  13
ENDBRANCH   1   5
BRANCH   2  15
HETATM   15  C   UNL     1       7.255  25.425  54.661  1.00  0.00     0.136 C 
BRANCH  15  16
HETATM   16  C   UNL     1       7.155  24.456  53.446  1.00  0.00    -0.004 C 
HETATM   17  C   UNL     1       5.703  24.487  52.917  1.00  0.00     0.021 C 
HETATM   18  C   UNL     1       8.057  25.014  52.319  1.00  0.00     0.021 C 
BRANCH  16  19
HETATM   19  C   UNL     1       7.501  23.012  53.855  1.00  0.00    -0.046 A 
HETATM   20  C   UNL     1       7.480  22.631  55.208  1.00  0.00     0.027 A 
HETATM   21  C   UNL     1       7.798  21.326  55.558  1.00  0.00     0.116 A 
HETATM   22  N   UNL     1       8.133  20.372  54.668  1.00  0.00    -0.273 NA
HETATM   23  C   UNL     1       8.139  20.738  53.372  1.00  0.00     0.116 A 
HETATM   24  C   UNL     1       7.838  22.020  52.925  1.00  0.00     0.027 A 
ENDBRANCH  16  19
ENDBRANCH  15  16
ENDBRANCH   2  15
TORSDOF 5
ENDMDL
