MODEL 1
REMARK VINA RESULT:     -10.3      0.000      0.000
REMARK  10 active torsions:
REMARK  status: ('A' for Active; 'I' for Inactive)
REMARK    1  A    between atoms: O_2  and  C_3 
REMARK    2  A    between atoms: C_3  and  C_4 
REMARK    3  A    between atoms: C_8  and  N_9 
REMARK       I    between atoms: N_9  and  C_10 
REMARK    4  A    between atoms: C_10  and  C_11 
REMARK    5  A    between atoms: C_12  and  C_13 
REMARK    6  A    between atoms: C_22  and  C_23 
REMARK    7  A    between atoms: C_23  and  N_24 
REMARK    8  A    between atoms: C_26  and  C_27 
REMARK    9  A    between atoms: C_27  and  C_28 
REMARK   10  A    between atoms: C_28  and  O_29 
ROOT
HETATM    1  C   UNL     1       8.653  30.458  58.268  1.00  0.00     0.110 C 
HETATM    2  S   UNL     1       9.083  29.377  57.013  1.00  0.00    -0.061 SA
HETATM    3  C   UNL     1       7.473  28.913  56.766  1.00  0.00     0.111 A 
HETATM    4  C   UNL     1       6.583  29.554  57.618  1.00  0.00     0.028 A 
HETATM    5  C   UNL     1       7.293  30.388  58.567  1.00  0.00     0.071 C 
HETATM    6  N   UNL     1       7.176  28.020  55.795  1.00  0.00    -0.243 NA
HETATM    7  C   UNL     1       5.860  27.782  55.617  1.00  0.00     0.061 A 
HETATM    8  C   UNL     1       4.860  28.401  56.355  1.00  0.00     0.030 A 
HETATM    9  C   UNL     1       5.217  29.294  57.363  1.00  0.00     0.019 A 
ENDROOT
BRANCH   5  10
HETATM   10  N   UNL     1       6.773  31.123  59.642  1.00  0.00    -0.321 N 
HETATM   11  C   UNL     1       6.146  32.345  59.561  1.00  0.00     0.245 C 
HETATM   12  O   UNL     1       5.863  32.954  58.536  1.00  0.00    -0.268 OA
HETATM   13  H   UNL     1       6.684  30.611  60.521  1.00  0.00     0.169 HD
BRANCH  11  14
HETATM   14  C   UNL     1       5.768  32.869  60.903  1.00  0.00     0.075 C 
HETATM   15  C   UNL     1       6.602  32.703  61.941  1.00  0.00     0.017 C 
BRANCH  15  16
HETATM   16  C   UNL     1       6.262  33.124  63.303  1.00  0.00    -0.036 A 
HETATM   17  C   UNL     1       7.299  33.314  64.228  1.00  0.00     0.014 A 
HETATM   18  C   UNL     1       7.013  33.712  65.535  1.00  0.00     0.043 A 
HETATM   19  C   UNL     1       5.694  33.932  65.912  1.00  0.00     0.116 A 
HETATM   20  F   UNL     1       5.420  34.312  67.166  1.00  0.00    -0.206 F 
HETATM   21  C   UNL     1       4.654  33.768  65.003  1.00  0.00     0.043 A 
HETATM   22  C   UNL     1       4.938  33.365  63.696  1.00  0.00     0.014 A 
ENDBRANCH  15  16
ENDBRANCH  11  14
ENDBRANCH   5  10
BRANCH   1  23
HETATM   23  C   UNL     1       9.644  31.288  58.937  1.00  0.00     0.302 C 
HETATM   24  O   UNL     1      10.269  32.183  58.374  1.00  0.00    -0.259 OA
BRANCH  23  25
HETATM   25  O   UNL     1       9.810  30.940  60.243  1.00  0.00    -0.322 OA
HETATM   26  C   UNL     1       9.855  32.047  61.148  1.00  0.00     0.213 C 
ENDBRANCH  23  25
ENDBRANCH   1  23
BRANCH   7  27
HETATM   27  C   UNL     1       5.494  26.753  54.564  1.00  0.00     0.294 C 
BRANCH  27  28
HETATM   28  N   UNL     1       6.612  25.785  54.150  1.00  0.00    -0.061 N 
HETATM   29  H   UNL     1       7.481  26.217  54.486  1.00  0.00     0.280 HD
HETATM   30  C   UNL     1       6.554  24.389  54.794  1.00  0.00     0.190 C 
HETATM   31  C   UNL     1       7.793  23.602  54.318  1.00  0.00     0.033 C 
HETATM   32  C   UNL     1       7.924  23.551  52.802  1.00  0.00     0.004 C 
HETATM   33  C   UNL     1       7.941  24.953  52.219  1.00  0.00     0.028 C 
HETATM   34  C   UNL     1       6.701  25.721  52.636  1.00  0.00     0.235 C 
BRANCH  30  35
HETATM   35  C   UNL     1       6.597  24.481  56.329  1.00  0.00     0.059 C 
BRANCH  35  36
HETATM   36  C   UNL     1       7.983  24.789  56.887  1.00  0.00     0.166 C 
BRANCH  36  37
HETATM   37  O   UNL     1       7.806  25.607  58.034  1.00  0.00    -0.401 OA
HETATM   38  H   UNL     1       6.898  25.960  58.010  1.00  0.00     0.209 HD
ENDBRANCH  36  37
ENDBRANCH  35  36
ENDBRANCH  30  35
ENDBRANCH  27  28
ENDBRANCH   7  27
TORSDOF 10
ENDMDL
MODEL 2
REMARK VINA RESULT:      -9.5      4.166     10.646
REMARK  10 active torsions:
REMARK  status: ('A' for Active; 'I' for Inactive)
REMARK    1  A    between atoms: O_2  and  C_3 
REMARK    2  A    between atoms: C_3  and  C_4 
REMARK    3  A    between atoms: C_8  and  N_9 
REMARK       I    between atoms: N_9  and  C_10 
REMARK    4  A    between atoms: C_10  and  C_11 
REMARK    5  A    between atoms: C_12  and  C_13 
REMARK    6  A    between atoms: C_22  and  C_23 
REMARK    7  A    between atoms: C_23  and  N_24 
REMARK    8  A    between atoms: C_26  and  C_27 
REMARK    9  A    between atoms: C_27  and  C_28 
REMARK   10  A    between atoms: C_28  and  O_29 
ROOT
HETATM    1  C   UNL     1       5.311  28.828  55.293  1.00  0.00     0.110 C 
HETATM    2  S   UNL     1       4.965  30.435  55.765  1.00  0.00    -0.061 SA
HETATM    3  C   UNL     1       6.042  30.357  57.070  1.00  0.00     0.111 A 
HETATM    4  C   UNL     1       6.678  29.128  57.181  1.00  0.00     0.028 A 
HETATM    5  C   UNL     1       6.171  28.198  56.192  1.00  0.00     0.071 C 
HETATM    6  N   UNL     1       6.219  31.442  57.857  1.00  0.00    -0.243 NA
HETATM    7  C   UNL     1       7.161  31.312  58.814  1.00  0.00     0.061 A 
HETATM    8  C   UNL     1       7.916  30.161  58.996  1.00  0.00     0.030 A 
HETATM    9  C   UNL     1       7.679  29.059  58.177  1.00  0.00     0.019 A 
ENDROOT
BRANCH   5  10
HETATM   10  N   UNL     1       6.484  26.841  56.030  1.00  0.00    -0.321 N 
HETATM   11  C   UNL     1       5.802  25.780  56.581  1.00  0.00     0.245 C 
HETATM   12  O   UNL     1       4.767  25.837  57.233  1.00  0.00    -0.268 OA
HETATM   13  H   UNL     1       7.149  26.630  55.284  1.00  0.00     0.169 HD
BRANCH  11  14
HETATM   14  C   UNL     1       6.439  24.475  56.249  1.00  0.00     0.075 C 
HETATM   15  C   UNL     1       6.882  24.248  55.004  1.00  0.00     0.017 C 
BRANCH  15  16
HETATM   16  C   UNL     1       7.450  22.962  54.588  1.00  0.00    -0.036 A 
HETATM   17  C   UNL     1       7.781  22.777  53.238  1.00  0.00     0.014 A 
HETATM   18  C   UNL     1       8.321  21.563  52.805  1.00  0.00     0.043 A 
HETATM   19  C   UNL     1       8.541  20.545  53.723  1.00  0.00     0.116 A 
HETATM   20  F   UNL     1       9.056  19.381  53.308  1.00  0.00    -0.206 F 
HETATM   21  C   UNL     1       8.237  20.717  55.069  1.00  0.00     0.043 A 
HETATM   22  C   UNL     1       7.693  21.928  55.503  1.00  0.00     0.014 A 
ENDBRANCH  15  16
ENDBRANCH  11  14
ENDBRANCH   5  10
BRANCH   1  23
HETATM   23  C   UNL     1       4.709  28.230  54.110  1.00  0.00     0.302 C 
HETATM   24  O   UNL     1       3.541  28.415  53.778  1.00  0.00    -0.259 OA
BRANCH  23  25
HETATM   25  O   UNL     1       5.581  27.429  53.437  1.00  0.00    -0.322 OA
HETATM   26  C   UNL     1       4.961  26.381  52.687  1.00  0.00     0.213 C 
ENDBRANCH  23  25
ENDBRANCH   1  23
BRANCH   7  27
HETATM   27  C   UNL     1       7.354  32.496  59.741  1.00  0.00     0.294 C 
BRANCH  27  28
HETATM   28  N   UNL     1       6.616  32.428  61.086  1.00  0.00    -0.061 N 
HETATM   29  H   UNL     1       6.372  31.438  61.209  1.00  0.00     0.280 HD
HETATM   30  C   UNL     1       7.446  32.819  62.320  1.00  0.00     0.190 C 
HETATM   31  C   UNL     1       6.561  32.610  63.566  1.00  0.00     0.033 C 
HETATM   32  C   UNL     1       5.233  33.349  63.488  1.00  0.00     0.004 C 
HETATM   33  C   UNL     1       4.473  32.951  62.234  1.00  0.00     0.028 C 
HETATM   34  C   UNL     1       5.313  33.202  60.997  1.00  0.00     0.235 C 
BRANCH  30  35
HETATM   35  C   UNL     1       8.695  31.930  62.457  1.00  0.00     0.059 C 
BRANCH  35  36
HETATM   36  C   UNL     1       8.377  30.464  62.737  1.00  0.00     0.166 C 
BRANCH  36  37
HETATM   37  O   UNL     1       9.437  29.689  62.196  1.00  0.00    -0.401 OA
HETATM   38  H   UNL     1       9.055  29.089  61.529  1.00  0.00     0.209 HD
ENDBRANCH  36  37
ENDBRANCH  35  36
ENDBRANCH  30  35
ENDBRANCH  27  28
ENDBRANCH   7  27
TORSDOF 10
ENDMDL
MODEL 3
REMARK VINA RESULT:      -8.9      1.990      3.488
REMARK  10 active torsions:
REMARK  status: ('A' for Active; 'I' for Inactive)
REMARK    1  A    between atoms: O_2  and  C_3 
REMARK    2  A    between atoms: C_3  and  C_4 
REMARK    3  A    between atoms: C_8  and  N_9 
REMARK       I    between atoms: N_9  and  C_10 
REMARK    4  A    between atoms: C_10  and  C_11 
REMARK    5  A    between atoms: C_12  and  C_13 
REMARK    6  A    between atoms: C_22  and  C_23 
REMARK    7  A    between atoms: C_23  and  N_24 
REMARK    8  A    between atoms: C_26  and  C_27 
REMARK    9  A    between atoms: C_27  and  C_28 
REMARK   10  A    between atoms: C_28  and  O_29 
ROOT
HETATM    1  C   UNL     1       4.649  31.470  57.492  1.00  0.00     0.110 C 
HETATM    2  S   UNL     1       4.479  30.796  55.930  1.00  0.00    -0.061 SA
HETATM    3  C   UNL     1       5.825  29.789  56.142  1.00  0.00     0.111 A 
HETATM    4  C   UNL     1       6.429  29.940  57.383  1.00  0.00     0.028 A 
HETATM    5  C   UNL     1       5.794  31.002  58.136  1.00  0.00     0.071 C 
HETATM    6  N   UNL     1       6.185  28.937  55.156  1.00  0.00    -0.243 NA
HETATM    7  C   UNL     1       7.213  28.116  55.453  1.00  0.00     0.061 A 
HETATM    8  C   UNL     1       7.868  28.116  56.677  1.00  0.00     0.030 A 
HETATM    9  C   UNL     1       7.478  29.031  57.654  1.00  0.00     0.019 A 
ENDROOT
BRANCH   5  10
HETATM   10  N   UNL     1       6.158  31.525  59.385  1.00  0.00    -0.321 N 
HETATM   11  C   UNL     1       7.389  32.044  59.720  1.00  0.00     0.245 C 
HETATM   12  O   UNL     1       8.339  32.212  58.966  1.00  0.00    -0.268 OA
HETATM   13  H   UNL     1       5.385  31.710  60.026  1.00  0.00     0.169 HD
BRANCH  11  14
HETATM   14  C   UNL     1       7.449  32.460  61.149  1.00  0.00     0.075 C 
HETATM   15  C   UNL     1       6.320  32.527  61.870  1.00  0.00     0.017 C 
BRANCH  15  16
HETATM   16  C   UNL     1       6.296  33.000  63.258  1.00  0.00    -0.036 A 
HETATM   17  C   UNL     1       5.056  33.161  63.893  1.00  0.00     0.014 A 
HETATM   18  C   UNL     1       4.994  33.612  65.213  1.00  0.00     0.043 A 
HETATM   19  C   UNL     1       6.169  33.889  65.899  1.00  0.00     0.116 A 
HETATM   20  F   UNL     1       6.110  34.323  67.164  1.00  0.00    -0.206 F 
HETATM   21  C   UNL     1       7.408  33.717  65.292  1.00  0.00     0.043 A 
HETATM   22  C   UNL     1       7.473  33.270  63.970  1.00  0.00     0.014 A 
ENDBRANCH  15  16
ENDBRANCH  11  14
ENDBRANCH   5  10
BRANCH   1  23
HETATM   23  C   UNL     1       3.705  32.450  58.011  1.00  0.00     0.302 C 
HETATM   24  O   UNL     1       3.100  32.311  59.070  1.00  0.00    -0.259 OA
BRANCH  23  25
HETATM   25  O   UNL     1       3.556  33.515  57.175  1.00  0.00    -0.322 OA
HETATM   26  C   UNL     1       4.651  34.436  57.193  1.00  0.00     0.213 C 
ENDBRANCH  23  25
ENDBRANCH   1  23
BRANCH   7  27
HETATM   27  C   UNL     1       7.670  27.177  54.353  1.00  0.00     0.294 C 
BRANCH  27  28
HETATM   28  N   UNL     1       7.238  25.710  54.495  1.00  0.00    -0.061 N 
HETATM   29  H   UNL     1       6.242  25.746  54.745  1.00  0.00     0.280 HD
HETATM   30  C   UNL     1       7.325  24.865  53.213  1.00  0.00     0.190 C 
HETATM   31  C   UNL     1       6.778  23.460  53.540  1.00  0.00     0.033 C 
HETATM   32  C   UNL     1       7.472  22.808  54.727  1.00  0.00     0.004 C 
HETATM   33  C   UNL     1       7.385  23.701  55.953  1.00  0.00     0.028 C 
HETATM   34  C   UNL     1       7.969  25.070  55.661  1.00  0.00     0.235 C 
BRANCH  30  35
HETATM   35  C   UNL     1       6.469  25.469  52.086  1.00  0.00     0.059 C 
BRANCH  35  36
HETATM   36  C   UNL     1       4.998  25.069  52.152  1.00  0.00     0.166 C 
BRANCH  36  37
HETATM   37  O   UNL     1       4.367  25.924  53.094  1.00  0.00    -0.401 OA
HETATM   38  H   UNL     1       4.229  25.413  53.912  1.00  0.00     0.209 HD
ENDBRANCH  36  37
ENDBRANCH  35  36
ENDBRANCH  30  35
ENDBRANCH  27  28
ENDBRANCH   7  27
TORSDOF 10
ENDMDL
MODEL 4
REMARK VINA RESULT:      -8.5      4.817     10.970
REMARK  10 active torsions:
REMARK  status: ('A' for Active; 'I' for Inactive)
REMARK    1  A    between atoms: O_2  and  C_3 
REMARK    2  A    between atoms: C_3  and  C_4 
REMARK    3  A    between atoms: C_8  and  N_9 
REMARK       I    between atoms: N_9  and  C_10 
REMARK    4  A    between atoms: C_10  and  C_11 
REMARK    5  A    between atoms: C_12  and  C_13 
REMARK    6  A    between atoms: C_22  and  C_23 
REMARK    7  A    between atoms: C_23  and  N_24 
REMARK    8  A    between atoms: C_26  and  C_27 
REMARK    9  A    between atoms: C_27  and  C_28 
REMARK   10  A    between atoms: C_28  and  O_29 
ROOT
HETATM    1  C   UNL     1       6.744  26.926  56.164  1.00  0.00     0.110 C 
HETATM    2  S   UNL     1       7.585  27.537  57.522  1.00  0.00    -0.061 SA
HETATM    3  C   UNL     1       6.843  29.053  57.387  1.00  0.00     0.111 A 
HETATM    4  C   UNL     1       5.955  29.134  56.322  1.00  0.00     0.028 A 
HETATM    5  C   UNL     1       5.975  27.912  55.546  1.00  0.00     0.071 C 
HETATM    6  N   UNL     1       7.129  30.021  58.287  1.00  0.00    -0.243 NA
HETATM    7  C   UNL     1       6.424  31.162  58.150  1.00  0.00     0.061 A 
HETATM    8  C   UNL     1       5.460  31.356  57.169  1.00  0.00     0.030 A 
HETATM    9  C   UNL     1       5.219  30.339  56.247  1.00  0.00     0.019 A 
ENDROOT
BRANCH   5  10
HETATM   10  N   UNL     1       5.298  27.626  54.351  1.00  0.00    -0.321 N 
HETATM   11  C   UNL     1       5.697  27.991  53.085  1.00  0.00     0.245 C 
HETATM   12  O   UNL     1       6.743  28.550  52.783  1.00  0.00    -0.268 OA
HETATM   13  H   UNL     1       4.560  26.924  54.423  1.00  0.00     0.169 HD
BRANCH  11  14
HETATM   14  C   UNL     1       4.712  27.573  52.048  1.00  0.00     0.075 C 
HETATM   15  C   UNL     1       5.019  27.703  50.749  1.00  0.00     0.017 C 
BRANCH  15  16
HETATM   16  C   UNL     1       4.072  27.384  49.677  1.00  0.00    -0.036 A 
HETATM   17  C   UNL     1       2.955  28.212  49.496  1.00  0.00     0.014 A 
HETATM   18  C   UNL     1       2.030  27.937  48.486  1.00  0.00     0.043 A 
HETATM   19  C   UNL     1       2.231  26.845  47.652  1.00  0.00     0.116 A 
HETATM   20  F   UNL     1       1.343  26.580  46.685  1.00  0.00    -0.206 F 
HETATM   21  C   UNL     1       3.343  26.024  47.804  1.00  0.00     0.043 A 
HETATM   22  C   UNL     1       4.267  26.295  48.816  1.00  0.00     0.014 A 
ENDBRANCH  15  16
ENDBRANCH  11  14
ENDBRANCH   5  10
BRANCH   1  23
HETATM   23  C   UNL     1       6.894  25.546  55.726  1.00  0.00     0.302 C 
HETATM   24  O   UNL     1       6.473  24.584  56.364  1.00  0.00    -0.259 OA
BRANCH  23  25
HETATM   25  O   UNL     1       7.572  25.449  54.549  1.00  0.00    -0.322 OA
HETATM   26  C   UNL     1       7.984  24.122  54.213  1.00  0.00     0.213 C 
ENDBRANCH  23  25
ENDBRANCH   1  23
BRANCH   7  27
HETATM   27  C   UNL     1       6.751  32.282  59.118  1.00  0.00     0.294 C 
BRANCH  27  28
HETATM   28  N   UNL     1       6.447  32.007  60.598  1.00  0.00    -0.061 N 
HETATM   29  H   UNL     1       6.523  30.988  60.703  1.00  0.00     0.280 HD
HETATM   30  C   UNL     1       7.438  32.614  61.604  1.00  0.00     0.190 C 
HETATM   31  C   UNL     1       7.008  32.162  63.016  1.00  0.00     0.033 C 
HETATM   32  C   UNL     1       5.559  32.497  63.336  1.00  0.00     0.004 C 
HETATM   33  C   UNL     1       4.629  31.903  62.292  1.00  0.00     0.028 C 
HETATM   34  C   UNL     1       5.008  32.382  60.904  1.00  0.00     0.235 C 
BRANCH  30  35
HETATM   35  C   UNL     1       8.870  32.113  61.349  1.00  0.00     0.059 C 
BRANCH  35  36
HETATM   36  C   UNL     1       9.094  30.661  61.758  1.00  0.00     0.166 C 
BRANCH  36  37
HETATM   37  O   UNL     1       8.719  29.847  60.656  1.00  0.00    -0.401 OA
HETATM   38  H   UNL     1       9.310  29.071  60.646  1.00  0.00     0.209 HD
ENDBRANCH  36  37
ENDBRANCH  35  36
ENDBRANCH  30  35
ENDBRANCH  27  28
ENDBRANCH   7  27
TORSDOF 10
ENDMDL
MODEL 5
REMARK VINA RESULT:      -8.5      4.470     10.378
REMARK  10 active torsions:
REMARK  status: ('A' for Active; 'I' for Inactive)
REMARK    1  A    between atoms: O_2  and  C_3 
REMARK    2  A    between atoms: C_3  and  C_4 
REMARK    3  A    between atoms: C_8  and  N_9 
REMARK       I    between atoms: N_9  and  C_10 
REMARK    4  A    between atoms: C_10  and  C_11 
REMARK    5  A    between atoms: C_12  and  C_13 
REMARK    6  A    between atoms: C_22  and  C_23 
REMARK    7  A    between atoms: C_23  and  N_24 
REMARK    8  A    between atoms: C_26  and  C_27 
REMARK    9  A    between atoms: C_27  and  C_28 
REMARK   10  A    between atoms: C_28  and  O_29 
ROOT
HETATM    1  C   UNL     1       4.631  29.306  54.073  1.00  0.00     0.110 C 
HETATM    2  S   UNL     1       4.218  30.866  54.641  1.00  0.00    -0.061 SA
HETATM    3  C   UNL     1       5.101  30.655  56.071  1.00  0.00     0.111 A 
HETATM    4  C   UNL     1       5.719  29.415  56.154  1.00  0.00     0.028 A 
HETATM    5  C   UNL     1       5.358  28.587  55.021  1.00  0.00     0.071 C 
HETATM    6  N   UNL     1       5.162  31.660  56.974  1.00  0.00    -0.243 NA
HETATM    7  C   UNL     1       5.961  31.431  58.036  1.00  0.00     0.061 A 
HETATM    8  C   UNL     1       6.687  30.260  58.214  1.00  0.00     0.030 A 
HETATM    9  C   UNL     1       6.570  29.242  57.270  1.00  0.00     0.019 A 
ENDROOT
BRANCH   5  10
HETATM   10  N   UNL     1       5.694  27.247  54.777  1.00  0.00    -0.321 N 
HETATM   11  C   UNL     1       5.495  26.191  55.636  1.00  0.00     0.245 C 
HETATM   12  O   UNL     1       4.919  26.228  56.716  1.00  0.00    -0.268 OA
HETATM   13  H   UNL     1       5.922  27.022  53.807  1.00  0.00     0.169 HD
BRANCH  11  14
HETATM   14  C   UNL     1       6.021  24.913  55.081  1.00  0.00     0.075 C 
HETATM   15  C   UNL     1       6.950  24.225  55.762  1.00  0.00     0.017 C 
BRANCH  15  16
HETATM   16  C   UNL     1       7.567  23.001  55.241  1.00  0.00    -0.036 A 
HETATM   17  C   UNL     1       7.622  22.812  53.853  1.00  0.00     0.014 A 
HETATM   18  C   UNL     1       8.201  21.658  53.321  1.00  0.00     0.043 A 
HETATM   19  C   UNL     1       8.734  20.702  54.177  1.00  0.00     0.116 A 
HETATM   20  F   UNL     1       9.287  19.594  53.667  1.00  0.00    -0.206 F 
HETATM   21  C   UNL     1       8.706  20.882  55.555  1.00  0.00     0.043 A 
HETATM   22  C   UNL     1       8.124  22.034  56.089  1.00  0.00     0.014 A 
ENDBRANCH  15  16
ENDBRANCH  11  14
ENDBRANCH   5  10
BRANCH   1  23
HETATM   23  C   UNL     1       4.203  28.828  52.767  1.00  0.00     0.302 C 
HETATM   24  O   UNL     1       3.025  28.747  52.428  1.00  0.00    -0.259 OA
BRANCH  23  25
HETATM   25  O   UNL     1       5.254  28.461  51.982  1.00  0.00    -0.322 OA
HETATM   26  C   UNL     1       5.403  29.242  50.793  1.00  0.00     0.213 C 
ENDBRANCH  23  25
ENDBRANCH   1  23
BRANCH   7  27
HETATM   27  C   UNL     1       6.018  32.521  59.089  1.00  0.00     0.294 C 
BRANCH  27  28
HETATM   28  N   UNL     1       7.235  32.492  60.025  1.00  0.00    -0.061 N 
HETATM   29  H   UNL     1       7.509  33.475  60.141  1.00  0.00     0.280 HD
HETATM   30  C   UNL     1       6.971  31.954  61.441  1.00  0.00     0.190 C 
HETATM   31  C   UNL     1       8.284  32.080  62.243  1.00  0.00     0.033 C 
HETATM   32  C   UNL     1       9.467  31.405  61.564  1.00  0.00     0.004 C 
HETATM   33  C   UNL     1       9.659  31.949  60.158  1.00  0.00     0.028 C 
HETATM   34  C   UNL     1       8.391  31.783  59.343  1.00  0.00     0.235 C 
BRANCH  30  35
HETATM   35  C   UNL     1       5.884  32.775  62.157  1.00  0.00     0.059 C 
BRANCH  35  36
HETATM   36  C   UNL     1       5.404  32.151  63.463  1.00  0.00     0.166 C 
BRANCH  36  37
HETATM   37  O   UNL     1       4.856  30.879  63.148  1.00  0.00    -0.401 OA
HETATM   38  H   UNL     1       4.830  30.798  62.177  1.00  0.00     0.209 HD
ENDBRANCH  36  37
ENDBRANCH  35  36
ENDBRANCH  30  35
ENDBRANCH  27  28
ENDBRANCH   7  27
TORSDOF 10
ENDMDL
MODEL 6
REMARK VINA RESULT:      -8.5      4.291     10.566
REMARK  10 active torsions:
REMARK  status: ('A' for Active; 'I' for Inactive)
REMARK    1  A    between atoms: O_2  and  C_3 
REMARK    2  A    between atoms: C_3  and  C_4 
REMARK    3  A    between atoms: C_8  and  N_9 
REMARK       I    between atoms: N_9  and  C_10 
REMARK    4  A    between atoms: C_10  and  C_11 
REMARK    5  A    between atoms: C_12  and  C_13 
REMARK    6  A    between atoms: C_22  and  C_23 
REMARK    7  A    between atoms: C_23  and  N_24 
REMARK    8  A    between atoms: C_26  and  C_27 
REMARK    9  A    between atoms: C_27  and  C_28 
REMARK   10  A    between atoms: C_28  and  O_29 
ROOT
HETATM    1  C   UNL     1       5.257  28.747  55.371  1.00  0.00     0.110 C 
HETATM    2  S   UNL     1       4.955  30.367  55.830  1.00  0.00    -0.061 SA
HETATM    3  C   UNL     1       6.114  30.308  57.063  1.00  0.00     0.111 A 
HETATM    4  C   UNL     1       6.748  29.075  57.158  1.00  0.00     0.028 A 
HETATM    5  C   UNL     1       6.170  28.130  56.226  1.00  0.00     0.071 C 
HETATM    6  N   UNL     1       6.350  31.408  57.813  1.00  0.00    -0.243 NA
HETATM    7  C   UNL     1       7.352  31.289  58.709  1.00  0.00     0.061 A 
HETATM    8  C   UNL     1       8.110  30.136  58.866  1.00  0.00     0.030 A 
HETATM    9  C   UNL     1       7.811  29.018  58.089  1.00  0.00     0.019 A 
ENDROOT
BRANCH   5  10
HETATM   10  N   UNL     1       6.462  26.766  56.072  1.00  0.00    -0.321 N 
HETATM   11  C   UNL     1       5.770  25.720  56.640  1.00  0.00     0.245 C 
HETATM   12  O   UNL     1       4.742  25.798  57.301  1.00  0.00    -0.268 OA
HETATM   13  H   UNL     1       7.116  26.540  55.323  1.00  0.00     0.169 HD
BRANCH  11  14
HETATM   14  C   UNL     1       6.385  24.403  56.314  1.00  0.00     0.075 C 
HETATM   15  C   UNL     1       7.006  24.232  55.137  1.00  0.00     0.017 C 
BRANCH  15  16
HETATM   16  C   UNL     1       7.567  22.943  54.719  1.00  0.00    -0.036 A 
HETATM   17  C   UNL     1       7.925  22.012  55.704  1.00  0.00     0.014 A 
HETATM   18  C   UNL     1       8.465  20.776  55.343  1.00  0.00     0.043 A 
HETATM   19  C   UNL     1       8.631  20.467  53.999  1.00  0.00     0.116 A 
HETATM   20  F   UNL     1       9.150  19.283  53.652  1.00  0.00    -0.206 F 
HETATM   21  C   UNL     1       8.263  21.370  53.007  1.00  0.00     0.043 A 
HETATM   22  C   UNL     1       7.727  22.609  53.367  1.00  0.00     0.014 A 
ENDBRANCH  15  16
ENDBRANCH  11  14
ENDBRANCH   5  10
BRANCH   1  23
HETATM   23  C   UNL     1       4.574  28.130  54.243  1.00  0.00     0.302 C 
HETATM   24  O   UNL     1       4.973  27.110  53.687  1.00  0.00    -0.259 OA
BRANCH  23  25
HETATM   25  O   UNL     1       3.466  28.826  53.869  1.00  0.00    -0.322 OA
HETATM   26  C   UNL     1       3.313  28.976  52.455  1.00  0.00     0.213 C 
ENDBRANCH  23  25
ENDBRANCH   1  23
BRANCH   7  27
HETATM   27  C   UNL     1       7.614  32.491  59.595  1.00  0.00     0.294 C 
BRANCH  27  28
HETATM   28  N   UNL     1       6.773  32.580  60.877  1.00  0.00    -0.061 N 
HETATM   29  H   UNL     1       6.979  33.507  61.270  1.00  0.00     0.280 HD
HETATM   30  C   UNL     1       5.249  32.531  60.677  1.00  0.00     0.190 C 
HETATM   31  C   UNL     1       4.589  32.713  62.060  1.00  0.00     0.033 C 
HETATM   32  C   UNL     1       5.082  31.713  63.096  1.00  0.00     0.004 C 
HETATM   33  C   UNL     1       6.595  31.781  63.226  1.00  0.00     0.028 C 
HETATM   34  C   UNL     1       7.258  31.550  61.882  1.00  0.00     0.235 C 
BRANCH  30  35
HETATM   35  C   UNL     1       4.770  33.668  59.757  1.00  0.00     0.059 C 
BRANCH  35  36
HETATM   36  C   UNL     1       3.487  33.344  58.999  1.00  0.00     0.166 C 
BRANCH  36  37
HETATM   37  O   UNL     1       3.428  31.933  58.847  1.00  0.00    -0.401 OA
HETATM   38  H   UNL     1       4.210  31.657  58.334  1.00  0.00     0.209 HD
ENDBRANCH  36  37
ENDBRANCH  35  36
ENDBRANCH  30  35
ENDBRANCH  27  28
ENDBRANCH   7  27
TORSDOF 10
ENDMDL
MODEL 7
REMARK VINA RESULT:      -8.2      4.067      6.090
REMARK  10 active torsions:
REMARK  status: ('A' for Active; 'I' for Inactive)
REMARK    1  A    between atoms: O_2  and  C_3 
REMARK    2  A    between atoms: C_3  and  C_4 
REMARK    3  A    between atoms: C_8  and  N_9 
REMARK       I    between atoms: N_9  and  C_10 
REMARK    4  A    between atoms: C_10  and  C_11 
REMARK    5  A    between atoms: C_12  and  C_13 
REMARK    6  A    between atoms: C_22  and  C_23 
REMARK    7  A    between atoms: C_23  and  N_24 
REMARK    8  A    between atoms: C_26  and  C_27 
REMARK    9  A    between atoms: C_27  and  C_28 
REMARK   10  A    between atoms: C_28  and  O_29 
ROOT
HETATM    1  C   UNL     1       6.668  26.253  55.674  1.00  0.00     0.110 C 
HETATM    2  S   UNL     1       5.965  25.610  54.253  1.00  0.00    -0.061 SA
HETATM    3  C   UNL     1       5.290  27.104  53.828  1.00  0.00     0.111 A 
HETATM    4  C   UNL     1       5.573  28.111  54.741  1.00  0.00     0.028 A 
HETATM    5  C   UNL     1       6.301  27.583  55.876  1.00  0.00     0.071 C 
HETATM    6  N   UNL     1       4.582  27.217  52.681  1.00  0.00    -0.243 NA
HETATM    7  C   UNL     1       4.161  28.464  52.385  1.00  0.00     0.061 A 
HETATM    8  C   UNL     1       4.427  29.573  53.177  1.00  0.00     0.030 A 
HETATM    9  C   UNL     1       5.138  29.403  54.363  1.00  0.00     0.019 A 
ENDROOT
BRANCH   5  10
HETATM   10  N   UNL     1       6.693  28.247  57.048  1.00  0.00    -0.321 N 
HETATM   11  C   UNL     1       7.724  29.152  57.160  1.00  0.00     0.245 C 
HETATM   12  O   UNL     1       8.414  29.590  56.248  1.00  0.00    -0.268 OA
HETATM   13  H   UNL     1       6.031  28.196  57.823  1.00  0.00     0.169 HD
BRANCH  11  14
HETATM   14  C   UNL     1       7.902  29.624  58.562  1.00  0.00     0.075 C 
HETATM   15  C   UNL     1       7.456  30.838  58.917  1.00  0.00     0.017 C 
BRANCH  15  16
HETATM   16  C   UNL     1       7.664  31.396  60.257  1.00  0.00    -0.036 A 
HETATM   17  C   UNL     1       8.622  30.804  61.092  1.00  0.00     0.014 A 
HETATM   18  C   UNL     1       8.845  31.307  62.376  1.00  0.00     0.043 A 
HETATM   19  C   UNL     1       8.121  32.408  62.816  1.00  0.00     0.116 A 
HETATM   20  F   UNL     1       8.334  32.890  64.046  1.00  0.00    -0.206 F 
HETATM   21  C   UNL     1       7.182  33.021  61.994  1.00  0.00     0.043 A 
HETATM   22  C   UNL     1       6.954  32.516  60.711  1.00  0.00     0.014 A 
ENDBRANCH  15  16
ENDBRANCH  11  14
ENDBRANCH   5  10
BRANCH   1  23
HETATM   23  C   UNL     1       7.500  25.442  56.551  1.00  0.00     0.302 C 
HETATM   24  O   UNL     1       7.589  25.628  57.762  1.00  0.00    -0.259 OA
BRANCH  23  25
HETATM   25  O   UNL     1       8.181  24.479  55.870  1.00  0.00    -0.322 OA
HETATM   26  C   UNL     1       8.152  23.189  56.487  1.00  0.00     0.213 C 
ENDBRANCH  23  25
ENDBRANCH   1  23
BRANCH   7  27
HETATM   27  C   UNL     1       3.327  28.616  51.128  1.00  0.00     0.294 C 
BRANCH  27  28
HETATM   28  N   UNL     1       4.095  28.977  49.848  1.00  0.00    -0.061 N 
HETATM   29  H   UNL     1       5.086  28.846  50.083  1.00  0.00     0.280 HD
HETATM   30  C   UNL     1       3.823  28.075  48.633  1.00  0.00     0.190 C 
HETATM   31  C   UNL     1       4.739  28.547  47.484  1.00  0.00     0.033 C 
HETATM   32  C   UNL     1       4.589  30.028  47.168  1.00  0.00     0.004 C 
HETATM   33  C   UNL     1       4.834  30.868  48.410  1.00  0.00     0.028 C 
HETATM   34  C   UNL     1       3.901  30.449  49.531  1.00  0.00     0.235 C 
BRANCH  30  35
HETATM   35  C   UNL     1       4.152  26.605  48.944  1.00  0.00     0.059 C 
BRANCH  35  36
HETATM   36  C   UNL     1       3.265  25.608  48.205  1.00  0.00     0.166 C 
BRANCH  36  37
HETATM   37  O   UNL     1       1.932  26.090  48.280  1.00  0.00    -0.401 OA
HETATM   38  H   UNL     1       1.971  27.060  48.370  1.00  0.00     0.209 HD
ENDBRANCH  36  37
ENDBRANCH  35  36
ENDBRANCH  30  35
ENDBRANCH  27  28
ENDBRANCH   7  27
TORSDOF 10
ENDMDL
MODEL 8
REMARK VINA RESULT:      -8.2      9.045     12.682
REMARK  10 active torsions:
REMARK  status: ('A' for Active; 'I' for Inactive)
REMARK    1  A    between atoms: O_2  and  C_3 
REMARK    2  A    between atoms: C_3  and  C_4 
REMARK    3  A    between atoms: C_8  and  N_9 
REMARK       I    between atoms: N_9  and  C_10 
REMARK    4  A    between atoms: C_10  and  C_11 
REMARK    5  A    between atoms: C_12  and  C_13 
REMARK    6  A    between atoms: C_22  and  C_23 
REMARK    7  A    between atoms: C_23  and  N_24 
REMARK    8  A    between atoms: C_26  and  C_27 
REMARK    9  A    between atoms: C_27  and  C_28 
REMARK   10  A    between atoms: C_28  and  O_29 
ROOT
HETATM    1  C   UNL     1       3.892  27.607  47.972  1.00  0.00     0.110 C 
HETATM    2  S   UNL     1       3.296  29.026  47.227  1.00  0.00    -0.061 SA
HETATM    3  C   UNL     1       4.330  30.018  48.130  1.00  0.00     0.111 A 
HETATM    4  C   UNL     1       5.138  29.309  49.009  1.00  0.00     0.028 A 
HETATM    5  C   UNL     1       4.806  27.899  48.984  1.00  0.00     0.071 C 
HETATM    6  N   UNL     1       4.318  31.355  47.930  1.00  0.00    -0.243 NA
HETATM    7  C   UNL     1       5.237  32.050  48.632  1.00  0.00     0.061 A 
HETATM    8  C   UNL     1       6.148  31.462  49.498  1.00  0.00     0.030 A 
HETATM    9  C   UNL     1       6.104  30.082  49.692  1.00  0.00     0.019 A 
ENDROOT
BRANCH   5  10
HETATM   10  N   UNL     1       5.323  26.867  49.781  1.00  0.00    -0.321 N 
HETATM   11  C   UNL     1       5.205  26.762  51.148  1.00  0.00     0.245 C 
HETATM   12  O   UNL     1       4.565  27.502  51.884  1.00  0.00    -0.268 OA
HETATM   13  H   UNL     1       5.635  26.036  49.276  1.00  0.00     0.169 HD
BRANCH  11  14
HETATM   14  C   UNL     1       5.921  25.569  51.680  1.00  0.00     0.075 C 
HETATM   15  C   UNL     1       6.047  25.404  53.005  1.00  0.00     0.017 C 
BRANCH  15  16
HETATM   16  C   UNL     1       6.803  24.296  53.596  1.00  0.00    -0.036 A 
HETATM   17  C   UNL     1       7.582  23.487  52.756  1.00  0.00     0.014 A 
HETATM   18  C   UNL     1       8.313  22.421  53.283  1.00  0.00     0.043 A 
HETATM   19  C   UNL     1       8.275  22.173  54.650  1.00  0.00     0.116 A 
HETATM   20  F   UNL     1       8.974  21.150  55.155  1.00  0.00    -0.206 F 
HETATM   21  C   UNL     1       7.524  22.976  55.501  1.00  0.00     0.043 A 
HETATM   22  C   UNL     1       6.788  24.040  54.975  1.00  0.00     0.014 A 
ENDBRANCH  15  16
ENDBRANCH  11  14
ENDBRANCH   5  10
BRANCH   1  23
HETATM   23  C   UNL     1       3.424  26.284  47.585  1.00  0.00     0.302 C 
HETATM   24  O   UNL     1       3.161  25.971  46.427  1.00  0.00    -0.259 OA
BRANCH  23  25
HETATM   25  O   UNL     1       3.291  25.451  48.655  1.00  0.00    -0.322 OA
HETATM   26  C   UNL     1       2.967  24.101  48.314  1.00  0.00     0.213 C 
ENDBRANCH  23  25
ENDBRANCH   1  23
BRANCH   7  27
HETATM   27  C   UNL     1       5.221  33.557  48.462  1.00  0.00     0.294 C 
BRANCH  27  28
HETATM   28  N   UNL     1       6.267  34.139  47.499  1.00  0.00    -0.061 N 
HETATM   29  H   UNL     1       6.700  33.324  47.048  1.00  0.00     0.280 HD
HETATM   30  C   UNL     1       5.709  35.009  46.360  1.00  0.00     0.190 C 
HETATM   31  C   UNL     1       6.896  35.428  45.467  1.00  0.00     0.033 C 
HETATM   32  C   UNL     1       8.016  36.109  46.239  1.00  0.00     0.004 C 
HETATM   33  C   UNL     1       8.503  35.221  47.371  1.00  0.00     0.028 C 
HETATM   34  C   UNL     1       7.354  34.845  48.288  1.00  0.00     0.235 C 
BRANCH  30  35
HETATM   35  C   UNL     1       4.705  34.224  45.498  1.00  0.00     0.059 C 
BRANCH  35  36
HETATM   36  C   UNL     1       5.362  33.268  44.508  1.00  0.00     0.166 C 
BRANCH  36  37
HETATM   37  O   UNL     1       5.668  32.073  45.211  1.00  0.00    -0.401 OA
HETATM   38  H   UNL     1       4.880  31.823  45.728  1.00  0.00     0.209 HD
ENDBRANCH  36  37
ENDBRANCH  35  36
ENDBRANCH  30  35
ENDBRANCH  27  28
ENDBRANCH   7  27
TORSDOF 10
ENDMDL
MODEL 9
REMARK VINA RESULT:      -8.1      4.191      6.757
REMARK  10 active torsions:
REMARK  status: ('A' for Active; 'I' for Inactive)
REMARK    1  A    between atoms: O_2  and  C_3 
REMARK    2  A    between atoms: C_3  and  C_4 
REMARK    3  A    between atoms: C_8  and  N_9 
REMARK       I    between atoms: N_9  and  C_10 
REMARK    4  A    between atoms: C_10  and  C_11 
REMARK    5  A    between atoms: C_12  and  C_13 
REMARK    6  A    between atoms: C_22  and  C_23 
REMARK    7  A    between atoms: C_23  and  N_24 
REMARK    8  A    between atoms: C_26  and  C_27 
REMARK    9  A    between atoms: C_27  and  C_28 
REMARK   10  A    between atoms: C_28  and  O_29 
ROOT
HETATM    1  C   UNL     1       6.109  25.640  55.007  1.00  0.00     0.110 C 
HETATM    2  S   UNL     1       5.665  24.988  53.490  1.00  0.00    -0.061 SA
HETATM    3  C   UNL     1       5.622  26.518  52.766  1.00  0.00     0.111 A 
HETATM    4  C   UNL     1       5.935  27.547  53.645  1.00  0.00     0.028 A 
HETATM    5  C   UNL     1       6.124  27.034  54.986  1.00  0.00     0.071 C 
HETATM    6  N   UNL     1       5.327  26.629  51.451  1.00  0.00    -0.243 NA
HETATM    7  C   UNL     1       5.405  27.878  50.947  1.00  0.00     0.061 A 
HETATM    8  C   UNL     1       5.768  28.988  51.698  1.00  0.00     0.030 A 
HETATM    9  C   UNL     1       6.036  28.829  53.056  1.00  0.00     0.019 A 
ENDROOT
BRANCH   5  10
HETATM   10  N   UNL     1       6.361  27.750  56.169  1.00  0.00    -0.321 N 
HETATM   11  C   UNL     1       7.506  28.448  56.479  1.00  0.00     0.245 C 
HETATM   12  O   UNL     1       8.471  28.630  55.746  1.00  0.00    -0.268 OA
HETATM   13  H   UNL     1       5.539  27.923  56.749  1.00  0.00     0.169 HD
BRANCH  11  14
HETATM   14  C   UNL     1       7.444  29.045  57.842  1.00  0.00     0.075 C 
HETATM   15  C   UNL     1       8.044  30.220  58.082  1.00  0.00     0.017 C 
BRANCH  15  16
HETATM   16  C   UNL     1       8.088  30.829  59.415  1.00  0.00    -0.036 A 
HETATM   17  C   UNL     1       7.112  31.777  59.756  1.00  0.00     0.014 A 
HETATM   18  C   UNL     1       7.124  32.379  61.016  1.00  0.00     0.043 A 
HETATM   19  C   UNL     1       8.102  32.023  61.936  1.00  0.00     0.116 A 
HETATM   20  F   UNL     1       8.115  32.602  63.143  1.00  0.00    -0.206 F 
HETATM   21  C   UNL     1       9.066  31.071  61.623  1.00  0.00     0.043 A 
HETATM   22  C   UNL     1       9.058  30.471  60.362  1.00  0.00     0.014 A 
ENDBRANCH  15  16
ENDBRANCH  11  14
ENDBRANCH   5  10
BRANCH   1  23
HETATM   23  C   UNL     1       6.379  24.790  56.158  1.00  0.00     0.302 C 
HETATM   24  O   UNL     1       5.919  24.999  57.277  1.00  0.00    -0.259 OA
BRANCH  23  25
HETATM   25  O   UNL     1       7.214  23.758  55.851  1.00  0.00    -0.322 OA
HETATM   26  C   UNL     1       8.187  23.468  56.859  1.00  0.00     0.213 C 
ENDBRANCH  23  25
ENDBRANCH   1  23
BRANCH   7  27
HETATM   27  C   UNL     1       5.039  28.042  49.484  1.00  0.00     0.294 C 
BRANCH  27  28
HETATM   28  N   UNL     1       3.764  27.320  49.023  1.00  0.00    -0.061 N 
HETATM   29  H   UNL     1       3.463  26.762  49.831  1.00  0.00     0.280 HD
HETATM   30  C   UNL     1       2.577  28.229  48.666  1.00  0.00     0.190 C 
HETATM   31  C   UNL     1       1.382  27.321  48.307  1.00  0.00     0.033 C 
HETATM   32  C   UNL     1       1.704  26.312  47.215  1.00  0.00     0.004 C 
HETATM   33  C   UNL     1       2.904  25.467  47.604  1.00  0.00     0.028 C 
HETATM   34  C   UNL     1       4.102  26.346  47.908  1.00  0.00     0.235 C 
BRANCH  30  35
HETATM   35  C   UNL     1       2.174  29.114  49.860  1.00  0.00     0.059 C 
BRANCH  35  36
HETATM   36  C   UNL     1       1.194  30.225  49.496  1.00  0.00     0.166 C 
BRANCH  36  37
HETATM   37  O   UNL     1       0.596  30.674  50.703  1.00  0.00    -0.401 OA
HETATM   38  H   UNL     1       1.297  30.734  51.378  1.00  0.00     0.209 HD
ENDBRANCH  36  37
ENDBRANCH  35  36
ENDBRANCH  30  35
ENDBRANCH  27  28
ENDBRANCH   7  27
TORSDOF 10
ENDMDL
MODEL 10
REMARK VINA RESULT:      -8.1      5.353     10.323
REMARK  10 active torsions:
REMARK  status: ('A' for Active; 'I' for Inactive)
REMARK    1  A    between atoms: O_2  and  C_3 
REMARK    2  A    between atoms: C_3  and  C_4 
REMARK    3  A    between atoms: C_8  and  N_9 
REMARK       I    between atoms: N_9  and  C_10 
REMARK    4  A    between atoms: C_10  and  C_11 
REMARK    5  A    between atoms: C_12  and  C_13 
REMARK    6  A    between atoms: C_22  and  C_23 
REMARK    7  A    between atoms: C_23  and  N_24 
REMARK    8  A    between atoms: C_26  and  C_27 
REMARK    9  A    between atoms: C_27  and  C_28 
REMARK   10  A    between atoms: C_28  and  O_29 
ROOT
HETATM    1  C   UNL     1       6.874  29.239  57.360  1.00  0.00     0.110 C 
HETATM    2  S   UNL     1       6.621  30.857  57.855  1.00  0.00    -0.061 SA
HETATM    3  C   UNL     1       5.251  31.017  56.872  1.00  0.00     0.111 A 
HETATM    4  C   UNL     1       4.958  29.866  56.151  1.00  0.00     0.028 A 
HETATM    5  C   UNL     1       5.974  28.856  56.366  1.00  0.00     0.071 C 
HETATM    6  N   UNL     1       4.559  32.178  56.872  1.00  0.00    -0.243 NA
HETATM    7  C   UNL     1       3.435  32.178  56.126  1.00  0.00     0.061 A 
HETATM    8  C   UNL     1       2.990  31.077  55.406  1.00  0.00     0.030 A 
HETATM    9  C   UNL     1       3.752  29.910  55.415  1.00  0.00     0.019 A 
ENDROOT
BRANCH   5  10
HETATM   10  N   UNL     1       6.096  27.598  55.758  1.00  0.00    -0.321 N 
HETATM   11  C   UNL     1       5.472  26.438  56.160  1.00  0.00     0.245 C 
HETATM   12  O   UNL     1       4.647  26.328  57.058  1.00  0.00    -0.268 OA
HETATM   13  H   UNL     1       6.526  27.598  54.832  1.00  0.00     0.169 HD
BRANCH  11  14
HETATM   14  C   UNL     1       5.869  25.272  55.322  1.00  0.00     0.075 C 
HETATM   15  C   UNL     1       6.764  24.391  55.790  1.00  0.00     0.017 C 
BRANCH  15  16
HETATM   16  C   UNL     1       7.257  23.264  54.992  1.00  0.00    -0.036 A 
HETATM   17  C   UNL     1       7.467  23.452  53.618  1.00  0.00     0.014 A 
HETATM   18  C   UNL     1       7.933  22.400  52.826  1.00  0.00     0.043 A 
HETATM   19  C   UNL     1       8.201  21.169  53.411  1.00  0.00     0.116 A 
HETATM   20  F   UNL     1       8.646  20.160  52.651  1.00  0.00    -0.206 F 
HETATM   21  C   UNL     1       8.018  20.970  54.775  1.00  0.00     0.043 A 
HETATM   22  C   UNL     1       7.547  22.019  55.568  1.00  0.00     0.014 A 
ENDBRANCH  15  16
ENDBRANCH  11  14
ENDBRANCH   5  10
BRANCH   1  23
HETATM   23  C   UNL     1       7.950  28.429  57.911  1.00  0.00     0.302 C 
HETATM   24  O   UNL     1       7.825  27.240  58.194  1.00  0.00    -0.259 OA
BRANCH  23  25
HETATM   25  O   UNL     1       9.093  29.147  58.098  1.00  0.00    -0.322 OA
HETATM   26  C   UNL     1       9.956  29.188  56.958  1.00  0.00     0.213 C 
ENDBRANCH  23  25
ENDBRANCH   1  23
BRANCH   7  27
HETATM   27  C   UNL     1       2.658  33.480  56.071  1.00  0.00     0.294 C 
BRANCH  27  28
HETATM   28  N   UNL     1       3.496  34.767  56.095  1.00  0.00    -0.061 N 
HETATM   29  H   UNL     1       4.473  34.452  56.105  1.00  0.00     0.280 HD
HETATM   30  C   UNL     1       3.354  35.675  54.862  1.00  0.00     0.190 C 
HETATM   31  C   UNL     1       4.324  36.862  55.040  1.00  0.00     0.033 C 
HETATM   32  C   UNL     1       4.123  37.608  56.352  1.00  0.00     0.004 C 
HETATM   33  C   UNL     1       4.239  36.657  57.531  1.00  0.00     0.028 C 
HETATM   34  C   UNL     1       3.252  35.513  57.395  1.00  0.00     0.235 C 
BRANCH  30  35
HETATM   35  C   UNL     1       3.732  34.927  53.572  1.00  0.00     0.059 C 
BRANCH  35  36
HETATM   36  C   UNL     1       5.224  34.631  53.450  1.00  0.00     0.166 C 
BRANCH  36  37
HETATM   37  O   UNL     1       5.437  33.317  53.944  1.00  0.00    -0.401 OA
HETATM   38  H   UNL     1       5.194  33.311  54.888  1.00  0.00     0.209 HD
ENDBRANCH  36  37
ENDBRANCH  35  36
ENDBRANCH  30  35
ENDBRANCH  27  28
ENDBRANCH   7  27
TORSDOF 10
ENDMDL
