MODEL 1
REMARK VINA RESULT:      -9.7      0.000      0.000
REMARK  5 active torsions:
REMARK  status: ('A' for Active; 'I' for Inactive)
REMARK    1  A    between atoms: O_2  and  C_3 
REMARK    2  A    between atoms: C_5  and  C_23 
REMARK    3  A    between atoms: C_11  and  C_14 
REMARK    4  A    between atoms: C_14  and  N_15 
REMARK    5  A    between atoms: C_14  and  C_16 
ROOT
HETATM    1  C   UNL     1       6.815  24.973  53.861  1.00  0.00     0.098 A 
HETATM    2  C   UNL     1       7.259  23.645  53.749  1.00  0.00     0.051 A 
HETATM    3  C   UNL     1       7.880  22.993  54.826  1.00  0.00    -0.019 A 
HETATM    4  C   UNL     1       8.053  23.689  56.025  1.00  0.00     0.032 A 
HETATM    5  C   UNL     1       7.600  25.008  56.138  1.00  0.00     0.064 A 
HETATM    6  C   UNL     1       7.802  25.757  57.391  1.00  0.00     0.259 A 
HETATM    7  O   UNL     1       8.361  25.262  58.361  1.00  0.00    -0.267 OA
HETATM    8  N   UNL     1       7.333  27.041  57.390  1.00  0.00    -0.309 N 
HETATM    9  C   UNL     1       6.709  27.619  56.315  1.00  0.00     0.145 A 
HETATM   10  N   UNL     1       6.518  27.001  55.194  1.00  0.00    -0.229 NA
HETATM   11  C   UNL     1       6.971  25.667  55.076  1.00  0.00     0.108 A 
HETATM   12  H   UNL     1       7.496  27.599  58.218  1.00  0.00     0.170 HD
ENDROOT
BRANCH   9  13
HETATM   13  C   UNL     1       6.256  29.075  56.503  1.00  0.00     0.320 C 
BRANCH  13  14
HETATM   14  N   UNL     1       6.148  29.700  55.168  1.00  0.00     0.094 N 
HETATM   15  H   UNL     1       5.629  30.573  55.278  1.00  0.00     0.314 HD
HETATM   16  H   UNL     1       5.547  29.105  54.595  1.00  0.00     0.314 HD
ENDBRANCH  13  14
BRANCH  13  17
HETATM   17  C   UNL     1       7.190  29.833  57.433  1.00  0.00    -0.018 A 
HETATM   18  C   UNL     1       6.639  30.664  58.425  1.00  0.00     0.011 A 
HETATM   19  C   UNL     1       7.463  31.364  59.311  1.00  0.00     0.024 A 
HETATM   20  C   UNL     1       8.846  31.237  59.218  1.00  0.00     0.034 A 
HETATM   21 CL   UNL     1       9.861  32.100  60.307  1.00  0.00    -0.084 Cl
HETATM   22  C   UNL     1       9.413  30.411  58.252  1.00  0.00     0.024 A 
HETATM   23  C   UNL     1       8.590  29.711  57.367  1.00  0.00     0.011 A 
ENDBRANCH  13  17
ENDBRANCH   9  13
BRANCH   1  24
HETATM   24  O   UNL     1       6.196  25.662  52.846  1.00  0.00    -0.354 OA
HETATM   25  C   UNL     1       4.997  25.105  52.323  1.00  0.00     0.210 C 
ENDBRANCH   1  24
BRANCH   3  26
HETATM   26  C   UNL     1       8.342  21.623  54.682  1.00  0.00     0.010 A 
HETATM   27  C   UNL     1       8.447  20.794  53.539  1.00  0.00     0.152 A 
HETATM   28  N   UNL     1       8.912  19.575  53.822  1.00  0.00    -0.187 NA
HETATM   29  N   UNL     1       9.111  19.616  55.149  1.00  0.00    -0.289 N 
HETATM   30  H   UNL     1       9.470  18.785  55.608  1.00  0.00     0.188 HD
HETATM   31  C   UNL     1       8.782  20.816  55.710  1.00  0.00     0.123 A 
ENDBRANCH   3  26
TORSDOF 5
ENDMDL
MODEL 2
REMARK VINA RESULT:      -9.1      3.760      8.498
REMARK  5 active torsions:
REMARK  status: ('A' for Active; 'I' for Inactive)
REMARK    1  A    between atoms: O_2  and  C_3 
REMARK    2  A    between atoms: C_5  and  C_23 
REMARK    3  A    between atoms: C_11  and  C_14 
REMARK    4  A    between atoms: C_14  and  N_15 
REMARK    5  A    between atoms: C_14  and  C_16 
ROOT
HETATM    1  C   UNL     1       8.700  29.334  56.854  1.00  0.00     0.098 A 
HETATM    2  C   UNL     1       8.383  30.220  57.896  1.00  0.00     0.051 A 
HETATM    3  C   UNL     1       7.050  30.545  58.193  1.00  0.00    -0.019 A 
HETATM    4  C   UNL     1       6.031  29.970  57.431  1.00  0.00     0.032 A 
HETATM    5  C   UNL     1       6.347  29.079  56.400  1.00  0.00     0.064 A 
HETATM    6  C   UNL     1       5.279  28.487  55.575  1.00  0.00     0.259 A 
HETATM    7  O   UNL     1       4.097  28.748  55.758  1.00  0.00    -0.267 OA
HETATM    8  N   UNL     1       5.700  27.641  54.589  1.00  0.00    -0.309 N 
HETATM    9  C   UNL     1       7.016  27.338  54.360  1.00  0.00     0.145 A 
HETATM   10  N   UNL     1       7.986  27.840  55.054  1.00  0.00    -0.229 NA
HETATM   11  C   UNL     1       7.671  28.738  56.099  1.00  0.00     0.108 A 
HETATM   12  H   UNL     1       4.996  27.254  53.974  1.00  0.00     0.170 HD
ENDROOT
BRANCH   9  13
HETATM   13  C   UNL     1       7.293  26.369  53.200  1.00  0.00     0.320 C 
BRANCH  13  14
HETATM   14  N   UNL     1       6.231  26.547  52.187  1.00  0.00     0.094 N 
HETATM   15  H   UNL     1       5.648  25.708  52.202  1.00  0.00     0.314 HD
HETATM   16  H   UNL     1       6.676  26.544  51.268  1.00  0.00     0.314 HD
ENDBRANCH  13  14
BRANCH  13  17
HETATM   17  C   UNL     1       7.405  24.934  53.688  1.00  0.00    -0.018 A 
HETATM   18  C   UNL     1       7.845  23.941  52.795  1.00  0.00     0.011 A 
HETATM   19  C   UNL     1       7.979  22.613  53.209  1.00  0.00     0.024 A 
HETATM   20  C   UNL     1       7.678  22.263  54.523  1.00  0.00     0.034 A 
HETATM   21 CL   UNL     1       7.839  20.628  55.033  1.00  0.00    -0.084 Cl
HETATM   22  C   UNL     1       7.251  23.231  55.428  1.00  0.00     0.024 A 
HETATM   23  C   UNL     1       7.118  24.559  55.013  1.00  0.00     0.011 A 
ENDBRANCH  13  17
ENDBRANCH   9  13
BRANCH   1  24
HETATM   24  O   UNL     1       9.982  28.972  56.518  1.00  0.00    -0.354 OA
HETATM   25  C   UNL     1      11.037  29.763  57.050  1.00  0.00     0.210 C 
ENDBRANCH   1  24
BRANCH   3  26
HETATM   26  C   UNL     1       6.748  31.474  59.269  1.00  0.00     0.010 A 
HETATM   27  C   UNL     1       5.640  32.330  59.472  1.00  0.00     0.152 A 
HETATM   28  N   UNL     1       5.736  33.050  60.593  1.00  0.00    -0.187 NA
HETATM   29  N   UNL     1       6.909  32.657  61.117  1.00  0.00    -0.289 N 
HETATM   30  H   UNL     1       7.210  33.074  61.991  1.00  0.00     0.188 HD
HETATM   31  C   UNL     1       7.554  31.720  60.362  1.00  0.00     0.123 A 
ENDBRANCH   3  26
TORSDOF 5
ENDMDL
MODEL 3
REMARK VINA RESULT:      -9.0      3.633      8.444
REMARK  5 active torsions:
REMARK  status: ('A' for Active; 'I' for Inactive)
REMARK    1  A    between atoms: O_2  and  C_3 
REMARK    2  A    between atoms: C_5  and  C_23 
REMARK    3  A    between atoms: C_11  and  C_14 
REMARK    4  A    between atoms: C_14  and  N_15 
REMARK    5  A    between atoms: C_14  and  C_16 
ROOT
HETATM    1  C   UNL     1       7.490  28.656  56.605  1.00  0.00     0.098 A 
HETATM    2  C   UNL     1       6.780  29.614  57.347  1.00  0.00     0.051 A 
HETATM    3  C   UNL     1       5.463  29.965  57.010  1.00  0.00    -0.019 A 
HETATM    4  C   UNL     1       4.861  29.342  55.914  1.00  0.00     0.032 A 
HETATM    5  C   UNL     1       5.565  28.380  55.183  1.00  0.00     0.064 A 
HETATM    6  C   UNL     1       4.945  27.738  54.010  1.00  0.00     0.259 A 
HETATM    7  O   UNL     1       3.812  28.016  53.641  1.00  0.00    -0.267 OA
HETATM    8  N   UNL     1       5.725  26.823  53.361  1.00  0.00    -0.309 N 
HETATM    9  C   UNL     1       6.998  26.500  53.751  1.00  0.00     0.145 A 
HETATM   10  N   UNL     1       7.584  27.044  54.769  1.00  0.00    -0.229 NA
HETATM   11  C   UNL     1       6.874  28.015  55.513  1.00  0.00     0.108 A 
HETATM   12  H   UNL     1       5.348  26.397  52.525  1.00  0.00     0.170 HD
ENDROOT
BRANCH   9  13
HETATM   13  C   UNL     1       7.720  25.451  52.891  1.00  0.00     0.320 C 
BRANCH  13  14
HETATM   14  N   UNL     1       7.049  25.392  51.576  1.00  0.00     0.094 N 
HETATM   15  H   UNL     1       7.179  24.449  51.206  1.00  0.00     0.314 HD
HETATM   16  H   UNL     1       7.564  26.001  50.937  1.00  0.00     0.314 HD
ENDBRANCH  13  14
BRANCH  13  17
HETATM   17  C   UNL     1       7.772  24.100  53.586  1.00  0.00    -0.018 A 
HETATM   18  C   UNL     1       7.608  24.044  54.982  1.00  0.00     0.011 A 
HETATM   19  C   UNL     1       7.631  22.820  55.656  1.00  0.00     0.024 A 
HETATM   20  C   UNL     1       7.813  21.639  54.943  1.00  0.00     0.034 A 
HETATM   21 CL   UNL     1       7.844  20.132  55.773  1.00  0.00    -0.084 Cl
HETATM   22  C   UNL     1       7.965  21.669  53.560  1.00  0.00     0.024 A 
HETATM   23  C   UNL     1       7.942  22.893  52.885  1.00  0.00     0.011 A 
ENDBRANCH  13  17
ENDBRANCH   9  13
BRANCH   1  24
HETATM   24  O   UNL     1       8.777  28.267  56.888  1.00  0.00    -0.354 OA
HETATM   25  C   UNL     1       9.753  29.294  57.005  1.00  0.00     0.210 C 
ENDBRANCH   1  24
BRANCH   3  26
HETATM   26  C   UNL     1       4.754  30.968  57.786  1.00  0.00     0.010 A 
HETATM   27  C   UNL     1       3.544  30.892  58.516  1.00  0.00     0.152 A 
HETATM   28  N   UNL     1       3.211  32.049  59.093  1.00  0.00    -0.187 NA
HETATM   29  N   UNL     1       4.207  32.875  58.736  1.00  0.00    -0.289 N 
HETATM   30  H   UNL     1       4.176  33.835  59.061  1.00  0.00     0.188 HD
HETATM   31  C   UNL     1       5.152  32.278  57.953  1.00  0.00     0.123 A 
ENDBRANCH   3  26
TORSDOF 5
ENDMDL
MODEL 4
REMARK VINA RESULT:      -9.0      1.964      2.297
REMARK  5 active torsions:
REMARK  status: ('A' for Active; 'I' for Inactive)
REMARK    1  A    between atoms: O_2  and  C_3 
REMARK    2  A    between atoms: C_5  and  C_23 
REMARK    3  A    between atoms: C_11  and  C_14 
REMARK    4  A    between atoms: C_14  and  N_15 
REMARK    5  A    between atoms: C_14  and  C_16 
ROOT
HETATM    1  C   UNL     1       6.473  25.345  52.730  1.00  0.00     0.098 A 
HETATM    2  C   UNL     1       7.088  24.083  52.768  1.00  0.00     0.051 A 
HETATM    3  C   UNL     1       7.172  23.352  53.963  1.00  0.00    -0.019 A 
HETATM    4  C   UNL     1       6.630  23.901  55.128  1.00  0.00     0.032 A 
HETATM    5  C   UNL     1       6.007  25.152  55.086  1.00  0.00     0.064 A 
HETATM    6  C   UNL     1       5.455  25.749  56.314  1.00  0.00     0.259 A 
HETATM    7  O   UNL     1       5.519  25.182  57.397  1.00  0.00    -0.267 OA
HETATM    8  N   UNL     1       4.880  26.980  56.163  1.00  0.00    -0.309 N 
HETATM    9  C   UNL     1       4.803  27.637  54.963  1.00  0.00     0.145 A 
HETATM   10  N   UNL     1       5.280  27.154  53.862  1.00  0.00    -0.229 NA
HETATM   11  C   UNL     1       5.908  25.888  53.899  1.00  0.00     0.108 A 
HETATM   12  H   UNL     1       4.533  27.439  56.995  1.00  0.00     0.170 HD
ENDROOT
BRANCH   9  13
HETATM   13  C   UNL     1       4.124  29.016  54.994  1.00  0.00     0.320 C 
BRANCH  13  14
HETATM   14  N   UNL     1       4.339  29.665  53.684  1.00  0.00     0.094 N 
HETATM   15  H   UNL     1       3.483  30.168  53.446  1.00  0.00     0.314 HD
HETATM   16  H   UNL     1       4.417  28.927  52.982  1.00  0.00     0.314 HD
ENDBRANCH  13  14
BRANCH  13  17
HETATM   17  C   UNL     1       4.626  29.857  56.156  1.00  0.00    -0.018 A 
HETATM   18  C   UNL     1       3.702  30.334  57.104  1.00  0.00     0.011 A 
HETATM   19  C   UNL     1       4.125  31.096  58.196  1.00  0.00     0.024 A 
HETATM   20  C   UNL     1       5.476  31.386  58.357  1.00  0.00     0.034 A 
HETATM   21 CL   UNL     1       5.998  32.326  59.700  1.00  0.00    -0.084 Cl
HETATM   22  C   UNL     1       6.411  30.915  57.438  1.00  0.00     0.024 A 
HETATM   23  C   UNL     1       5.988  30.153  56.346  1.00  0.00     0.011 A 
ENDBRANCH  13  17
ENDBRANCH   9  13
BRANCH   1  24
HETATM   24  O   UNL     1       6.354  26.105  51.591  1.00  0.00    -0.354 OA
HETATM   25  C   UNL     1       5.208  25.880  50.779  1.00  0.00     0.210 C 
ENDBRANCH   1  24
BRANCH   3  26
HETATM   26  C   UNL     1       7.825  22.054  53.980  1.00  0.00     0.010 A 
HETATM   27  C   UNL     1       8.109  21.144  52.935  1.00  0.00     0.152 A 
HETATM   28  N   UNL     1       8.720  20.035  53.360  1.00  0.00    -0.187 NA
HETATM   29  N   UNL     1       8.833  20.229  54.684  1.00  0.00    -0.289 N 
HETATM   30  H   UNL     1       9.275  19.506  55.241  1.00  0.00     0.188 HD
HETATM   31  C   UNL     1       8.311  21.418  55.105  1.00  0.00     0.123 A 
ENDBRANCH   3  26
TORSDOF 5
ENDMDL
MODEL 5
REMARK VINA RESULT:      -8.8      1.826      3.512
REMARK  5 active torsions:
REMARK  status: ('A' for Active; 'I' for Inactive)
REMARK    1  A    between atoms: O_2  and  C_3 
REMARK    2  A    between atoms: C_5  and  C_23 
REMARK    3  A    between atoms: C_11  and  C_14 
REMARK    4  A    between atoms: C_14  and  N_15 
REMARK    5  A    between atoms: C_14  and  C_16 
ROOT
HETATM    1  C   UNL     1       6.660  24.853  56.078  1.00  0.00     0.098 A 
HETATM    2  C   UNL     1       7.302  23.629  55.829  1.00  0.00     0.051 A 
HETATM    3  C   UNL     1       7.238  23.019  54.567  1.00  0.00    -0.019 A 
HETATM    4  C   UNL     1       6.520  23.651  53.549  1.00  0.00     0.032 A 
HETATM    5  C   UNL     1       5.890  24.876  53.796  1.00  0.00     0.064 A 
HETATM    6  C   UNL     1       5.110  25.537  52.735  1.00  0.00     0.259 A 
HETATM    7  O   UNL     1       4.986  25.048  51.619  1.00  0.00    -0.267 OA
HETATM    8  N   UNL     1       4.527  26.721  53.086  1.00  0.00    -0.309 N 
HETATM    9  C   UNL     1       4.645  27.285  54.330  1.00  0.00     0.145 A 
HETATM   10  N   UNL     1       5.314  26.736  55.292  1.00  0.00    -0.229 NA
HETATM   11  C   UNL     1       5.954  25.500  55.046  1.00  0.00     0.108 A 
HETATM   12  H   UNL     1       3.945  27.179  52.396  1.00  0.00     0.170 HD
ENDROOT
BRANCH   9  13
HETATM   13  C   UNL     1       3.912  28.619  54.536  1.00  0.00     0.320 C 
BRANCH  13  14
HETATM   14  N   UNL     1       3.970  29.379  53.270  1.00  0.00     0.094 N 
HETATM   15  H   UNL     1       4.921  29.298  52.906  1.00  0.00     0.314 HD
HETATM   16  H   UNL     1       3.855  30.368  53.497  1.00  0.00     0.314 HD
ENDBRANCH  13  14
BRANCH  13  17
HETATM   17  C   UNL     1       4.486  29.394  55.712  1.00  0.00    -0.018 A 
HETATM   18  C   UNL     1       5.869  29.644  55.755  1.00  0.00     0.011 A 
HETATM   19  C   UNL     1       6.434  30.367  56.810  1.00  0.00     0.024 A 
HETATM   20  C   UNL     1       5.621  30.852  57.830  1.00  0.00     0.034 A 
HETATM   21 CL   UNL     1       6.316  31.740  59.130  1.00  0.00    -0.084 Cl
HETATM   22  C   UNL     1       4.248  30.627  57.803  1.00  0.00     0.024 A 
HETATM   23  C   UNL     1       3.684  29.904  56.748  1.00  0.00     0.011 A 
ENDBRANCH  13  17
ENDBRANCH   9  13
BRANCH   1  24
HETATM   24  O   UNL     1       6.691  25.502  57.289  1.00  0.00    -0.354 OA
HETATM   25  C   UNL     1       7.912  26.133  57.654  1.00  0.00     0.210 C 
ENDBRANCH   1  24
BRANCH   3  26
HETATM   26  C   UNL     1       7.900  21.745  54.337  1.00  0.00     0.010 A 
HETATM   27  C   UNL     1       8.087  20.997  53.150  1.00  0.00     0.152 A 
HETATM   28  N   UNL     1       8.746  19.854  53.354  1.00  0.00    -0.187 NA
HETATM   29  N   UNL     1       8.987  19.863  54.675  1.00  0.00    -0.289 N 
HETATM   30  H   UNL     1       9.487  19.078  55.079  1.00  0.00     0.188 HD
HETATM   31  C   UNL     1       8.499  20.970  55.308  1.00  0.00     0.123 A 
ENDBRANCH   3  26
TORSDOF 5
ENDMDL
MODEL 6
REMARK VINA RESULT:      -8.7      5.158      7.206
REMARK  5 active torsions:
REMARK  status: ('A' for Active; 'I' for Inactive)
REMARK    1  A    between atoms: O_2  and  C_3 
REMARK    2  A    between atoms: C_5  and  C_23 
REMARK    3  A    between atoms: C_11  and  C_14 
REMARK    4  A    between atoms: C_14  and  N_15 
REMARK    5  A    between atoms: C_14  and  C_16 
ROOT
HETATM    1  C   UNL     1       5.434  32.103  57.017  1.00  0.00     0.098 A 
HETATM    2  C   UNL     1       4.808  31.389  55.982  1.00  0.00     0.051 A 
HETATM    3  C   UNL     1       5.079  30.028  55.772  1.00  0.00    -0.019 A 
HETATM    4  C   UNL     1       5.987  29.384  56.615  1.00  0.00     0.032 A 
HETATM    5  C   UNL     1       6.601  30.093  57.653  1.00  0.00     0.064 A 
HETATM    6  C   UNL     1       7.580  29.428  58.530  1.00  0.00     0.259 A 
HETATM    7  O   UNL     1       7.886  28.251  58.387  1.00  0.00    -0.267 OA
HETATM    8  N   UNL     1       8.129  30.216  59.502  1.00  0.00    -0.309 N 
HETATM    9  C   UNL     1       7.808  31.537  59.678  1.00  0.00     0.145 A 
HETATM   10  N   UNL     1       6.960  32.162  58.927  1.00  0.00    -0.229 NA
HETATM   11  C   UNL     1       6.335  31.448  57.879  1.00  0.00     0.108 A 
HETATM   12  H   UNL     1       8.839  29.803  60.093  1.00  0.00     0.170 HD
ENDROOT
BRANCH   9  13
HETATM   13  C   UNL     1       8.534  32.259  60.823  1.00  0.00     0.320 C 
BRANCH  13  14
HETATM   14  N   UNL     1       9.684  31.428  61.237  1.00  0.00     0.094 N 
HETATM   15  H   UNL     1      10.473  31.672  60.637  1.00  0.00     0.314 HD
HETATM   16  H   UNL     1       9.464  30.458  61.005  1.00  0.00     0.314 HD
ENDBRANCH  13  14
BRANCH  13  17
HETATM   17  C   UNL     1       7.590  32.571  61.973  1.00  0.00    -0.018 A 
HETATM   18  C   UNL     1       8.107  32.654  63.278  1.00  0.00     0.011 A 
HETATM   19  C   UNL     1       7.276  32.956  64.360  1.00  0.00     0.024 A 
HETATM   20  C   UNL     1       5.919  33.184  64.148  1.00  0.00     0.034 A 
HETATM   21 CL   UNL     1       4.893  33.553  65.480  1.00  0.00    -0.084 Cl
HETATM   22  C   UNL     1       5.387  33.118  62.864  1.00  0.00     0.024 A 
HETATM   23  C   UNL     1       6.218  32.816  61.782  1.00  0.00     0.011 A 
ENDBRANCH  13  17
ENDBRANCH   9  13
BRANCH   1  24
HETATM   24  O   UNL     1       5.208  33.434  57.277  1.00  0.00    -0.354 OA
HETATM   25  C   UNL     1       3.904  33.794  57.717  1.00  0.00     0.210 C 
ENDBRANCH   1  24
BRANCH   3  26
HETATM   26  C   UNL     1       4.428  29.314  54.687  1.00  0.00     0.010 A 
HETATM   27  C   UNL     1       3.694  29.787  53.573  1.00  0.00     0.152 A 
HETATM   28  N   UNL     1       3.238  28.803  52.794  1.00  0.00    -0.187 NA
HETATM   29  N   UNL     1       3.679  27.691  53.404  1.00  0.00    -0.289 N 
HETATM   30  H   UNL     1       3.453  26.793  52.990  1.00  0.00     0.188 HD
HETATM   31  C   UNL     1       4.393  27.942  54.540  1.00  0.00     0.123 A 
ENDBRANCH   3  26
TORSDOF 5
ENDMDL
MODEL 7
REMARK VINA RESULT:      -8.7      3.495      8.137
REMARK  5 active torsions:
REMARK  status: ('A' for Active; 'I' for Inactive)
REMARK    1  A    between atoms: O_2  and  C_3 
REMARK    2  A    between atoms: C_5  and  C_23 
REMARK    3  A    between atoms: C_11  and  C_14 
REMARK    4  A    between atoms: C_14  and  N_15 
REMARK    5  A    between atoms: C_14  and  C_16 
ROOT
HETATM    1  C   UNL     1       5.957  29.614  56.152  1.00  0.00     0.098 A 
HETATM    2  C   UNL     1       6.359  30.455  57.202  1.00  0.00     0.051 A 
HETATM    3  C   UNL     1       7.295  30.027  58.157  1.00  0.00    -0.019 A 
HETATM    4  C   UNL     1       7.827  28.741  58.049  1.00  0.00     0.032 A 
HETATM    5  C   UNL     1       7.434  27.908  56.996  1.00  0.00     0.064 A 
HETATM    6  C   UNL     1       7.971  26.540  56.890  1.00  0.00     0.259 A 
HETATM    7  O   UNL     1       8.768  26.090  57.703  1.00  0.00    -0.267 OA
HETATM    8  N   UNL     1       7.511  25.809  55.831  1.00  0.00    -0.309 N 
HETATM    9  C   UNL     1       6.615  26.288  54.912  1.00  0.00     0.145 A 
HETATM   10  N   UNL     1       6.112  27.479  54.971  1.00  0.00    -0.229 NA
HETATM   11  C   UNL     1       6.509  28.324  56.032  1.00  0.00     0.108 A 
HETATM   12  H   UNL     1       7.824  24.850  55.755  1.00  0.00     0.170 HD
ENDROOT
BRANCH   9  13
HETATM   13  C   UNL     1       6.211  25.314  53.794  1.00  0.00     0.320 C 
BRANCH  13  14
HETATM   14  N   UNL     1       4.738  25.199  53.791  1.00  0.00     0.094 N 
HETATM   15  H   UNL     1       4.505  24.231  53.564  1.00  0.00     0.314 HD
HETATM   16  H   UNL     1       4.386  25.748  53.005  1.00  0.00     0.314 HD
ENDBRANCH  13  14
BRANCH  13  17
HETATM   17  C   UNL     1       6.905  23.969  53.951  1.00  0.00    -0.018 A 
HETATM   18  C   UNL     1       6.930  23.357  55.217  1.00  0.00     0.011 A 
HETATM   19  C   UNL     1       7.542  22.114  55.398  1.00  0.00     0.024 A 
HETATM   20  C   UNL     1       8.131  21.467  54.316  1.00  0.00     0.034 A 
HETATM   21 CL   UNL     1       8.887  19.937  54.539  1.00  0.00    -0.084 Cl
HETATM   22  C   UNL     1       8.107  22.048  53.051  1.00  0.00     0.024 A 
HETATM   23  C   UNL     1       7.496  23.291  52.870  1.00  0.00     0.011 A 
ENDBRANCH  13  17
ENDBRANCH   9  13
BRANCH   1  24
HETATM   24  O   UNL     1       5.051  29.976  55.184  1.00  0.00    -0.354 OA
HETATM   25  C   UNL     1       3.813  30.517  55.627  1.00  0.00     0.210 C 
ENDBRANCH   1  24
BRANCH   3  26
HETATM   26  C   UNL     1       7.686  30.912  59.242  1.00  0.00     0.010 A 
HETATM   27  C   UNL     1       7.030  32.029  59.812  1.00  0.00     0.152 A 
HETATM   28  N   UNL     1       7.729  32.595  60.799  1.00  0.00    -0.187 NA
HETATM   29  N   UNL     1       8.838  31.842  60.869  1.00  0.00    -0.289 N 
HETATM   30  H   UNL     1       9.540  32.081  61.562  1.00  0.00     0.188 HD
HETATM   31  C   UNL     1       8.863  30.825  59.959  1.00  0.00     0.123 A 
ENDBRANCH   3  26
TORSDOF 5
ENDMDL
MODEL 8
REMARK VINA RESULT:      -8.7      5.574     10.007
REMARK  5 active torsions:
REMARK  status: ('A' for Active; 'I' for Inactive)
REMARK    1  A    between atoms: O_2  and  C_3 
REMARK    2  A    between atoms: C_5  and  C_23 
REMARK    3  A    between atoms: C_11  and  C_14 
REMARK    4  A    between atoms: C_14  and  N_15 
REMARK    5  A    between atoms: C_14  and  C_16 
ROOT
HETATM    1  C   UNL     1       5.809  32.743  59.657  1.00  0.00     0.098 A 
HETATM    2  C   UNL     1       4.961  33.244  60.659  1.00  0.00     0.051 A 
HETATM    3  C   UNL     1       5.190  32.958  62.014  1.00  0.00    -0.019 A 
HETATM    4  C   UNL     1       6.284  32.161  62.359  1.00  0.00     0.032 A 
HETATM    5  C   UNL     1       7.134  31.672  61.361  1.00  0.00     0.064 A 
HETATM    6  C   UNL     1       8.275  30.809  61.715  1.00  0.00     0.259 A 
HETATM    7  O   UNL     1       8.517  30.495  62.873  1.00  0.00    -0.267 OA
HETATM    8  N   UNL     1       9.033  30.377  60.663  1.00  0.00    -0.309 N 
HETATM    9  C   UNL     1       8.778  30.709  59.358  1.00  0.00     0.145 A 
HETATM   10  N   UNL     1       7.783  31.457  59.002  1.00  0.00    -0.229 NA
HETATM   11  C   UNL     1       6.923  31.956  60.007  1.00  0.00     0.108 A 
HETATM   12  H   UNL     1       9.796  29.745  60.865  1.00  0.00     0.170 HD
ENDROOT
BRANCH   9  13
HETATM   13  C   UNL     1       9.739  30.121  58.314  1.00  0.00     0.320 C 
BRANCH  13  14
HETATM   14  N   UNL     1      10.479  31.237  57.688  1.00  0.00     0.094 N 
HETATM   15  H   UNL     1      10.020  31.453  56.802  1.00  0.00     0.314 HD
HETATM   16  H   UNL     1      11.404  30.888  57.430  1.00  0.00     0.314 HD
ENDBRANCH  13  14
BRANCH  13  17
HETATM   17  C   UNL     1       9.001  29.264  57.298  1.00  0.00    -0.018 A 
HETATM   18  C   UNL     1       8.095  28.291  57.757  1.00  0.00     0.011 A 
HETATM   19  C   UNL     1       7.383  27.494  56.855  1.00  0.00     0.024 A 
HETATM   20  C   UNL     1       7.566  27.664  55.486  1.00  0.00     0.034 A 
HETATM   21 CL   UNL     1       6.692  26.682  54.375  1.00  0.00    -0.084 Cl
HETATM   22  C   UNL     1       8.448  28.629  55.009  1.00  0.00     0.024 A 
HETATM   23  C   UNL     1       9.160  29.426  55.910  1.00  0.00     0.011 A 
ENDBRANCH  13  17
ENDBRANCH   9  13
BRANCH   1  24
HETATM   24  O   UNL     1       5.642  32.991  58.316  1.00  0.00    -0.354 OA
HETATM   25  C   UNL     1       4.635  33.927  57.953  1.00  0.00     0.210 C 
ENDBRANCH   1  24
BRANCH   3  26
HETATM   26  C   UNL     1       4.291  33.478  63.031  1.00  0.00     0.010 A 
HETATM   27  C   UNL     1       4.501  33.750  64.404  1.00  0.00     0.152 A 
HETATM   28  N   UNL     1       3.409  34.216  65.015  1.00  0.00    -0.187 NA
HETATM   29  N   UNL     1       2.491  34.245  64.035  1.00  0.00    -0.289 N 
HETATM   30  H   UNL     1       1.557  34.570  64.260  1.00  0.00     0.188 HD
HETATM   31  C   UNL     1       2.967  33.812  62.832  1.00  0.00     0.123 A 
ENDBRANCH   3  26
TORSDOF 5
ENDMDL
MODEL 9
REMARK VINA RESULT:      -8.5      3.930      8.305
REMARK  5 active torsions:
REMARK  status: ('A' for Active; 'I' for Inactive)
REMARK    1  A    between atoms: O_2  and  C_3 
REMARK    2  A    between atoms: C_5  and  C_23 
REMARK    3  A    between atoms: C_11  and  C_14 
REMARK    4  A    between atoms: C_14  and  N_15 
REMARK    5  A    between atoms: C_14  and  C_16 
ROOT
HETATM    1  C   UNL     1       4.110  28.762  54.118  1.00  0.00     0.098 A 
HETATM    2  C   UNL     1       3.675  29.812  54.943  1.00  0.00     0.051 A 
HETATM    3  C   UNL     1       4.532  30.394  55.890  1.00  0.00    -0.019 A 
HETATM    4  C   UNL     1       5.838  29.910  56.004  1.00  0.00     0.032 A 
HETATM    5  C   UNL     1       6.273  28.872  55.174  1.00  0.00     0.064 A 
HETATM    6  C   UNL     1       7.640  28.339  55.305  1.00  0.00     0.259 A 
HETATM    7  O   UNL     1       8.432  28.778  56.129  1.00  0.00    -0.267 OA
HETATM    8  N   UNL     1       7.957  27.317  54.455  1.00  0.00    -0.309 N 
HETATM    9  C   UNL     1       7.086  26.805  53.529  1.00  0.00     0.145 A 
HETATM   10  N   UNL     1       5.875  27.237  53.385  1.00  0.00    -0.229 NA
HETATM   11  C   UNL     1       5.432  28.288  54.219  1.00  0.00     0.108 A 
HETATM   12  H   UNL     1       8.872  26.897  54.550  1.00  0.00     0.170 HD
ENDROOT
BRANCH   9  13
HETATM   13  C   UNL     1       7.623  25.653  52.666  1.00  0.00     0.320 C 
BRANCH  13  14
HETATM   14  N   UNL     1       6.802  25.573  51.440  1.00  0.00     0.094 N 
HETATM   15  H   UNL     1       6.926  24.639  51.047  1.00  0.00     0.314 HD
HETATM   16  H   UNL     1       7.210  26.207  50.751  1.00  0.00     0.314 HD
ENDBRANCH  13  14
BRANCH  13  17
HETATM   17  C   UNL     1       7.653  24.344  53.439  1.00  0.00    -0.018 A 
HETATM   18  C   UNL     1       7.273  24.343  54.794  1.00  0.00     0.011 A 
HETATM   19  C   UNL     1       7.270  23.158  55.535  1.00  0.00     0.024 A 
HETATM   20  C   UNL     1       7.641  21.961  54.930  1.00  0.00     0.034 A 
HETATM   21 CL   UNL     1       7.640  20.502  55.843  1.00  0.00    -0.084 Cl
HETATM   22  C   UNL     1       8.010  21.936  53.588  1.00  0.00     0.024 A 
HETATM   23  C   UNL     1       8.013  23.121  52.847  1.00  0.00     0.011 A 
ENDBRANCH  13  17
ENDBRANCH   9  13
BRANCH   1  24
HETATM   24  O   UNL     1       3.322  28.155  53.169  1.00  0.00    -0.354 OA
HETATM   25  C   UNL     1       2.943  28.941  52.046  1.00  0.00     0.210 C 
ENDBRANCH   1  24
BRANCH   3  26
HETATM   26  C   UNL     1       4.056  31.472  56.741  1.00  0.00     0.010 A 
HETATM   27  C   UNL     1       3.767  31.502  58.126  1.00  0.00     0.152 A 
HETATM   28  N   UNL     1       3.333  32.695  58.541  1.00  0.00    -0.187 NA
HETATM   29  N   UNL     1       3.342  33.438  57.422  1.00  0.00    -0.289 N 
HETATM   30  H   UNL     1       3.044  34.405  57.484  1.00  0.00     0.188 HD
HETATM   31  C   UNL     1       3.763  32.752  56.319  1.00  0.00     0.123 A 
ENDBRANCH   3  26
TORSDOF 5
ENDMDL
MODEL 10
REMARK VINA RESULT:      -8.5      3.911      8.018
REMARK  5 active torsions:
REMARK  status: ('A' for Active; 'I' for Inactive)
REMARK    1  A    between atoms: O_2  and  C_3 
REMARK    2  A    between atoms: C_5  and  C_23 
REMARK    3  A    between atoms: C_11  and  C_14 
REMARK    4  A    between atoms: C_14  and  N_15 
REMARK    5  A    between atoms: C_14  and  C_16 
ROOT
HETATM    1  C   UNL     1       4.812  26.740  53.682  1.00  0.00     0.098 A 
HETATM    2  C   UNL     1       4.152  27.916  53.289  1.00  0.00     0.051 A 
HETATM    3  C   UNL     1       4.207  29.077  54.076  1.00  0.00    -0.019 A 
HETATM    4  C   UNL     1       4.934  29.048  55.269  1.00  0.00     0.032 A 
HETATM    5  C   UNL     1       5.599  27.879  55.653  1.00  0.00     0.064 A 
HETATM    6  C   UNL     1       6.346  27.833  56.922  1.00  0.00     0.259 A 
HETATM    7  O   UNL     1       6.412  28.798  57.672  1.00  0.00    -0.267 OA
HETATM    8  N   UNL     1       6.948  26.639  57.206  1.00  0.00    -0.309 N 
HETATM    9  C   UNL     1       6.883  25.543  56.386  1.00  0.00     0.145 A 
HETATM   10  N   UNL     1       6.232  25.537  55.267  1.00  0.00    -0.229 NA
HETATM   11  C   UNL     1       5.561  26.717  54.874  1.00  0.00     0.108 A 
HETATM   12  H   UNL     1       7.430  26.558  58.092  1.00  0.00     0.170 HD
ENDROOT
BRANCH   9  13
HETATM   13  C   UNL     1       7.620  24.289  56.880  1.00  0.00     0.320 C 
BRANCH  13  14
HETATM   14  N   UNL     1       8.879  24.716  57.523  1.00  0.00     0.094 N 
HETATM   15  H   UNL     1       9.583  24.002  57.327  1.00  0.00     0.314 HD
HETATM   16  H   UNL     1       8.739  24.679  58.534  1.00  0.00     0.314 HD
ENDBRANCH  13  14
BRANCH  13  17
HETATM   17  C   UNL     1       7.844  23.295  55.751  1.00  0.00    -0.018 A 
HETATM   18  C   UNL     1       7.627  21.926  55.993  1.00  0.00     0.011 A 
HETATM   19  C   UNL     1       7.805  20.983  54.978  1.00  0.00     0.024 A 
HETATM   20  C   UNL     1       8.197  21.397  53.708  1.00  0.00     0.034 A 
HETATM   21 CL   UNL     1       8.419  20.235  52.458  1.00  0.00    -0.084 Cl
HETATM   22  C   UNL     1       8.406  22.747  53.442  1.00  0.00     0.024 A 
HETATM   23  C   UNL     1       8.228  23.690  54.457  1.00  0.00     0.011 A 
ENDBRANCH  13  17
ENDBRANCH   9  13
BRANCH   1  24
HETATM   24  O   UNL     1       4.801  25.574  52.953  1.00  0.00    -0.354 OA
HETATM   25  C   UNL     1       5.500  25.580  51.715  1.00  0.00     0.210 C 
ENDBRANCH   1  24
BRANCH   3  26
HETATM   26  C   UNL     1       3.506  30.278  53.655  1.00  0.00     0.010 A 
HETATM   27  C   UNL     1       3.043  31.391  54.396  1.00  0.00     0.152 A 
HETATM   28  N   UNL     1       2.426  32.301  53.638  1.00  0.00    -0.187 NA
HETATM   29  N   UNL     1       2.490  31.775  52.404  1.00  0.00    -0.289 N 
HETATM   30  H   UNL     1       2.077  32.296  51.637  1.00  0.00     0.188 HD
HETATM   31  C   UNL     1       3.122  30.567  52.361  1.00  0.00     0.123 A 
ENDBRANCH   3  26
TORSDOF 5
ENDMDL
