MODEL 1
REMARK VINA RESULT:      -9.1      0.000      0.000
REMARK  11 active torsions:
REMARK  status: ('A' for Active; 'I' for Inactive)
REMARK    1  A    between atoms: C_2  and  O_3 
REMARK    2  A    between atoms: O_3  and  C_4 
REMARK    3  A    between atoms: C_5  and  O_6 
REMARK    4  A    between atoms: C_9  and  C_10 
REMARK    5  A    between atoms: N_11  and  C_12 
REMARK    6  A    between atoms: C_12  and  C_13 
REMARK    7  A    between atoms: C_13  and  C_14 
REMARK    8  A    between atoms: C_14  and  N_15 
REMARK    9  A    between atoms: C_27  and  O_28 
REMARK   10  A    between atoms: C_27  and  C_29 
REMARK   11  A    between atoms: C_30  and  C_31 
ROOT
HETATM    1  C   UNL     1       5.611  28.443  53.552  1.00  0.00     0.161 C 
HETATM    2  N   UNL     1       4.597  29.481  53.744  1.00  0.00    -0.332 N 
HETATM    3  C   UNL     1       3.823  29.642  52.613  1.00  0.00     0.295 C 
HETATM    4  O   UNL     1       3.110  30.595  52.356  1.00  0.00    -0.264 OA
HETATM    5  C   UNL     1       5.056  27.572  52.445  1.00  0.00     0.058 C 
HETATM    6  C   UNL     1       4.100  28.435  51.712  1.00  0.00     0.250 C 
HETATM    7  O   UNL     1       3.627  28.241  50.614  1.00  0.00    -0.282 OA
HETATM    8  C   UNL     1       5.236  26.289  52.090  1.00  0.00     0.078 C 
ENDROOT
BRANCH   1   9
HETATM    9  C   UNL     1       6.104  27.784  54.816  1.00  0.00    -0.028 A 
HETATM   10  C   UNL     1       5.346  26.824  55.505  1.00  0.00     0.012 A 
HETATM   11  C   UNL     1       5.859  26.214  56.650  1.00  0.00     0.040 A 
HETATM   12  C   UNL     1       7.127  26.560  57.103  1.00  0.00     0.099 A 
HETATM   13  C   UNL     1       7.908  27.511  56.441  1.00  0.00     0.102 A 
HETATM   14  C   UNL     1       7.392  28.117  55.298  1.00  0.00     0.049 A 
BRANCH  12  15
HETATM   15  O   UNL     1       7.602  25.935  58.222  1.00  0.00    -0.358 OA
HETATM   16  H   UNL     1       8.572  25.902  58.109  1.00  0.00     0.218 HD
ENDBRANCH  12  15
BRANCH  13  17
HETATM   17  O   UNL     1       9.135  27.755  57.000  1.00  0.00    -0.349 OA
BRANCH  17  18
HETATM   18  C   UNL     1       9.434  29.108  57.348  1.00  0.00     0.171 C 
HETATM   19  C   UNL     1      10.709  29.515  56.632  1.00  0.00     0.034 C 
ENDBRANCH  17  18
ENDBRANCH  13  17
ENDBRANCH   1   9
BRANCH   2  20
HETATM   20  C   UNL     1       4.626  30.471  54.811  1.00  0.00     0.129 C 
BRANCH  20  21
HETATM   21  C   UNL     1       3.559  30.307  55.892  1.00  0.00     0.048 C 
BRANCH  21  22
HETATM   22  C   UNL     1       3.976  29.641  57.204  1.00  0.00     0.236 C 
BRANCH  22  23
HETATM   23  N   UNL     1       4.726  30.533  58.154  1.00  0.00    -0.067 N 
HETATM   24  H   UNL     1       4.546  30.189  59.121  1.00  0.00     0.280 HD
HETATM   25  C   UNL     1       6.230  30.605  57.930  1.00  0.00     0.261 C 
HETATM   26  C   UNL     1       6.865  31.547  58.959  1.00  0.00     0.195 C 
HETATM   27  O   UNL     1       6.285  32.852  58.883  1.00  0.00    -0.388 OA
HETATM   28  C   UNL     1       4.883  32.820  59.172  1.00  0.00     0.195 C 
HETATM   29  C   UNL     1       4.141  31.950  58.153  1.00  0.00     0.261 C 
ENDBRANCH  22  23
ENDBRANCH  21  22
ENDBRANCH  20  21
ENDBRANCH   2  20
BRANCH   8  30
HETATM   30  O   UNL     1       4.661  25.715  50.977  1.00  0.00    -0.360 OA
HETATM   31  H   UNL     1       4.453  26.398  50.305  1.00  0.00     0.217 HD
ENDBRANCH   8  30
BRANCH   8  32
HETATM   32  C   UNL     1       5.977  25.340  52.883  1.00  0.00     0.038 C 
HETATM   33  C   UNL     1       7.044  24.631  52.489  1.00  0.00     0.014 C 
BRANCH  33  34
HETATM   34  C   UNL     1       7.707  23.713  53.426  1.00  0.00    -0.036 A 
HETATM   35  C   UNL     1       8.156  24.149  54.681  1.00  0.00     0.011 A 
HETATM   36  C   UNL     1       8.830  23.277  55.538  1.00  0.00     0.001 A 
HETATM   37  C   UNL     1       9.052  21.957  55.153  1.00  0.00     0.000 A 
HETATM   38  C   UNL     1       8.589  21.507  53.918  1.00  0.00     0.001 A 
HETATM   39  C   UNL     1       7.914  22.379  53.059  1.00  0.00     0.011 A 
ENDBRANCH  33  34
ENDBRANCH   8  32
TORSDOF 11
ENDMDL
MODEL 2
REMARK VINA RESULT:      -8.6      1.983      2.902
REMARK  11 active torsions:
REMARK  status: ('A' for Active; 'I' for Inactive)
REMARK    1  A    between atoms: C_2  and  O_3 
REMARK    2  A    between atoms: O_3  and  C_4 
REMARK    3  A    between atoms: C_5  and  O_6 
REMARK    4  A    between atoms: C_9  and  C_10 
REMARK    5  A    between atoms: N_11  and  C_12 
REMARK    6  A    between atoms: C_12  and  C_13 
REMARK    7  A    between atoms: C_13  and  C_14 
REMARK    8  A    between atoms: C_14  and  N_15 
REMARK    9  A    between atoms: C_27  and  O_28 
REMARK   10  A    between atoms: C_27  and  C_29 
REMARK   11  A    between atoms: C_30  and  C_31 
ROOT
HETATM    1  C   UNL     1       5.501  28.549  53.841  1.00  0.00     0.161 C 
HETATM    2  N   UNL     1       4.304  29.367  54.044  1.00  0.00    -0.332 N 
HETATM    3  C   UNL     1       3.606  29.536  52.866  1.00  0.00     0.295 C 
HETATM    4  O   UNL     1       2.756  30.379  52.646  1.00  0.00    -0.264 OA
HETATM    5  C   UNL     1       5.201  27.743  52.595  1.00  0.00     0.058 C 
HETATM    6  C   UNL     1       4.167  28.516  51.870  1.00  0.00     0.250 C 
HETATM    7  O   UNL     1       3.825  28.385  50.715  1.00  0.00    -0.282 OA
HETATM    8  C   UNL     1       5.637  26.564  52.120  1.00  0.00     0.078 C 
ENDROOT
BRANCH   1   9
HETATM    9  C   UNL     1       6.003  27.829  55.068  1.00  0.00    -0.028 A 
HETATM   10  C   UNL     1       5.283  26.787  55.673  1.00  0.00     0.012 A 
HETATM   11  C   UNL     1       5.804  26.126  56.784  1.00  0.00     0.040 A 
HETATM   12  C   UNL     1       7.044  26.501  57.288  1.00  0.00     0.099 A 
HETATM   13  C   UNL     1       7.788  27.533  56.710  1.00  0.00     0.102 A 
HETATM   14  C   UNL     1       7.263  28.190  55.599  1.00  0.00     0.049 A 
BRANCH  12  15
HETATM   15  O   UNL     1       7.530  25.825  58.372  1.00  0.00    -0.358 OA
HETATM   16  H   UNL     1       7.523  24.882  58.115  1.00  0.00     0.218 HD
ENDBRANCH  12  15
BRANCH  13  17
HETATM   17  O   UNL     1       8.990  27.797  57.311  1.00  0.00    -0.349 OA
BRANCH  17  18
HETATM   18  C   UNL     1       9.354  29.171  57.462  1.00  0.00     0.171 C 
HETATM   19  C   UNL     1      10.697  29.387  56.788  1.00  0.00     0.034 C 
ENDBRANCH  17  18
ENDBRANCH  13  17
ENDBRANCH   1   9
BRANCH   2  20
HETATM   20  C   UNL     1       4.071  30.205  55.211  1.00  0.00     0.129 C 
BRANCH  20  21
HETATM   21  C   UNL     1       4.945  31.454  55.311  1.00  0.00     0.048 C 
BRANCH  21  22
HETATM   22  C   UNL     1       4.436  32.731  54.640  1.00  0.00     0.236 C 
BRANCH  22  23
HETATM   23  N   UNL     1       5.305  33.248  53.528  1.00  0.00    -0.067 N 
HETATM   24  H   UNL     1       6.181  32.682  53.522  1.00  0.00     0.280 HD
HETATM   25  C   UNL     1       4.682  33.205  52.140  1.00  0.00     0.261 C 
HETATM   26  C   UNL     1       5.671  33.762  51.109  1.00  0.00     0.195 C 
HETATM   27  O   UNL     1       6.058  35.098  51.442  1.00  0.00    -0.388 OA
HETATM   28  C   UNL     1       6.721  35.150  52.710  1.00  0.00     0.195 C 
HETATM   29  C   UNL     1       5.790  34.671  53.828  1.00  0.00     0.261 C 
ENDBRANCH  22  23
ENDBRANCH  21  22
ENDBRANCH  20  21
ENDBRANCH   2  20
BRANCH   8  30
HETATM   30  O   UNL     1       5.265  26.045  50.899  1.00  0.00    -0.360 OA
HETATM   31  H   UNL     1       5.217  25.067  50.940  1.00  0.00     0.217 HD
ENDBRANCH   8  30
BRANCH   8  32
HETATM   32  C   UNL     1       6.472  25.662  52.874  1.00  0.00     0.038 C 
HETATM   33  C   UNL     1       6.696  24.368  52.605  1.00  0.00     0.014 C 
BRANCH  33  34
HETATM   34  C   UNL     1       7.594  23.581  53.461  1.00  0.00    -0.036 A 
HETATM   35  C   UNL     1       8.063  24.082  54.684  1.00  0.00     0.011 A 
HETATM   36  C   UNL     1       8.957  23.343  55.461  1.00  0.00     0.001 A 
HETATM   37  C   UNL     1       9.382  22.089  55.028  1.00  0.00     0.000 A 
HETATM   38  C   UNL     1       8.904  21.571  53.825  1.00  0.00     0.001 A 
HETATM   39  C   UNL     1       8.009  22.311  53.047  1.00  0.00     0.011 A 
ENDBRANCH  33  34
ENDBRANCH   8  32
TORSDOF 11
ENDMDL
MODEL 3
REMARK VINA RESULT:      -8.5      4.336     10.595
REMARK  11 active torsions:
REMARK  status: ('A' for Active; 'I' for Inactive)
REMARK    1  A    between atoms: C_2  and  O_3 
REMARK    2  A    between atoms: O_3  and  C_4 
REMARK    3  A    between atoms: C_5  and  O_6 
REMARK    4  A    between atoms: C_9  and  C_10 
REMARK    5  A    between atoms: N_11  and  C_12 
REMARK    6  A    between atoms: C_12  and  C_13 
REMARK    7  A    between atoms: C_13  and  C_14 
REMARK    8  A    between atoms: C_14  and  N_15 
REMARK    9  A    between atoms: C_27  and  O_28 
REMARK   10  A    between atoms: C_27  and  C_29 
REMARK   11  A    between atoms: C_30  and  C_31 
ROOT
HETATM    1  C   UNL     1       6.549  32.620  60.226  1.00  0.00     0.161 C 
HETATM    2  N   UNL     1       6.258  31.995  58.935  1.00  0.00    -0.332 N 
HETATM    3  C   UNL     1       7.211  31.053  58.608  1.00  0.00     0.295 C 
HETATM    4  O   UNL     1       7.411  30.582  57.503  1.00  0.00    -0.264 OA
HETATM    5  C   UNL     1       7.415  31.610  60.949  1.00  0.00     0.058 C 
HETATM    6  C   UNL     1       8.017  30.778  59.881  1.00  0.00     0.250 C 
HETATM    7  O   UNL     1       8.964  30.029  59.979  1.00  0.00    -0.282 OA
HETATM    8  C   UNL     1       7.662  31.352  62.244  1.00  0.00     0.078 C 
ENDROOT
BRANCH   1   9
HETATM    9  C   UNL     1       5.354  33.198  60.944  1.00  0.00    -0.028 A 
HETATM   10  C   UNL     1       4.245  32.415  61.304  1.00  0.00     0.012 A 
HETATM   11  C   UNL     1       3.180  32.985  61.999  1.00  0.00     0.040 A 
HETATM   12  C   UNL     1       3.223  34.332  62.339  1.00  0.00     0.099 A 
HETATM   13  C   UNL     1       4.311  35.140  61.998  1.00  0.00     0.102 A 
HETATM   14  C   UNL     1       5.374  34.566  61.303  1.00  0.00     0.049 A 
BRANCH  12  15
HETATM   15  O   UNL     1       2.166  34.856  63.030  1.00  0.00    -0.358 OA
HETATM   16  H   UNL     1       2.343  34.654  63.969  1.00  0.00     0.218 HD
ENDBRANCH  12  15
BRANCH  13  17
HETATM   17  O   UNL     1       4.218  36.448  62.393  1.00  0.00    -0.349 OA
BRANCH  17  18
HETATM   18  C   UNL     1       5.357  37.013  63.046  1.00  0.00     0.171 C 
HETATM   19  C   UNL     1       5.014  37.224  64.510  1.00  0.00     0.034 C 
ENDBRANCH  17  18
ENDBRANCH  13  17
ENDBRANCH   1   9
BRANCH   2  20
HETATM   20  C   UNL     1       5.333  32.536  57.951  1.00  0.00     0.129 C 
BRANCH  20  21
HETATM   21  C   UNL     1       4.105  31.675  57.656  1.00  0.00     0.048 C 
BRANCH  21  22
HETATM   22  C   UNL     1       3.611  31.617  56.210  1.00  0.00     0.236 C 
BRANCH  22  23
HETATM   23  N   UNL     1       3.584  30.239  55.608  1.00  0.00    -0.067 N 
HETATM   24  H   UNL     1       2.649  29.825  55.810  1.00  0.00     0.280 HD
HETATM   25  C   UNL     1       3.836  30.178  54.108  1.00  0.00     0.261 C 
HETATM   26  C   UNL     1       3.783  28.723  53.631  1.00  0.00     0.195 C 
HETATM   27  O   UNL     1       4.738  27.920  54.332  1.00  0.00    -0.388 OA
HETATM   28  C   UNL     1       4.470  27.897  55.738  1.00  0.00     0.195 C 
HETATM   29  C   UNL     1       4.562  29.307  56.330  1.00  0.00     0.261 C 
ENDBRANCH  22  23
ENDBRANCH  21  22
ENDBRANCH  20  21
ENDBRANCH   2  20
BRANCH   8  30
HETATM   30  O   UNL     1       8.561  30.401  62.677  1.00  0.00    -0.360 OA
HETATM   31  H   UNL     1       9.398  30.824  62.961  1.00  0.00     0.217 HD
ENDBRANCH   8  30
BRANCH   8  32
HETATM   32  C   UNL     1       6.946  31.974  63.331  1.00  0.00     0.038 C 
HETATM   33  C   UNL     1       7.395  32.958  64.122  1.00  0.00     0.014 C 
BRANCH  33  34
HETATM   34  C   UNL     1       6.534  33.505  65.180  1.00  0.00    -0.036 A 
HETATM   35  C   UNL     1       7.076  34.035  66.360  1.00  0.00     0.011 A 
HETATM   36  C   UNL     1       6.242  34.502  67.378  1.00  0.00     0.001 A 
HETATM   37  C   UNL     1       4.859  34.456  67.221  1.00  0.00     0.000 A 
HETATM   38  C   UNL     1       4.311  33.954  66.041  1.00  0.00     0.001 A 
HETATM   39  C   UNL     1       5.144  33.485  65.022  1.00  0.00     0.011 A 
ENDBRANCH  33  34
ENDBRANCH   8  32
TORSDOF 11
ENDMDL
MODEL 4
REMARK VINA RESULT:      -8.4      3.344      9.507
REMARK  11 active torsions:
REMARK  status: ('A' for Active; 'I' for Inactive)
REMARK    1  A    between atoms: C_2  and  O_3 
REMARK    2  A    between atoms: O_3  and  C_4 
REMARK    3  A    between atoms: C_5  and  O_6 
REMARK    4  A    between atoms: C_9  and  C_10 
REMARK    5  A    between atoms: N_11  and  C_12 
REMARK    6  A    between atoms: C_12  and  C_13 
REMARK    7  A    between atoms: C_13  and  C_14 
REMARK    8  A    between atoms: C_14  and  N_15 
REMARK    9  A    between atoms: C_27  and  O_28 
REMARK   10  A    between atoms: C_27  and  C_29 
REMARK   11  A    between atoms: C_30  and  C_31 
ROOT
HETATM    1  C   UNL     1       6.528  31.726  58.567  1.00  0.00     0.161 C 
HETATM    2  N   UNL     1       6.243  30.879  57.407  1.00  0.00    -0.332 N 
HETATM    3  C   UNL     1       7.307  30.050  57.119  1.00  0.00     0.295 C 
HETATM    4  O   UNL     1       7.496  29.455  56.074  1.00  0.00    -0.264 OA
HETATM    5  C   UNL     1       7.597  30.975  59.331  1.00  0.00     0.058 C 
HETATM    6  C   UNL     1       8.242  30.091  58.332  1.00  0.00     0.250 C 
HETATM    7  O   UNL     1       9.302  29.513  58.437  1.00  0.00    -0.282 OA
HETATM    8  C   UNL     1       7.981  30.952  60.618  1.00  0.00     0.078 C 
ENDROOT
BRANCH   1   9
HETATM    9  C   UNL     1       5.314  32.222  59.314  1.00  0.00    -0.028 A 
HETATM   10  C   UNL     1       4.315  31.352  59.780  1.00  0.00     0.012 A 
HETATM   11  C   UNL     1       3.230  31.852  60.498  1.00  0.00     0.040 A 
HETATM   12  C   UNL     1       3.144  33.215  60.754  1.00  0.00     0.099 A 
HETATM   13  C   UNL     1       4.120  34.109  60.306  1.00  0.00     0.102 A 
HETATM   14  C   UNL     1       5.204  33.605  59.589  1.00  0.00     0.049 A 
BRANCH  12  15
HETATM   15  O   UNL     1       2.071  33.669  61.470  1.00  0.00    -0.358 OA
HETATM   16  H   UNL     1       2.040  33.115  62.273  1.00  0.00     0.218 HD
ENDBRANCH  12  15
BRANCH  13  17
HETATM   17  O   UNL     1       3.906  35.423  60.627  1.00  0.00    -0.349 OA
BRANCH  17  18
HETATM   18  C   UNL     1       4.668  35.960  61.710  1.00  0.00     0.171 C 
HETATM   19  C   UNL     1       3.707  36.567  62.716  1.00  0.00     0.034 C 
ENDBRANCH  17  18
ENDBRANCH  13  17
ENDBRANCH   1   9
BRANCH   2  20
HETATM   20  C   UNL     1       5.171  31.125  56.454  1.00  0.00     0.129 C 
BRANCH  20  21
HETATM   21  C   UNL     1       4.126  30.016  56.339  1.00  0.00     0.048 C 
BRANCH  21  22
HETATM   22  C   UNL     1       4.094  29.204  55.043  1.00  0.00     0.236 C 
BRANCH  22  23
HETATM   23  N   UNL     1       4.382  27.738  55.211  1.00  0.00    -0.067 N 
HETATM   24  H   UNL     1       3.477  27.227  55.129  1.00  0.00     0.280 HD
HETATM   25  C   UNL     1       5.372  27.150  54.216  1.00  0.00     0.261 C 
HETATM   26  C   UNL     1       5.574  25.657  54.503  1.00  0.00     0.195 C 
HETATM   27  O   UNL     1       6.030  25.452  55.843  1.00  0.00    -0.388 OA
HETATM   28  C   UNL     1       5.075  25.925  56.799  1.00  0.00     0.195 C 
HETATM   29  C   UNL     1       4.848  27.431  56.639  1.00  0.00     0.261 C 
ENDBRANCH  22  23
ENDBRANCH  21  22
ENDBRANCH  20  21
ENDBRANCH   2  20
BRANCH   8  30
HETATM   30  O   UNL     1       9.051  30.221  61.086  1.00  0.00    -0.360 OA
HETATM   31  H   UNL     1       9.467  30.670  61.851  1.00  0.00     0.217 HD
ENDBRANCH   8  30
BRANCH   8  32
HETATM   32  C   UNL     1       7.260  31.617  61.676  1.00  0.00     0.038 C 
HETATM   33  C   UNL     1       7.791  32.212  62.752  1.00  0.00     0.014 C 
BRANCH  33  34
HETATM   34  C   UNL     1       6.920  32.869  63.738  1.00  0.00    -0.036 A 
HETATM   35  C   UNL     1       7.450  33.511  64.867  1.00  0.00     0.011 A 
HETATM   36  C   UNL     1       6.607  34.085  65.820  1.00  0.00     0.001 A 
HETATM   37  C   UNL     1       5.226  34.033  65.648  1.00  0.00     0.000 A 
HETATM   38  C   UNL     1       4.689  33.418  64.517  1.00  0.00     0.001 A 
HETATM   39  C   UNL     1       5.533  32.843  63.562  1.00  0.00     0.011 A 
ENDBRANCH  33  34
ENDBRANCH   8  32
TORSDOF 11
ENDMDL
MODEL 5
REMARK VINA RESULT:      -8.3      1.730      4.555
REMARK  11 active torsions:
REMARK  status: ('A' for Active; 'I' for Inactive)
REMARK    1  A    between atoms: C_2  and  O_3 
REMARK    2  A    between atoms: O_3  and  C_4 
REMARK    3  A    between atoms: C_5  and  O_6 
REMARK    4  A    between atoms: C_9  and  C_10 
REMARK    5  A    between atoms: N_11  and  C_12 
REMARK    6  A    between atoms: C_12  and  C_13 
REMARK    7  A    between atoms: C_13  and  C_14 
REMARK    8  A    between atoms: C_14  and  N_15 
REMARK    9  A    between atoms: C_27  and  O_28 
REMARK   10  A    between atoms: C_27  and  C_29 
REMARK   11  A    between atoms: C_30  and  C_31 
ROOT
HETATM    1  C   UNL     1       5.818  27.651  56.051  1.00  0.00     0.161 C 
HETATM    2  N   UNL     1       5.765  29.114  56.004  1.00  0.00    -0.332 N 
HETATM    3  C   UNL     1       6.511  29.675  57.020  1.00  0.00     0.295 C 
HETATM    4  O   UNL     1       6.437  30.822  57.421  1.00  0.00    -0.264 OA
HETATM    5  C   UNL     1       7.098  27.343  56.798  1.00  0.00     0.058 C 
HETATM    6  C   UNL     1       7.386  28.557  57.596  1.00  0.00     0.250 C 
HETATM    7  O   UNL     1       8.155  28.660  58.527  1.00  0.00    -0.282 OA
HETATM    8  C   UNL     1       7.933  26.291  56.820  1.00  0.00     0.078 C 
ENDROOT
BRANCH   1   9
HETATM    9  C   UNL     1       5.558  26.957  54.737  1.00  0.00    -0.028 A 
HETATM   10  C   UNL     1       5.044  25.653  54.668  1.00  0.00     0.012 A 
HETATM   11  C   UNL     1       4.785  25.065  53.430  1.00  0.00     0.040 A 
HETATM   12  C   UNL     1       5.035  25.779  52.265  1.00  0.00     0.099 A 
HETATM   13  C   UNL     1       5.546  27.080  52.297  1.00  0.00     0.102 A 
HETATM   14  C   UNL     1       5.803  27.663  53.536  1.00  0.00     0.049 A 
BRANCH  12  15
HETATM   15  O   UNL     1       4.760  25.177  51.069  1.00  0.00    -0.358 OA
HETATM   16  H   UNL     1       3.816  25.361  50.895  1.00  0.00     0.218 HD
ENDBRANCH  12  15
BRANCH  13  17
HETATM   17  O   UNL     1       5.746  27.662  51.073  1.00  0.00    -0.349 OA
BRANCH  17  18
HETATM   18  C   UNL     1       5.533  29.072  50.982  1.00  0.00     0.171 C 
HETATM   19  C   UNL     1       5.588  29.470  49.518  1.00  0.00     0.034 C 
ENDBRANCH  17  18
ENDBRANCH  13  17
ENDBRANCH   1   9
BRANCH   2  20
HETATM   20  C   UNL     1       4.778  29.876  55.254  1.00  0.00     0.129 C 
BRANCH  20  21
HETATM   21  C   UNL     1       3.467  30.156  55.987  1.00  0.00     0.048 C 
BRANCH  21  22
HETATM   22  C   UNL     1       3.082  31.618  56.217  1.00  0.00     0.236 C 
BRANCH  22  23
HETATM   23  N   UNL     1       3.756  32.270  57.392  1.00  0.00    -0.067 N 
HETATM   24  H   UNL     1       4.785  32.157  57.269  1.00  0.00     0.280 HD
HETATM   25  C   UNL     1       3.443  33.747  57.587  1.00  0.00     0.261 C 
HETATM   26  C   UNL     1       4.190  34.279  58.816  1.00  0.00     0.195 C 
HETATM   27  O   UNL     1       3.842  33.535  59.987  1.00  0.00    -0.388 OA
HETATM   28  C   UNL     1       4.204  32.155  59.857  1.00  0.00     0.195 C 
HETATM   29  C   UNL     1       3.457  31.507  58.688  1.00  0.00     0.261 C 
ENDBRANCH  22  23
ENDBRANCH  21  22
ENDBRANCH  20  21
ENDBRANCH   2  20
BRANCH   8  30
HETATM   30  O   UNL     1       9.031  26.202  57.650  1.00  0.00    -0.360 OA
HETATM   31  H   UNL     1       9.741  26.806  57.348  1.00  0.00     0.217 HD
ENDBRANCH   8  30
BRANCH   8  32
HETATM   32  C   UNL     1       7.833  25.175  55.912  1.00  0.00     0.038 C 
HETATM   33  C   UNL     1       8.241  23.920  56.143  1.00  0.00     0.014 C 
BRANCH  33  34
HETATM   34  C   UNL     1       8.049  22.882  55.120  1.00  0.00    -0.036 A 
HETATM   35  C   UNL     1       7.967  21.524  55.463  1.00  0.00     0.011 A 
HETATM   36  C   UNL     1       7.838  20.547  54.475  1.00  0.00     0.001 A 
HETATM   37  C   UNL     1       7.777  20.918  53.134  1.00  0.00     0.000 A 
HETATM   38  C   UNL     1       7.833  22.266  52.783  1.00  0.00     0.001 A 
HETATM   39  C   UNL     1       7.963  23.245  53.772  1.00  0.00     0.011 A 
ENDBRANCH  33  34
ENDBRANCH   8  32
TORSDOF 11
ENDMDL
MODEL 6
REMARK VINA RESULT:      -8.2      2.178      7.257
REMARK  11 active torsions:
REMARK  status: ('A' for Active; 'I' for Inactive)
REMARK    1  A    between atoms: C_2  and  O_3 
REMARK    2  A    between atoms: O_3  and  C_4 
REMARK    3  A    between atoms: C_5  and  O_6 
REMARK    4  A    between atoms: C_9  and  C_10 
REMARK    5  A    between atoms: N_11  and  C_12 
REMARK    6  A    between atoms: C_12  and  C_13 
REMARK    7  A    between atoms: C_13  and  C_14 
REMARK    8  A    between atoms: C_14  and  N_15 
REMARK    9  A    between atoms: C_27  and  O_28 
REMARK   10  A    between atoms: C_27  and  C_29 
REMARK   11  A    between atoms: C_30  and  C_31 
ROOT
HETATM    1  C   UNL     1       5.009  27.369  53.715  1.00  0.00     0.161 C 
HETATM    2  N   UNL     1       5.874  26.823  52.668  1.00  0.00    -0.332 N 
HETATM    3  C   UNL     1       5.350  27.054  51.413  1.00  0.00     0.295 C 
HETATM    4  O   UNL     1       5.667  26.489  50.383  1.00  0.00    -0.264 OA
HETATM    5  C   UNL     1       4.212  28.452  53.020  1.00  0.00     0.058 C 
HETATM    6  C   UNL     1       4.239  28.095  51.583  1.00  0.00     0.250 C 
HETATM    7  O   UNL     1       3.525  28.527  50.704  1.00  0.00    -0.282 OA
HETATM    8  C   UNL     1       3.596  29.570  53.439  1.00  0.00     0.078 C 
ENDROOT
BRANCH   1   9
HETATM    9  C   UNL     1       5.701  27.697  55.014  1.00  0.00    -0.028 A 
HETATM   10  C   UNL     1       5.339  27.094  56.230  1.00  0.00     0.012 A 
HETATM   11  C   UNL     1       6.033  27.401  57.399  1.00  0.00     0.040 A 
HETATM   12  C   UNL     1       7.088  28.305  57.355  1.00  0.00     0.099 A 
HETATM   13  C   UNL     1       7.476  28.922  56.164  1.00  0.00     0.102 A 
HETATM   14  C   UNL     1       6.780  28.612  54.997  1.00  0.00     0.049 A 
BRANCH  12  15
HETATM   15  O   UNL     1       7.753  28.574  58.519  1.00  0.00    -0.358 OA
HETATM   16  H   UNL     1       8.658  28.228  58.389  1.00  0.00     0.218 HD
ENDBRANCH  12  15
BRANCH  13  17
HETATM   17  O   UNL     1       8.529  29.792  56.268  1.00  0.00    -0.349 OA
BRANCH  17  18
HETATM   18  C   UNL     1       9.805  29.324  55.824  1.00  0.00     0.171 C 
HETATM   19  C   UNL     1      10.841  29.700  56.868  1.00  0.00     0.034 C 
ENDBRANCH  17  18
ENDBRANCH  13  17
ENDBRANCH   1   9
BRANCH   2  20
HETATM   20  C   UNL     1       6.928  25.846  52.901  1.00  0.00     0.129 C 
BRANCH  20  21
HETATM   21  C   UNL     1       6.507  24.591  53.663  1.00  0.00     0.048 C 
BRANCH  21  22
HETATM   22  C   UNL     1       7.559  23.906  54.535  1.00  0.00     0.236 C 
BRANCH  22  23
HETATM   23  N   UNL     1       7.591  22.407  54.425  1.00  0.00    -0.067 N 
HETATM   24  H   UNL     1       6.605  22.073  54.368  1.00  0.00     0.280 HD
HETATM   25  C   UNL     1       8.365  21.857  53.234  1.00  0.00     0.261 C 
HETATM   26  C   UNL     1       8.318  20.325  53.246  1.00  0.00     0.195 C 
HETATM   27  O   UNL     1       8.849  19.807  54.469  1.00  0.00    -0.388 OA
HETATM   28  C   UNL     1       8.084  20.246  55.598  1.00  0.00     0.195 C 
HETATM   29  C   UNL     1       8.120  21.773  55.716  1.00  0.00     0.261 C 
ENDBRANCH  22  23
ENDBRANCH  21  22
ENDBRANCH  20  21
ENDBRANCH   2  20
BRANCH   8  30
HETATM   30  O   UNL     1       2.855  30.391  52.616  1.00  0.00    -0.360 OA
HETATM   31  H   UNL     1       2.389  29.865  51.934  1.00  0.00     0.217 HD
ENDBRANCH   8  30
BRANCH   8  32
HETATM   32  C   UNL     1       3.714  30.090  54.779  1.00  0.00     0.038 C 
HETATM   33  C   UNL     1       4.397  31.180  55.154  1.00  0.00     0.014 C 
BRANCH  33  34
HETATM   34  C   UNL     1       4.406  31.597  56.564  1.00  0.00    -0.036 A 
HETATM   35  C   UNL     1       3.863  30.783  57.569  1.00  0.00     0.011 A 
HETATM   36  C   UNL     1       3.833  31.216  58.896  1.00  0.00     0.001 A 
HETATM   37  C   UNL     1       4.355  32.462  59.233  1.00  0.00     0.000 A 
HETATM   38  C   UNL     1       4.918  33.269  58.245  1.00  0.00     0.001 A 
HETATM   39  C   UNL     1       4.949  32.837  56.917  1.00  0.00     0.011 A 
ENDBRANCH  33  34
ENDBRANCH   8  32
TORSDOF 11
ENDMDL
MODEL 7
REMARK VINA RESULT:      -7.9      2.552      7.458
REMARK  11 active torsions:
REMARK  status: ('A' for Active; 'I' for Inactive)
REMARK    1  A    between atoms: C_2  and  O_3 
REMARK    2  A    between atoms: O_3  and  C_4 
REMARK    3  A    between atoms: C_5  and  O_6 
REMARK    4  A    between atoms: C_9  and  C_10 
REMARK    5  A    between atoms: N_11  and  C_12 
REMARK    6  A    between atoms: C_12  and  C_13 
REMARK    7  A    between atoms: C_13  and  C_14 
REMARK    8  A    between atoms: C_14  and  N_15 
REMARK    9  A    between atoms: C_27  and  O_28 
REMARK   10  A    between atoms: C_27  and  C_29 
REMARK   11  A    between atoms: C_30  and  C_31 
ROOT
HETATM    1  C   UNL     1       5.778  26.552  54.047  1.00  0.00     0.161 C 
HETATM    2  N   UNL     1       6.958  25.845  53.545  1.00  0.00    -0.332 N 
HETATM    3  C   UNL     1       6.780  25.436  52.239  1.00  0.00     0.295 C 
HETATM    4  O   UNL     1       7.435  24.597  51.650  1.00  0.00    -0.264 OA
HETATM    5  C   UNL     1       5.084  27.061  52.802  1.00  0.00     0.058 C 
HETATM    6  C   UNL     1       5.551  26.180  51.707  1.00  0.00     0.250 C 
HETATM    7  O   UNL     1       5.064  26.056  50.604  1.00  0.00    -0.282 OA
HETATM    8  C   UNL     1       4.248  28.083  52.553  1.00  0.00     0.078 C 
ENDROOT
BRANCH   1   9
HETATM    9  C   UNL     1       6.039  27.514  55.179  1.00  0.00    -0.028 A 
HETATM   10  C   UNL     1       5.201  27.594  56.303  1.00  0.00     0.012 A 
HETATM   11  C   UNL     1       5.503  28.472  57.342  1.00  0.00     0.040 A 
HETATM   12  C   UNL     1       6.640  29.267  57.262  1.00  0.00     0.099 A 
HETATM   13  C   UNL     1       7.496  29.213  56.159  1.00  0.00     0.102 A 
HETATM   14  C   UNL     1       7.191  28.333  55.123  1.00  0.00     0.049 A 
BRANCH  12  15
HETATM   15  O   UNL     1       6.912  30.110  58.303  1.00  0.00    -0.358 OA
HETATM   16  H   UNL     1       6.124  30.682  58.387  1.00  0.00     0.218 HD
ENDBRANCH  12  15
BRANCH  13  17
HETATM   17  O   UNL     1       8.577  30.053  56.212  1.00  0.00    -0.349 OA
BRANCH  17  18
HETATM   18  C   UNL     1       9.835  29.522  55.793  1.00  0.00     0.171 C 
HETATM   19  C   UNL     1      10.831  29.701  56.924  1.00  0.00     0.034 C 
ENDBRANCH  17  18
ENDBRANCH  13  17
ENDBRANCH   1   9
BRANCH   2  20
HETATM   20  C   UNL     1       8.013  25.306  54.389  1.00  0.00     0.129 C 
BRANCH  20  21
HETATM   21  C   UNL     1       7.542  24.526  55.616  1.00  0.00     0.048 C 
BRANCH  21  22
HETATM   22  C   UNL     1       6.957  23.132  55.389  1.00  0.00     0.236 C 
BRANCH  22  23
HETATM   23  N   UNL     1       7.963  22.081  55.006  1.00  0.00    -0.067 N 
HETATM   24  H   UNL     1       8.904  22.530  55.008  1.00  0.00     0.280 HD
HETATM   25  C   UNL     1       8.001  20.856  55.908  1.00  0.00     0.261 C 
HETATM   26  C   UNL     1       9.062  19.871  55.404  1.00  0.00     0.195 C 
HETATM   27  O   UNL     1       8.802  19.489  54.050  1.00  0.00    -0.388 OA
HETATM   28  C   UNL     1       8.844  20.618  53.170  1.00  0.00     0.195 C 
HETATM   29  C   UNL     1       7.770  21.641  53.551  1.00  0.00     0.261 C 
ENDBRANCH  22  23
ENDBRANCH  21  22
ENDBRANCH  20  21
ENDBRANCH   2  20
BRANCH   8  30
HETATM   30  O   UNL     1       3.675  28.322  51.323  1.00  0.00    -0.360 OA
HETATM   31  H   UNL     1       3.228  29.194  51.314  1.00  0.00     0.217 HD
ENDBRANCH   8  30
BRANCH   8  32
HETATM   32  C   UNL     1       3.928  29.104  53.521  1.00  0.00     0.038 C 
HETATM   33  C   UNL     1       3.934  30.428  53.316  1.00  0.00     0.014 C 
BRANCH  33  34
HETATM   34  C   UNL     1       3.562  31.345  54.403  1.00  0.00    -0.036 A 
HETATM   35  C   UNL     1       2.444  32.186  54.298  1.00  0.00     0.011 A 
HETATM   36  C   UNL     1       2.134  33.088  55.318  1.00  0.00     0.001 A 
HETATM   37  C   UNL     1       2.932  33.150  56.458  1.00  0.00     0.000 A 
HETATM   38  C   UNL     1       4.031  32.301  56.583  1.00  0.00     0.001 A 
HETATM   39  C   UNL     1       4.342  31.398  55.563  1.00  0.00     0.011 A 
ENDBRANCH  33  34
ENDBRANCH   8  32
TORSDOF 11
ENDMDL
MODEL 8
REMARK VINA RESULT:      -7.9      2.701      7.789
REMARK  11 active torsions:
REMARK  status: ('A' for Active; 'I' for Inactive)
REMARK    1  A    between atoms: C_2  and  O_3 
REMARK    2  A    between atoms: O_3  and  C_4 
REMARK    3  A    between atoms: C_5  and  O_6 
REMARK    4  A    between atoms: C_9  and  C_10 
REMARK    5  A    between atoms: N_11  and  C_12 
REMARK    6  A    between atoms: C_12  and  C_13 
REMARK    7  A    between atoms: C_13  and  C_14 
REMARK    8  A    between atoms: C_14  and  N_15 
REMARK    9  A    between atoms: C_27  and  O_28 
REMARK   10  A    between atoms: C_27  and  C_29 
REMARK   11  A    between atoms: C_30  and  C_31 
ROOT
HETATM    1  C   UNL     1       5.872  29.036  55.386  1.00  0.00     0.161 C 
HETATM    2  N   UNL     1       4.980  28.207  54.574  1.00  0.00    -0.332 N 
HETATM    3  C   UNL     1       5.574  27.007  54.243  1.00  0.00     0.295 C 
HETATM    4  O   UNL     1       5.222  26.246  53.361  1.00  0.00    -0.264 OA
HETATM    5  C   UNL     1       6.830  28.052  56.022  1.00  0.00     0.058 C 
HETATM    6  C   UNL     1       6.807  26.861  55.141  1.00  0.00     0.250 C 
HETATM    7  O   UNL     1       7.603  25.948  55.118  1.00  0.00    -0.282 OA
HETATM    8  C   UNL     1       7.573  28.065  57.141  1.00  0.00     0.078 C 
ENDROOT
BRANCH   1   9
HETATM    9  C   UNL     1       5.182  30.050  56.265  1.00  0.00    -0.028 A 
HETATM   10  C   UNL     1       4.240  29.681  57.238  1.00  0.00     0.012 A 
HETATM   11  C   UNL     1       3.656  30.649  58.053  1.00  0.00     0.040 A 
HETATM   12  C   UNL     1       4.015  31.983  57.901  1.00  0.00     0.099 A 
HETATM   13  C   UNL     1       4.950  32.386  56.944  1.00  0.00     0.102 A 
HETATM   14  C   UNL     1       5.532  31.414  56.132  1.00  0.00     0.049 A 
BRANCH  12  15
HETATM   15  O   UNL     1       3.431  32.905  58.723  1.00  0.00    -0.358 OA
HETATM   16  H   UNL     1       3.342  32.463  59.590  1.00  0.00     0.218 HD
ENDBRANCH  12  15
BRANCH  13  17
HETATM   17  O   UNL     1       5.206  33.731  56.903  1.00  0.00    -0.349 OA
BRANCH  17  18
HETATM   18  C   UNL     1       4.986  34.398  55.658  1.00  0.00     0.171 C 
HETATM   19  C   UNL     1       3.493  34.616  55.491  1.00  0.00     0.034 C 
ENDBRANCH  17  18
ENDBRANCH  13  17
ENDBRANCH   1   9
BRANCH   2  20
HETATM   20  C   UNL     1       3.798  28.703  53.885  1.00  0.00     0.129 C 
BRANCH  20  21
HETATM   21  C   UNL     1       4.062  29.450  52.579  1.00  0.00     0.048 C 
BRANCH  21  22
HETATM   22  C   UNL     1       2.984  29.387  51.496  1.00  0.00     0.236 C 
BRANCH  22  23
HETATM   23  N   UNL     1       3.082  28.200  50.578  1.00  0.00    -0.067 N 
HETATM   24  H   UNL     1       2.665  27.383  51.072  1.00  0.00     0.280 HD
HETATM   25  C   UNL     1       2.395  28.361  49.229  1.00  0.00     0.261 C 
HETATM   26  C   UNL     1       2.575  27.086  48.398  1.00  0.00     0.195 C 
HETATM   27  O   UNL     1       3.962  26.784  48.220  1.00  0.00    -0.388 OA
HETATM   28  C   UNL     1       4.611  26.547  49.474  1.00  0.00     0.195 C 
HETATM   29  C   UNL     1       4.543  27.793  50.363  1.00  0.00     0.261 C 
ENDBRANCH  22  23
ENDBRANCH  21  22
ENDBRANCH  20  21
ENDBRANCH   2  20
BRANCH   8  30
HETATM   30  O   UNL     1       8.445  27.057  57.493  1.00  0.00    -0.360 OA
HETATM   31  H   UNL     1       8.182  26.212  57.073  1.00  0.00     0.217 HD
ENDBRANCH   8  30
BRANCH   8  32
HETATM   32  C   UNL     1       7.477  29.092  58.149  1.00  0.00     0.038 C 
HETATM   33  C   UNL     1       8.497  29.701  58.768  1.00  0.00     0.014 C 
BRANCH  33  34
HETATM   34  C   UNL     1       8.236  30.749  59.765  1.00  0.00    -0.036 A 
HETATM   35  C   UNL     1       9.067  30.918  60.882  1.00  0.00     0.011 A 
HETATM   36  C   UNL     1       8.775  31.885  61.846  1.00  0.00     0.001 A 
HETATM   37  C   UNL     1       7.656  32.700  61.697  1.00  0.00     0.000 A 
HETATM   38  C   UNL     1       6.836  32.556  60.579  1.00  0.00     0.001 A 
HETATM   39  C   UNL     1       7.127  31.589  59.613  1.00  0.00     0.011 A 
ENDBRANCH  33  34
ENDBRANCH   8  32
TORSDOF 11
ENDMDL
MODEL 9
REMARK VINA RESULT:      -7.9      2.403      7.808
REMARK  11 active torsions:
REMARK  status: ('A' for Active; 'I' for Inactive)
REMARK    1  A    between atoms: C_2  and  O_3 
REMARK    2  A    between atoms: O_3  and  C_4 
REMARK    3  A    between atoms: C_5  and  O_6 
REMARK    4  A    between atoms: C_9  and  C_10 
REMARK    5  A    between atoms: N_11  and  C_12 
REMARK    6  A    between atoms: C_12  and  C_13 
REMARK    7  A    between atoms: C_13  and  C_14 
REMARK    8  A    between atoms: C_14  and  N_15 
REMARK    9  A    between atoms: C_27  and  O_28 
REMARK   10  A    between atoms: C_27  and  C_29 
REMARK   11  A    between atoms: C_30  and  C_31 
ROOT
HETATM    1  C   UNL     1       6.688  26.279  54.539  1.00  0.00     0.161 C 
HETATM    2  N   UNL     1       6.101  25.111  53.879  1.00  0.00    -0.332 N 
HETATM    3  C   UNL     1       6.897  23.995  54.033  1.00  0.00     0.295 C 
HETATM    4  O   UNL     1       6.839  22.971  53.377  1.00  0.00    -0.264 OA
HETATM    5  C   UNL     1       7.601  25.696  55.596  1.00  0.00     0.058 C 
HETATM    6  C   UNL     1       7.916  24.327  55.128  1.00  0.00     0.250 C 
HETATM    7  O   UNL     1       8.805  23.602  55.518  1.00  0.00    -0.282 OA
HETATM    8  C   UNL     1       8.080  26.149  56.767  1.00  0.00     0.078 C 
ENDROOT
BRANCH   1   9
HETATM    9  C   UNL     1       5.705  27.351  54.939  1.00  0.00    -0.028 A 
HETATM   10  C   UNL     1       4.912  27.249  56.094  1.00  0.00     0.012 A 
HETATM   11  C   UNL     1       4.045  28.282  56.444  1.00  0.00     0.040 A 
HETATM   12  C   UNL     1       3.973  29.418  55.646  1.00  0.00     0.099 A 
HETATM   13  C   UNL     1       4.748  29.554  54.491  1.00  0.00     0.102 A 
HETATM   14  C   UNL     1       5.614  28.519  54.146  1.00  0.00     0.049 A 
BRANCH  12  15
HETATM   15  O   UNL     1       3.119  30.417  56.025  1.00  0.00    -0.358 OA
HETATM   16  H   UNL     1       3.603  31.250  55.858  1.00  0.00     0.218 HD
ENDBRANCH  12  15
BRANCH  13  17
HETATM   17  O   UNL     1       4.572  30.724  53.801  1.00  0.00    -0.349 OA
BRANCH  17  18
HETATM   18  C   UNL     1       4.382  30.624  52.388  1.00  0.00     0.171 C 
HETATM   19  C   UNL     1       3.041  29.962  52.132  1.00  0.00     0.034 C 
ENDBRANCH  17  18
ENDBRANCH  13  17
ENDBRANCH   1   9
BRANCH   2  20
HETATM   20  C   UNL     1       5.042  25.177  52.882  1.00  0.00     0.129 C 
BRANCH  20  21
HETATM   21  C   UNL     1       5.475  25.634  51.490  1.00  0.00     0.048 C 
BRANCH  21  22
HETATM   22  C   UNL     1       5.032  27.023  51.030  1.00  0.00     0.236 C 
BRANCH  22  23
HETATM   23  N   UNL     1       4.158  27.033  49.806  1.00  0.00    -0.067 N 
HETATM   24  H   UNL     1       3.175  27.174  50.121  1.00  0.00     0.280 HD
HETATM   25  C   UNL     1       4.500  28.095  48.770  1.00  0.00     0.261 C 
HETATM   26  C   UNL     1       3.538  27.989  47.581  1.00  0.00     0.195 C 
HETATM   27  O   UNL     1       3.590  26.685  46.996  1.00  0.00    -0.388 OA
HETATM   28  C   UNL     1       3.192  25.676  47.932  1.00  0.00     0.195 C 
HETATM   29  C   UNL     1       4.135  25.654  49.138  1.00  0.00     0.261 C 
ENDBRANCH  22  23
ENDBRANCH  21  22
ENDBRANCH  20  21
ENDBRANCH   2  20
BRANCH   8  30
HETATM   30  O   UNL     1       8.973  25.451  57.551  1.00  0.00    -0.360 OA
HETATM   31  H   UNL     1       8.531  25.108  58.355  1.00  0.00     0.217 HD
ENDBRANCH   8  30
BRANCH   8  32
HETATM   32  C   UNL     1       7.642  27.377  57.384  1.00  0.00     0.038 C 
HETATM   33  C   UNL     1       8.351  28.507  57.503  1.00  0.00     0.014 C 
BRANCH  33  34
HETATM   34  C   UNL     1       7.756  29.689  58.144  1.00  0.00    -0.036 A 
HETATM   35  C   UNL     1       6.692  30.383  57.549  1.00  0.00     0.011 A 
HETATM   36  C   UNL     1       6.173  31.534  58.145  1.00  0.00     0.001 A 
HETATM   37  C   UNL     1       6.703  31.995  59.347  1.00  0.00     0.000 A 
HETATM   38  C   UNL     1       7.745  31.298  59.959  1.00  0.00     0.001 A 
HETATM   39  C   UNL     1       8.266  30.147  59.363  1.00  0.00     0.011 A 
ENDBRANCH  33  34
ENDBRANCH   8  32
TORSDOF 11
ENDMDL
MODEL 10
REMARK VINA RESULT:      -7.5      2.481      5.439
REMARK  11 active torsions:
REMARK  status: ('A' for Active; 'I' for Inactive)
REMARK    1  A    between atoms: C_2  and  O_3 
REMARK    2  A    between atoms: O_3  and  C_4 
REMARK    3  A    between atoms: C_5  and  O_6 
REMARK    4  A    between atoms: C_9  and  C_10 
REMARK    5  A    between atoms: N_11  and  C_12 
REMARK    6  A    between atoms: C_12  and  C_13 
REMARK    7  A    between atoms: C_13  and  C_14 
REMARK    8  A    between atoms: C_14  and  N_15 
REMARK    9  A    between atoms: C_27  and  O_28 
REMARK   10  A    between atoms: C_27  and  C_29 
REMARK   11  A    between atoms: C_30  and  C_31 
ROOT
HETATM    1  C   UNL     1       5.346  28.585  55.653  1.00  0.00     0.161 C 
HETATM    2  N   UNL     1       5.123  30.029  55.571  1.00  0.00    -0.332 N 
HETATM    3  C   UNL     1       5.736  30.691  56.615  1.00  0.00     0.295 C 
HETATM    4  O   UNL     1       5.502  31.827  56.986  1.00  0.00    -0.264 OA
HETATM    5  C   UNL     1       6.607  28.443  56.479  1.00  0.00     0.058 C 
HETATM    6  C   UNL     1       6.701  29.695  57.265  1.00  0.00     0.250 C 
HETATM    7  O   UNL     1       7.395  29.904  58.236  1.00  0.00    -0.282 OA
HETATM    8  C   UNL     1       7.559  27.499  56.572  1.00  0.00     0.078 C 
ENDROOT
BRANCH   1   9
HETATM    9  C   UNL     1       5.249  27.845  54.342  1.00  0.00    -0.028 A 
HETATM   10  C   UNL     1       4.786  26.521  54.261  1.00  0.00     0.012 A 
HETATM   11  C   UNL     1       4.678  25.890  53.023  1.00  0.00     0.040 A 
HETATM   12  C   UNL     1       5.028  26.579  51.868  1.00  0.00     0.099 A 
HETATM   13  C   UNL     1       5.491  27.897  51.911  1.00  0.00     0.102 A 
HETATM   14  C   UNL     1       5.597  28.524  53.151  1.00  0.00     0.049 A 
BRANCH  12  15
HETATM   15  O   UNL     1       4.900  25.934  50.670  1.00  0.00    -0.358 OA
HETATM   16  H   UNL     1       4.880  26.639  49.994  1.00  0.00     0.218 HD
ENDBRANCH  12  15
BRANCH  13  17
HETATM   17  O   UNL     1       5.801  28.451  50.698  1.00  0.00    -0.349 OA
BRANCH  17  18
HETATM   18  C   UNL     1       4.948  29.494  50.222  1.00  0.00     0.171 C 
HETATM   19  C   UNL     1       5.801  30.715  49.932  1.00  0.00     0.034 C 
ENDBRANCH  17  18
ENDBRANCH  13  17
ENDBRANCH   1   9
BRANCH   2  20
HETATM   20  C   UNL     1       4.099  30.657  54.750  1.00  0.00     0.129 C 
BRANCH  20  21
HETATM   21  C   UNL     1       2.830  31.080  55.488  1.00  0.00     0.048 C 
BRANCH  21  22
HETATM   22  C   UNL     1       2.321  32.505  55.263  1.00  0.00     0.236 C 
BRANCH  22  23
HETATM   23  N   UNL     1       1.170  32.619  54.303  1.00  0.00    -0.067 N 
HETATM   24  H   UNL     1       0.943  31.659  53.966  1.00  0.00     0.280 HD
HETATM   25  C   UNL     1      -0.093  33.251  54.872  1.00  0.00     0.261 C 
HETATM   26  C   UNL     1      -1.178  33.308  53.791  1.00  0.00     0.195 C 
HETATM   27  O   UNL     1      -0.724  34.038  52.648  1.00  0.00    -0.388 OA
HETATM   28  C   UNL     1       0.416  33.414  52.047  1.00  0.00     0.195 C 
HETATM   29  C   UNL     1       1.589  33.365  53.032  1.00  0.00     0.261 C 
ENDBRANCH  22  23
ENDBRANCH  21  22
ENDBRANCH  20  21
ENDBRANCH   2  20
BRANCH   8  30
HETATM   30  O   UNL     1       8.607  27.555  57.465  1.00  0.00    -0.360 OA
HETATM   31  H   UNL     1       8.464  26.928  58.204  1.00  0.00     0.217 HD
ENDBRANCH   8  30
BRANCH   8  32
HETATM   32  C   UNL     1       7.645  26.366  55.684  1.00  0.00     0.038 C 
HETATM   33  C   UNL     1       7.768  25.080  56.042  1.00  0.00     0.014 C 
BRANCH  33  34
HETATM   34  C   UNL     1       7.823  24.030  55.014  1.00  0.00    -0.036 A 
HETATM   35  C   UNL     1       7.853  24.347  53.648  1.00  0.00     0.011 A 
HETATM   36  C   UNL     1       7.853  23.337  52.684  1.00  0.00     0.001 A 
HETATM   37  C   UNL     1       7.835  22.001  53.076  1.00  0.00     0.000 A 
HETATM   38  C   UNL     1       7.829  21.675  54.432  1.00  0.00     0.001 A 
HETATM   39  C   UNL     1       7.829  22.685  55.398  1.00  0.00     0.011 A 
ENDBRANCH  33  34
ENDBRANCH   8  32
TORSDOF 11
ENDMDL
