MODEL 1
REMARK VINA RESULT:      -6.7      0.000      0.000
REMARK  11 active torsions:
REMARK  status: ('A' for Active; 'I' for Inactive)
REMARK    1  A    between atoms: C_1  and  C_17 
REMARK    2  A    between atoms: C_1  and  S_18 
REMARK    3  A    between atoms: C_2  and  N_23 
REMARK    4  A    between atoms: C_3  and  C_13 
REMARK    5  A    between atoms: C_6  and  S_18 
REMARK    6  A    between atoms: C_6  and  S_19 
REMARK    7  A    between atoms: C_7  and  C_20 
REMARK    8  A    between atoms: C_7  and  C_21 
REMARK    9  A    between atoms: C_9  and  C_24 
REMARK   10  A    between atoms: C_16  and  C_17 
REMARK   11  A    between atoms: S_19  and  C_20 
ROOT
HETATM    1  C           1       2.665  33.816  62.906  0.00  0.00     0.092 C 
HETATM    2  C           1       4.841  33.483  61.938  0.00  0.00     0.156 C 
HETATM    3  C           1       2.704  34.705  61.693  0.00  0.00     0.127 C 
HETATM    4  C           1       3.907  34.165  60.875  0.00  0.00     0.136 C 
HETATM    5  C           1       3.411  33.133  59.911  0.00  0.00     0.079 C 
HETATM    6  N           1       2.928  32.408  59.144  0.00  0.00    -0.196 NA
HETATM    7  C           1       2.720  36.288  61.883  0.00  0.00     0.248 C 
HETATM    8  C           1       3.883  36.483  59.758  0.00  0.00     0.105 C 
HETATM    9  N           1       3.800  33.182  63.026  0.00  0.00    -0.350 N 
HETATM   10  N           1       2.761  37.020  60.509  0.00  0.00    -0.040 N 
HETATM   11  C           1       4.465  37.419  58.725  0.00  0.00     0.075 C 
HETATM   12  C           1       4.432  35.266  59.969  0.00  0.00     0.036 C 
HETATM   13  H           1       3.979  32.520  63.794  0.00  0.00     0.163 HD
HETATM   14  H           1       2.945  38.032  60.699  0.00  0.00     0.284 HD
HETATM   15  H           1       1.876  36.960  59.967  0.00  0.00     0.284 HD
ENDROOT
BRANCH   2  16
HETATM   16  S           1       5.527  31.876  61.414  0.00  0.00    -0.125 SA
BRANCH  16  17
HETATM   17  C           1       6.815  32.345  60.221  0.00  0.00     0.077 C 
BRANCH  17  18
HETATM   18  C           1       7.841  31.204  60.125  0.00  0.00     0.010 C 
BRANCH  18  19
HETATM   19  C           1       9.065  31.470  61.018  0.00  0.00    -0.004 C 
HETATM   20  C           1       9.125  30.504  62.209  0.00  0.00     0.005 C 
ENDBRANCH  18  19
ENDBRANCH  17  18
ENDBRANCH  16  17
ENDBRANCH   2  16
BRANCH   2  21
HETATM   21  S           1       6.085  34.670  62.539  0.00  0.00    -0.125 SA
BRANCH  21  22
HETATM   22  C           1       7.148  33.586  63.540  0.00  0.00     0.077 C 
BRANCH  22  23
HETATM   23  C           1       7.265  34.182  64.952  0.00  0.00     0.010 C 
BRANCH  23  24
HETATM   24  C           1       6.064  33.798  65.830  0.00  0.00    -0.004 C 
HETATM   25  C           1       6.220  34.312  67.267  0.00  0.00     0.005 C 
ENDBRANCH  23  24
ENDBRANCH  22  23
ENDBRANCH  21  22
ENDBRANCH   2  21
BRANCH   3  26
HETATM   26  C           1       1.493  34.702  60.828  0.00  0.00     0.105 C 
HETATM   27  N           1       0.346  34.686  60.988  0.00  0.00    -0.151 N 
ENDBRANCH   3  26
BRANCH   1  28
HETATM   28  N           1       1.686  33.701  63.702  0.00  0.00    -0.388 N 
HETATM   29  H           1       1.784  33.946  64.718  0.00  0.00     0.157 HD
HETATM   30  H           1       0.759  33.348  63.359  0.00  0.00     0.157 HD
ENDBRANCH   1  28
BRANCH   7  31
HETATM   31  C           1       3.729  36.849  62.880  0.00  0.00    -0.026 A 
HETATM   32  C           1       3.813  36.449  64.164  0.00  0.00     0.009 A 
HETATM   33  C           1       4.725  36.959  65.005  0.00  0.00     0.001 A 
HETATM   34  C           1       5.595  37.885  64.578  0.00  0.00     0.000 A 
HETATM   35  C           1       5.546  38.285  63.300  0.00  0.00     0.001 A 
HETATM   36  C           1       4.630  37.764  62.471  0.00  0.00     0.009 A 
ENDBRANCH   7  31
TORSDOF 11
ENDMDL
MODEL 2
REMARK VINA RESULT:      -5.6     11.299     14.885
REMARK  11 active torsions:
REMARK  status: ('A' for Active; 'I' for Inactive)
REMARK    1  A    between atoms: C_1  and  C_17 
REMARK    2  A    between atoms: C_1  and  S_18 
REMARK    3  A    between atoms: C_2  and  N_23 
REMARK    4  A    between atoms: C_3  and  C_13 
REMARK    5  A    between atoms: C_6  and  S_18 
REMARK    6  A    between atoms: C_6  and  S_19 
REMARK    7  A    between atoms: C_7  and  C_20 
REMARK    8  A    between atoms: C_7  and  C_21 
REMARK    9  A    between atoms: C_9  and  C_24 
REMARK   10  A    between atoms: C_16  and  C_17 
REMARK   11  A    between atoms: S_19  and  C_20 
ROOT
HETATM    1  C           1       2.568  28.954  51.799  0.00  0.00     0.092 C 
HETATM    2  C           1       1.728  30.193  49.918  0.00  0.00     0.156 C 
HETATM    3  C           1       3.634  29.966  51.477  0.00  0.00     0.127 C 
HETATM    4  C           1       2.907  30.997  50.573  0.00  0.00     0.136 C 
HETATM    5  C           1       2.351  32.086  51.435  0.00  0.00     0.079 C 
HETATM    6  N           1       2.025  32.925  52.169  0.00  0.00    -0.196 NA
HETATM    7  C           1       5.030  29.472  50.887  0.00  0.00     0.248 C 
HETATM    8  C           1       5.276  31.628  49.793  0.00  0.00     0.105 C 
HETATM    9  N           1       1.571  29.081  50.966  0.00  0.00    -0.350 N 
HETATM   10  N           1       5.987  30.672  50.624  0.00  0.00    -0.040 N 
HETATM   11  C           1       6.158  32.513  48.943  0.00  0.00     0.075 C 
HETATM   12  C           1       3.930  31.720  49.713  0.00  0.00     0.036 C 
HETATM   13  H           1       0.737  28.481  51.015  0.00  0.00     0.163 HD
HETATM   14  H           1       6.805  30.308  50.083  0.00  0.00     0.284 HD
HETATM   15  H           1       6.358  31.118  51.487  0.00  0.00     0.284 HD
ENDROOT
BRANCH   2  16
HETATM   16  S           1       0.140  31.092  49.872  0.00  0.00    -0.125 SA
BRANCH  16  17
HETATM   17  C           1       0.168  31.897  48.243  0.00  0.00     0.077 C 
BRANCH  17  18
HETATM   18  C           1       0.373  33.408  48.440  0.00  0.00     0.010 C 
BRANCH  18  19
HETATM   19  C           1       1.696  33.884  47.815  0.00  0.00    -0.004 C 
HETATM   20  C           1       2.138  32.980  46.656  0.00  0.00     0.005 C 
ENDBRANCH  18  19
ENDBRANCH  17  18
ENDBRANCH  16  17
ENDBRANCH   2  16
BRANCH   2  21
HETATM   21  S           1       2.248  29.506  48.313  0.00  0.00    -0.125 SA
BRANCH  21  22
HETATM   22  C           1       1.226  28.004  48.229  0.00  0.00     0.077 C 
BRANCH  22  23
HETATM   23  C           1       1.341  27.411  46.814  0.00  0.00     0.010 C 
BRANCH  23  24
HETATM   24  C           1      -0.002  27.464  46.068  0.00  0.00    -0.004 C 
HETATM   25  C           1      -0.502  28.904  45.895  0.00  0.00     0.005 C 
ENDBRANCH  23  24
ENDBRANCH  22  23
ENDBRANCH  21  22
ENDBRANCH   2  21
BRANCH   3  26
HETATM   26  C           1       4.241  30.681  52.632  0.00  0.00     0.105 C 
HETATM   27  N           1       4.413  30.467  53.758  0.00  0.00    -0.151 N 
ENDBRANCH   3  26
BRANCH   1  28
HETATM   28  N           1       2.626  28.097  52.730  0.00  0.00    -0.388 N 
HETATM   29  H           1       3.548  27.777  53.115  0.00  0.00     0.157 HD
HETATM   30  H           1       1.747  27.682  53.128  0.00  0.00     0.157 HD
ENDBRANCH   1  28
BRANCH   7  31
HETATM   31  C           1       4.974  28.496  49.715  0.00  0.00    -0.026 A 
HETATM   32  C           1       5.437  28.782  48.483  0.00  0.00     0.009 A 
HETATM   33  C           1       5.380  27.890  47.482  0.00  0.00     0.001 A 
HETATM   34  C           1       4.866  26.670  47.692  0.00  0.00     0.000 A 
HETATM   35  C           1       4.417  26.353  48.915  0.00  0.00     0.001 A 
HETATM   36  C           1       4.483  27.256  49.906  0.00  0.00     0.009 A 
ENDBRANCH   7  31
TORSDOF 11
ENDMDL
MODEL 3
REMARK VINA RESULT:      -5.6      6.321      9.447
REMARK  11 active torsions:
REMARK  status: ('A' for Active; 'I' for Inactive)
REMARK    1  A    between atoms: C_1  and  C_17 
REMARK    2  A    between atoms: C_1  and  S_18 
REMARK    3  A    between atoms: C_2  and  N_23 
REMARK    4  A    between atoms: C_3  and  C_13 
REMARK    5  A    between atoms: C_6  and  S_18 
REMARK    6  A    between atoms: C_6  and  S_19 
REMARK    7  A    between atoms: C_7  and  C_20 
REMARK    8  A    between atoms: C_7  and  C_21 
REMARK    9  A    between atoms: C_9  and  C_24 
REMARK   10  A    between atoms: C_16  and  C_17 
REMARK   11  A    between atoms: S_19  and  C_20 
ROOT
HETATM    1  C           1       5.230  26.837  56.275  0.00  0.00     0.092 C 
HETATM    2  C           1       7.093  28.306  55.889  0.00  0.00     0.156 C 
HETATM    3  C           1       5.203  27.139  54.801  0.00  0.00     0.127 C 
HETATM    4  C           1       6.614  27.715  54.515  0.00  0.00     0.136 C 
HETATM    5  C           1       7.520  26.594  54.111  0.00  0.00     0.079 C 
HETATM    6  N           1       8.127  25.680  53.732  0.00  0.00    -0.196 NA
HETATM    7  C           1       4.019  28.024  54.205  0.00  0.00     0.248 C 
HETATM    8  C           1       5.512  28.739  52.427  0.00  0.00     0.105 C 
HETATM    9  N           1       6.228  27.464  56.837  0.00  0.00    -0.350 N 
HETATM   10  N           1       4.178  28.217  52.668  0.00  0.00    -0.040 N 
HETATM   11  C           1       5.661  29.547  51.159  0.00  0.00     0.075 C 
HETATM   12  C           1       6.558  28.584  53.270  0.00  0.00     0.036 C 
HETATM   13  H           1       6.423  27.389  57.845  0.00  0.00     0.163 HD
HETATM   14  H           1       3.482  28.939  52.369  0.00  0.00     0.284 HD
HETATM   15  H           1       3.997  27.359  52.110  0.00  0.00     0.284 HD
ENDROOT
BRANCH   2  16
HETATM   16  S           1       8.831  27.935  56.302  0.00  0.00    -0.125 SA
BRANCH  16  17
HETATM   17  C           1       9.719  29.409  55.715  0.00  0.00     0.077 C 
BRANCH  17  18
HETATM   18  C           1      10.714  29.853  56.800  0.00  0.00     0.010 C 
BRANCH  18  19
HETATM   19  C           1      10.006  30.119  58.139  0.00  0.00    -0.004 C 
HETATM   20  C           1      10.046  31.605  58.523  0.00  0.00     0.005 C 
ENDBRANCH  18  19
ENDBRANCH  17  18
ENDBRANCH  16  17
ENDBRANCH   2  16
BRANCH   2  21
HETATM   21  S           1       6.654  30.071  56.003  0.00  0.00    -0.125 SA
BRANCH  21  22
HETATM   22  C           1       6.496  30.275  57.804  0.00  0.00     0.077 C 
BRANCH  22  23
HETATM   23  C           1       6.279  31.766  58.111  0.00  0.00     0.010 C 
BRANCH  23  24
HETATM   24  C           1       6.471  32.070  59.605  0.00  0.00    -0.004 C 
HETATM   25  C           1       5.180  32.592  60.251  0.00  0.00     0.005 C 
ENDBRANCH  23  24
ENDBRANCH  22  23
ENDBRANCH  21  22
ENDBRANCH   2  21
BRANCH   3  26
HETATM   26  C           1       4.958  25.987  53.892  0.00  0.00     0.105 C 
HETATM   27  N           1       4.900  24.834  53.992  0.00  0.00    -0.151 N 
ENDBRANCH   3  26
BRANCH   1  28
HETATM   28  N           1       4.405  26.096  56.889  0.00  0.00    -0.388 N 
HETATM   29  H           1       3.449  25.912  56.499  0.00  0.00     0.157 HD
HETATM   30  H           1       4.663  25.659  57.808  0.00  0.00     0.157 HD
ENDBRANCH   1  28
BRANCH   7  31
HETATM   31  C           1       3.702  29.327  54.933  0.00  0.00    -0.026 A 
HETATM   32  C           1       3.701  30.535  54.336  0.00  0.00     0.009 A 
HETATM   33  C           1       3.403  31.656  55.009  0.00  0.00     0.001 A 
HETATM   34  C           1       3.081  31.599  56.309  0.00  0.00     0.000 A 
HETATM   35  C           1       3.054  30.407  56.922  0.00  0.00     0.001 A 
HETATM   36  C           1       3.352  29.294  56.233  0.00  0.00     0.009 A 
ENDBRANCH   7  31
TORSDOF 11
ENDMDL
MODEL 4
REMARK VINA RESULT:      -5.6      2.041      4.319
REMARK  11 active torsions:
REMARK  status: ('A' for Active; 'I' for Inactive)
REMARK    1  A    between atoms: C_1  and  C_17 
REMARK    2  A    between atoms: C_1  and  S_18 
REMARK    3  A    between atoms: C_2  and  N_23 
REMARK    4  A    between atoms: C_3  and  C_13 
REMARK    5  A    between atoms: C_6  and  S_18 
REMARK    6  A    between atoms: C_6  and  S_19 
REMARK    7  A    between atoms: C_7  and  C_20 
REMARK    8  A    between atoms: C_7  and  C_21 
REMARK    9  A    between atoms: C_9  and  C_24 
REMARK   10  A    between atoms: C_16  and  C_17 
REMARK   11  A    between atoms: S_19  and  C_20 
ROOT
HETATM    1  C           1       6.626  34.218  63.646  0.00  0.00     0.092 C 
HETATM    2  C           1       5.796  33.545  61.492  0.00  0.00     0.156 C 
HETATM    3  C           1       5.135  34.099  63.810  0.00  0.00     0.127 C 
HETATM    4  C           1       4.690  33.275  62.573  0.00  0.00     0.136 C 
HETATM    5  C           1       4.689  31.823  62.935  0.00  0.00     0.079 C 
HETATM    6  N           1       4.641  30.731  63.326  0.00  0.00    -0.196 NA
HETATM    7  C           1       4.266  35.414  64.047  0.00  0.00     0.248 C 
HETATM    8  C           1       2.369  34.287  63.031  0.00  0.00     0.105 C 
HETATM    9  N           1       6.960  33.929  62.418  0.00  0.00    -0.350 N 
HETATM   10  N           1       2.754  35.072  64.191  0.00  0.00    -0.040 N 
HETATM   11  C           1       0.907  34.373  62.659  0.00  0.00     0.075 C 
HETATM   12  C           1       3.227  33.562  62.279  0.00  0.00     0.036 C 
HETATM   13  H           1       7.938  33.950  62.097  0.00  0.00     0.163 HD
HETATM   14  H           1       2.225  35.975  64.169  0.00  0.00     0.284 HD
HETATM   15  H           1       2.508  34.589  65.078  0.00  0.00     0.284 HD
ENDROOT
BRANCH   2  16
HETATM   16  S           1       6.328  32.061  60.574  0.00  0.00    -0.125 SA
BRANCH  16  17
HETATM   17  C           1       7.824  31.538  61.464  0.00  0.00     0.077 C 
BRANCH  17  18
HETATM   18  C           1       8.850  31.015  60.446  0.00  0.00     0.010 C 
BRANCH  18  19
HETATM   19  C           1       8.169  30.240  59.306  0.00  0.00    -0.004 C 
HETATM   20  C           1       9.105  30.048  58.104  0.00  0.00     0.005 C 
ENDBRANCH  18  19
ENDBRANCH  17  18
ENDBRANCH  16  17
ENDBRANCH   2  16
BRANCH   2  21
HETATM   21  S           1       5.317  34.950  60.435  0.00  0.00    -0.125 SA
BRANCH  21  22
HETATM   22  C           1       4.733  34.083  58.947  0.00  0.00     0.077 C 
BRANCH  22  23
HETATM   23  C           1       3.228  34.353  58.781  0.00  0.00     0.010 C 
BRANCH  23  24
HETATM   24  C           1       2.908  35.853  58.877  0.00  0.00    -0.004 C 
HETATM   25  C           1       1.478  36.099  59.378  0.00  0.00     0.005 C 
ENDBRANCH  23  24
ENDBRANCH  22  23
ENDBRANCH  21  22
ENDBRANCH   2  21
BRANCH   3  26
HETATM   26  C           1       4.655  33.417  65.042  0.00  0.00     0.105 C 
HETATM   27  N           1       4.677  33.625  66.182  0.00  0.00    -0.151 N 
ENDBRANCH   3  26
BRANCH   1  28
HETATM   28  N           1       7.441  34.557  64.555  0.00  0.00    -0.388 N 
HETATM   29  H           1       7.754  35.554  64.656  0.00  0.00     0.157 HD
HETATM   30  H           1       7.825  33.842  65.220  0.00  0.00     0.157 HD
ENDBRANCH   1  28
BRANCH   7  31
HETATM   31  C           1       4.519  36.584  63.101  0.00  0.00    -0.026 A 
HETATM   32  C           1       3.558  37.159  62.352  0.00  0.00     0.009 A 
HETATM   33  C           1       3.819  38.196  61.541  0.00  0.00     0.001 A 
HETATM   34  C           1       5.059  38.700  61.467  0.00  0.00     0.000 A 
HETATM   35  C           1       6.029  38.160  62.218  0.00  0.00     0.001 A 
HETATM   36  C           1       5.750  37.124  63.025  0.00  0.00     0.009 A 
ENDBRANCH   7  31
TORSDOF 11
ENDMDL
MODEL 5
REMARK VINA RESULT:      -5.5     12.917     14.692
REMARK  11 active torsions:
REMARK  status: ('A' for Active; 'I' for Inactive)
REMARK    1  A    between atoms: C_1  and  C_17 
REMARK    2  A    between atoms: C_1  and  S_18 
REMARK    3  A    between atoms: C_2  and  N_23 
REMARK    4  A    between atoms: C_3  and  C_13 
REMARK    5  A    between atoms: C_6  and  S_18 
REMARK    6  A    between atoms: C_6  and  S_19 
REMARK    7  A    between atoms: C_7  and  C_20 
REMARK    8  A    between atoms: C_7  and  C_21 
REMARK    9  A    between atoms: C_9  and  C_24 
REMARK   10  A    between atoms: C_16  and  C_17 
REMARK   11  A    between atoms: S_19  and  C_20 
ROOT
HETATM    1  C           1       2.030  28.338  49.365  0.00  0.00     0.092 C 
HETATM    2  C           1       4.199  29.342  49.625  0.00  0.00     0.156 C 
HETATM    3  C           1       2.405  28.842  47.997  0.00  0.00     0.127 C 
HETATM    4  C           1       3.934  29.087  48.098  0.00  0.00     0.136 C 
HETATM    5  C           1       4.651  27.846  47.668  0.00  0.00     0.079 C 
HETATM    6  N           1       5.122  26.873  47.244  0.00  0.00    -0.196 NA
HETATM    7  C           1       1.602  30.066  47.367  0.00  0.00     0.248 C 
HETATM    8  C           1       3.579  30.635  46.074  0.00  0.00     0.105 C 
HETATM    9  N           1       2.982  28.613  50.214  0.00  0.00    -0.350 N 
HETATM   10  N           1       2.146  30.429  45.954  0.00  0.00    -0.040 N 
HETATM   11  C           1       4.181  31.552  45.035  0.00  0.00     0.075 C 
HETATM   12  C           1       4.348  30.110  47.054  0.00  0.00     0.036 C 
HETATM   13  H           1       2.922  28.352  51.208  0.00  0.00     0.163 HD
HETATM   14  H           1       1.705  31.334  45.671  0.00  0.00     0.284 HD
HETATM   15  H           1       1.921  29.730  45.218  0.00  0.00     0.284 HD
ENDROOT
BRANCH   2  16
HETATM   16  S           1       5.678  28.500  50.282  0.00  0.00    -0.125 SA
BRANCH  16  17
HETATM   17  C           1       4.991  27.363  51.522  0.00  0.00     0.077 C 
BRANCH  17  18
HETATM   18  C           1       5.279  25.918  51.084  0.00  0.00     0.010 C 
BRANCH  18  19
HETATM   19  C           1       4.991  24.917  52.215  0.00  0.00    -0.004 C 
HETATM   20  C           1       6.280  24.422  52.884  0.00  0.00     0.005 C 
ENDBRANCH  18  19
ENDBRANCH  17  18
ENDBRANCH  16  17
ENDBRANCH   2  16
BRANCH   2  21
HETATM   21  S           1       4.127  31.126  49.989  0.00  0.00    -0.125 SA
BRANCH  21  22
HETATM   22  C           1       5.894  31.553  49.994  0.00  0.00     0.077 C 
BRANCH  22  23
HETATM   23  C           1       6.042  33.034  49.606  0.00  0.00     0.010 C 
BRANCH  23  24
HETATM   24  C           1       5.920  33.235  48.087  0.00  0.00    -0.004 C 
HETATM   25  C           1       7.234  33.738  47.472  0.00  0.00     0.005 C 
ENDBRANCH  23  24
ENDBRANCH  22  23
ENDBRANCH  21  22
ENDBRANCH   2  21
BRANCH   3  26
HETATM   26  C           1       2.138  27.926  46.856  0.00  0.00     0.105 C 
HETATM   27  N           1       1.337  27.134  46.582  0.00  0.00    -0.151 N 
ENDBRANCH   3  26
BRANCH   1  28
HETATM   28  N           1       0.950  27.744  49.658  0.00  0.00    -0.388 N 
HETATM   29  H           1       0.023  28.115  49.335  0.00  0.00     0.157 HD
HETATM   30  H           1       0.964  26.870  50.241  0.00  0.00     0.157 HD
ENDBRANCH   1  28
BRANCH   7  31
HETATM   31  C           1       1.409  31.291  48.256  0.00  0.00    -0.026 A 
HETATM   32  C           1       1.902  32.511  47.965  0.00  0.00     0.009 A 
HETATM   33  C           1       1.698  33.566  48.767  0.00  0.00     0.001 A 
HETATM   34  C           1       0.975  33.432  49.889  0.00  0.00     0.000 A 
HETATM   35  C           1       0.455  32.234  50.191  0.00  0.00     0.001 A 
HETATM   36  C           1       0.668  31.189  49.376  0.00  0.00     0.009 A 
ENDBRANCH   7  31
TORSDOF 11
ENDMDL
MODEL 6
REMARK VINA RESULT:      -5.5      9.865     12.732
REMARK  11 active torsions:
REMARK  status: ('A' for Active; 'I' for Inactive)
REMARK    1  A    between atoms: C_1  and  C_17 
REMARK    2  A    between atoms: C_1  and  S_18 
REMARK    3  A    between atoms: C_2  and  N_23 
REMARK    4  A    between atoms: C_3  and  C_13 
REMARK    5  A    between atoms: C_6  and  S_18 
REMARK    6  A    between atoms: C_6  and  S_19 
REMARK    7  A    between atoms: C_7  and  C_20 
REMARK    8  A    between atoms: C_7  and  C_21 
REMARK    9  A    between atoms: C_9  and  C_24 
REMARK   10  A    between atoms: C_16  and  C_17 
REMARK   11  A    between atoms: S_19  and  C_20 
ROOT
HETATM    1  C           1       2.327  28.956  50.916  0.00  0.00     0.092 C 
HETATM    2  C           1       4.638  28.839  50.262  0.00  0.00     0.156 C 
HETATM    3  C           1       2.824  30.376  50.943  0.00  0.00     0.127 C 
HETATM    4  C           1       4.143  30.323  50.129  0.00  0.00     0.136 C 
HETATM    5  C           1       3.838  30.621  48.695  0.00  0.00     0.079 C 
HETATM    6  N           1       3.522  30.939  47.624  0.00  0.00    -0.196 NA
HETATM    7  C           1       2.964  31.129  52.341  0.00  0.00     0.248 C 
HETATM    8  C           1       4.716  32.504  51.369  0.00  0.00     0.105 C 
HETATM    9  N           1       3.295  28.155  50.561  0.00  0.00    -0.350 N 
HETATM   10  N           1       3.492  32.581  52.147  0.00  0.00    -0.040 N 
HETATM   11  C           1       5.680  33.648  51.581  0.00  0.00     0.075 C 
HETATM   12  C           1       5.035  31.482  50.544  0.00  0.00     0.036 C 
HETATM   13  H           1       3.163  27.138  50.480  0.00  0.00     0.163 HD
HETATM   14  H           1       3.727  32.958  53.094  0.00  0.00     0.284 HD
HETATM   15  H           1       2.805  33.230  51.715  0.00  0.00     0.284 HD
ENDROOT
BRANCH   2  16
HETATM   16  S           1       5.258  28.111  48.708  0.00  0.00    -0.125 SA
BRANCH  16  17
HETATM   17  C           1       4.148  26.697  48.441  0.00  0.00     0.077 C 
BRANCH  17  18
HETATM   18  C           1       3.238  27.001  47.240  0.00  0.00     0.010 C 
BRANCH  18  19
HETATM   19  C           1       1.751  26.873  47.613  0.00  0.00    -0.004 C 
HETATM   20  C           1       1.016  28.216  47.503  0.00  0.00     0.005 C 
ENDBRANCH  18  19
ENDBRANCH  17  18
ENDBRANCH  16  17
ENDBRANCH   2  16
BRANCH   2  21
HETATM   21  S           1       5.778  28.677  51.674  0.00  0.00    -0.125 SA
BRANCH  21  22
HETATM   22  C           1       5.819  26.871  51.885  0.00  0.00     0.077 C 
BRANCH  22  23
HETATM   23  C           1       6.945  26.519  52.871  0.00  0.00     0.010 C 
BRANCH  23  24
HETATM   24  C           1       7.792  25.340  52.366  0.00  0.00    -0.004 C 
HETATM   25  C           1       7.578  24.080  53.215  0.00  0.00     0.005 C 
ENDBRANCH  23  24
ENDBRANCH  22  23
ENDBRANCH  21  22
ENDBRANCH   2  21
BRANCH   3  26
HETATM   26  C           1       1.929  31.403  50.345  0.00  0.00     0.105 C 
HETATM   27  N           1       0.787  31.592  50.285  0.00  0.00    -0.151 N 
ENDBRANCH   3  26
BRANCH   1  28
HETATM   28  N           1       1.151  28.582  51.203  0.00  0.00    -0.388 N 
HETATM   29  H           1       0.610  29.045  51.974  0.00  0.00     0.157 HD
HETATM   30  H           1       0.699  27.794  50.677  0.00  0.00     0.157 HD
ENDBRANCH   1  28
BRANCH   7  31
HETATM   31  C           1       3.693  30.381  53.453  0.00  0.00    -0.026 A 
HETATM   32  C           1       4.629  30.943  54.243  0.00  0.00     0.009 A 
HETATM   33  C           1       5.236  30.254  55.220  0.00  0.00     0.001 A 
HETATM   34  C           1       4.911  28.972  55.446  0.00  0.00     0.000 A 
HETATM   35  C           1       3.968  28.396  54.688  0.00  0.00     0.001 A 
HETATM   36  C           1       3.368  29.100  53.716  0.00  0.00     0.009 A 
ENDBRANCH   7  31
TORSDOF 11
ENDMDL
MODEL 7
REMARK VINA RESULT:      -5.1     11.565     15.145
REMARK  11 active torsions:
REMARK  status: ('A' for Active; 'I' for Inactive)
REMARK    1  A    between atoms: C_1  and  C_17 
REMARK    2  A    between atoms: C_1  and  S_18 
REMARK    3  A    between atoms: C_2  and  N_23 
REMARK    4  A    between atoms: C_3  and  C_13 
REMARK    5  A    between atoms: C_6  and  S_18 
REMARK    6  A    between atoms: C_6  and  S_19 
REMARK    7  A    between atoms: C_7  and  C_20 
REMARK    8  A    between atoms: C_7  and  C_21 
REMARK    9  A    between atoms: C_9  and  C_24 
REMARK   10  A    between atoms: C_16  and  C_17 
REMARK   11  A    between atoms: S_19  and  C_20 
ROOT
HETATM    1  C           1      -5.602  33.670  53.713  0.00  0.00     0.092 C 
HETATM    2  C           1      -4.866  35.376  52.188  0.00  0.00     0.156 C 
HETATM    3  C           1      -4.107  33.516  53.631  0.00  0.00     0.127 C 
HETATM    4  C           1      -3.630  34.852  53.004  0.00  0.00     0.136 C 
HETATM    5  C           1      -3.314  35.815  54.105  0.00  0.00     0.079 C 
HETATM    6  N           1      -3.019  36.466  55.020  0.00  0.00    -0.196 NA
HETATM    7  C           1      -3.492  32.225  52.927  0.00  0.00     0.248 C 
HETATM    8  C           1      -1.517  33.528  52.373  0.00  0.00     0.105 C 
HETATM    9  N           1      -5.989  34.650  52.944  0.00  0.00    -0.350 N 
HETATM   10  N           1      -1.935  32.260  52.948  0.00  0.00    -0.040 N 
HETATM   11  C           1      -0.141  33.521  51.749  0.00  0.00     0.075 C 
HETATM   12  C           1      -2.285  34.639  52.331  0.00  0.00     0.036 C 
HETATM   13  H           1      -6.978  34.921  52.858  0.00  0.00     0.163 HD
HETATM   14  H           1      -1.595  31.489  52.328  0.00  0.00     0.284 HD
HETATM   15  H           1      -1.517  32.111  53.888  0.00  0.00     0.284 HD
ENDROOT
BRANCH   2  16
HETATM   16  S           1      -5.185  37.163  52.372  0.00  0.00    -0.125 SA
BRANCH  16  17
HETATM   17  C           1      -6.912  37.219  52.935  0.00  0.00     0.077 C 
BRANCH  17  18
HETATM   18  C           1      -7.150  38.546  53.675  0.00  0.00     0.010 C 
BRANCH  18  19
HETATM   19  C           1      -5.848  39.351  53.822  0.00  0.00    -0.004 C 
HETATM   20  C           1      -6.103  40.752  54.396  0.00  0.00     0.005 C 
ENDBRANCH  18  19
ENDBRANCH  17  18
ENDBRANCH  16  17
ENDBRANCH   2  16
BRANCH   2  21
HETATM   21  S           1      -4.769  34.804  50.461  0.00  0.00    -0.125 SA
BRANCH  21  22
HETATM   22  C           1      -6.361  35.394  49.809  0.00  0.00     0.077 C 
BRANCH  22  23
HETATM   23  C           1      -7.284  34.182  49.599  0.00  0.00     0.010 C 
BRANCH  23  24
HETATM   24  C           1      -8.594  34.325  50.390  0.00  0.00    -0.004 C 
HETATM   25  C           1      -8.820  33.137  51.336  0.00  0.00     0.005 C 
ENDBRANCH  23  24
ENDBRANCH  22  23
ENDBRANCH  21  22
ENDBRANCH   2  21
BRANCH   3  26
HETATM   26  C           1      -3.390  33.302  54.917  0.00  0.00     0.105 C 
HETATM   27  N           1      -3.559  32.684  55.882  0.00  0.00    -0.151 N 
ENDBRANCH   3  26
BRANCH   1  28
HETATM   28  N           1      -6.377  32.953  54.414  0.00  0.00    -0.388 N 
HETATM   29  H           1      -7.314  32.653  54.049  0.00  0.00     0.157 HD
HETATM   30  H           1      -6.098  32.653  55.381  0.00  0.00     0.157 HD
ENDBRANCH   1  28
BRANCH   7  31
HETATM   31  C           1      -4.054  31.855  51.558  0.00  0.00    -0.026 A 
HETATM   32  C           1      -3.340  31.912  50.417  0.00  0.00     0.009 A 
HETATM   33  C           1      -3.869  31.565  49.234  0.00  0.00     0.001 A 
HETATM   34  C           1      -5.136  31.133  49.160  0.00  0.00     0.000 A 
HETATM   35  C           1      -5.861  31.046  50.284  0.00  0.00     0.001 A 
HETATM   36  C           1      -5.317  31.396  51.460  0.00  0.00     0.009 A 
ENDBRANCH   7  31
TORSDOF 11
ENDMDL
MODEL 8
REMARK VINA RESULT:      -5.1      6.993     10.050
REMARK  11 active torsions:
REMARK  status: ('A' for Active; 'I' for Inactive)
REMARK    1  A    between atoms: C_1  and  C_17 
REMARK    2  A    between atoms: C_1  and  S_18 
REMARK    3  A    between atoms: C_2  and  N_23 
REMARK    4  A    between atoms: C_3  and  C_13 
REMARK    5  A    between atoms: C_6  and  S_18 
REMARK    6  A    between atoms: C_6  and  S_19 
REMARK    7  A    between atoms: C_7  and  C_20 
REMARK    8  A    between atoms: C_7  and  C_21 
REMARK    9  A    between atoms: C_9  and  C_24 
REMARK   10  A    between atoms: C_16  and  C_17 
REMARK   11  A    between atoms: S_19  and  C_20 
ROOT
HETATM    1  C           1       5.261  26.385  56.036  0.00  0.00     0.092 C 
HETATM    2  C           1       7.240  27.721  55.759  0.00  0.00     0.156 C 
HETATM    3  C           1       5.253  26.819  54.595  0.00  0.00     0.127 C 
HETATM    4  C           1       6.707  27.297  54.344  0.00  0.00     0.136 C 
HETATM    5  C           1       7.513  26.144  53.831  0.00  0.00     0.079 C 
HETATM    6  N           1       8.037  25.220  53.366  0.00  0.00    -0.196 NA
HETATM    7  C           1       4.146  27.850  54.094  0.00  0.00     0.248 C 
HETATM    8  C           1       5.687  28.593  52.369  0.00  0.00     0.105 C 
HETATM    9  N           1       6.311  26.872  56.640  0.00  0.00    -0.350 N 
HETATM   10  N           1       4.315  28.166  52.578  0.00  0.00    -0.040 N 
HETATM   11  C           1       5.899  29.495  51.176  0.00  0.00     0.075 C 
HETATM   12  C           1       6.720  28.276  53.182  0.00  0.00     0.036 C 
HETATM   13  H           1       6.504  26.692  57.634  0.00  0.00     0.163 HD
HETATM   14  H           1       3.681  28.967  52.353  0.00  0.00     0.284 HD
HETATM   15  H           1       4.059  27.380  51.948  0.00  0.00     0.284 HD
ENDROOT
BRANCH   2  16
HETATM   16  S           1       8.942  27.169  56.117  0.00  0.00    -0.125 SA
BRANCH  16  17
HETATM   17  C           1       8.706  25.898  57.395  0.00  0.00     0.077 C 
BRANCH  17  18
HETATM   18  C           1       9.064  24.526  56.802  0.00  0.00     0.010 C 
BRANCH  18  19
HETATM   19  C           1       7.819  23.638  56.642  0.00  0.00    -0.004 C 
HETATM   20  C           1       8.094  22.421  55.749  0.00  0.00     0.005 C 
ENDBRANCH  18  19
ENDBRANCH  17  18
ENDBRANCH  16  17
ENDBRANCH   2  16
BRANCH   2  21
HETATM   21  S           1       6.954  29.498  56.035  0.00  0.00    -0.125 SA
BRANCH  21  22
HETATM   22  C           1       6.873  29.561  57.851  0.00  0.00     0.077 C 
BRANCH  22  23
HETATM   23  C           1       7.299  30.965  58.312  0.00  0.00     0.010 C 
BRANCH  23  24
HETATM   24  C           1       8.243  30.900  59.523  0.00  0.00    -0.004 C 
HETATM   25  C           1       8.596  32.299  60.046  0.00  0.00     0.005 C 
ENDBRANCH  23  24
ENDBRANCH  22  23
ENDBRANCH  21  22
ENDBRANCH   2  21
BRANCH   3  26
HETATM   26  C           1       4.907  25.777  53.591  0.00  0.00     0.105 C 
HETATM   27  N           1       4.273  24.808  53.568  0.00  0.00    -0.151 N 
ENDBRANCH   3  26
BRANCH   1  28
HETATM   28  N           1       4.379  25.664  56.591  0.00  0.00    -0.388 N 
HETATM   29  H           1       4.527  24.634  56.723  0.00  0.00     0.157 HD
HETATM   30  H           1       3.476  26.086  56.923  0.00  0.00     0.157 HD
ENDBRANCH   1  28
BRANCH   7  31
HETATM   31  C           1       3.944  29.105  54.938  0.00  0.00    -0.026 A 
HETATM   32  C           1       4.091  30.357  54.462  0.00  0.00     0.009 A 
HETATM   33  C           1       3.891  31.435  55.235  0.00  0.00     0.001 A 
HETATM   34  C           1       3.521  31.290  56.516  0.00  0.00     0.000 A 
HETATM   35  C           1       3.347  30.055  57.008  0.00  0.00     0.001 A 
HETATM   36  C           1       3.550  28.987  56.221  0.00  0.00     0.009 A 
ENDBRANCH   7  31
TORSDOF 11
ENDMDL
MODEL 9
REMARK VINA RESULT:      -5.1     10.383     14.178
REMARK  11 active torsions:
REMARK  status: ('A' for Active; 'I' for Inactive)
REMARK    1  A    between atoms: C_1  and  C_17 
REMARK    2  A    between atoms: C_1  and  S_18 
REMARK    3  A    between atoms: C_2  and  N_23 
REMARK    4  A    between atoms: C_3  and  C_13 
REMARK    5  A    between atoms: C_6  and  S_18 
REMARK    6  A    between atoms: C_6  and  S_19 
REMARK    7  A    between atoms: C_7  and  C_20 
REMARK    8  A    between atoms: C_7  and  C_21 
REMARK    9  A    between atoms: C_9  and  C_24 
REMARK   10  A    between atoms: C_16  and  C_17 
REMARK   11  A    between atoms: S_19  and  C_20 
ROOT
HETATM    1  C           1      -3.446  34.996  54.716  0.00  0.00     0.092 C 
HETATM    2  C           1      -3.698  35.789  52.460  0.00  0.00     0.156 C 
HETATM    3  C           1      -2.179  34.601  54.008  0.00  0.00     0.127 C 
HETATM    4  C           1      -2.183  35.472  52.724  0.00  0.00     0.136 C 
HETATM    5  C           1      -1.447  36.745  53.002  0.00  0.00     0.079 C 
HETATM    6  N           1      -0.795  37.664  53.282  0.00  0.00    -0.196 NA
HETATM    7  C           1      -1.884  33.059  53.733  0.00  0.00     0.248 C 
HETATM    8  C           1      -0.552  33.706  51.807  0.00  0.00     0.105 C 
HETATM    9  N           1      -4.241  35.617  53.887  0.00  0.00    -0.350 N 
HETATM   10  N           1      -0.527  32.868  52.993  0.00  0.00    -0.040 N 
HETATM   11  C           1       0.335  33.238  50.677  0.00  0.00     0.075 C 
HETATM   12  C           1      -1.331  34.801  51.660  0.00  0.00     0.036 C 
HETATM   13  H           1      -5.163  35.972  54.174  0.00  0.00     0.163 HD
HETATM   14  H           1      -0.474  31.868  52.689  0.00  0.00     0.284 HD
HETATM   15  H           1       0.309  33.060  53.579  0.00  0.00     0.284 HD
ENDROOT
BRANCH   2  16
HETATM   16  S           1      -4.032  37.518  51.982  0.00  0.00    -0.125 SA
BRANCH  16  17
HETATM   17  C           1      -5.115  38.114  53.314  0.00  0.00     0.077 C 
BRANCH  17  18
HETATM   18  C           1      -6.483  38.478  52.715  0.00  0.00     0.010 C 
BRANCH  18  19
HETATM   19  C           1      -6.343  39.050  51.294  0.00  0.00    -0.004 C 
HETATM   20  C           1      -6.767  40.524  51.226  0.00  0.00     0.005 C 
ENDBRANCH  18  19
ENDBRANCH  17  18
ENDBRANCH  16  17
ENDBRANCH   2  16
BRANCH   2  21
HETATM   21  S           1      -4.417  34.547  51.337  0.00  0.00    -0.125 SA
BRANCH  21  22
HETATM   22  C           1      -5.400  35.603  50.231  0.00  0.00     0.077 C 
BRANCH  22  23
HETATM   23  C           1      -6.891  35.377  50.534  0.00  0.00     0.010 C 
BRANCH  23  24
HETATM   24  C           1      -7.091  34.315  51.626  0.00  0.00    -0.004 C 
HETATM   25  C           1      -7.767  34.901  52.874  0.00  0.00     0.005 C 
ENDBRANCH  23  24
ENDBRANCH  22  23
ENDBRANCH  21  22
ENDBRANCH   2  21
BRANCH   3  26
HETATM   26  C           1      -0.907  34.834  54.745  0.00  0.00     0.105 C 
HETATM   27  N           1      -0.490  34.598  55.800  0.00  0.00    -0.151 N 
ENDBRANCH   3  26
BRANCH   1  28
HETATM   28  N           1      -3.715  34.758  55.931  0.00  0.00    -0.388 N 
HETATM   29  H           1      -2.951  34.617  56.636  0.00  0.00     0.157 HD
HETATM   30  H           1      -4.712  34.687  56.253  0.00  0.00     0.157 HD
ENDBRANCH   1  28
BRANCH   7  31
HETATM   31  C           1      -3.014  32.244  53.111  0.00  0.00    -0.026 A 
HETATM   32  C           1      -2.925  31.638  51.911  0.00  0.00     0.009 A 
HETATM   33  C           1      -3.938  30.919  51.405  0.00  0.00     0.001 A 
HETATM   34  C           1      -5.077  30.773  52.099  0.00  0.00     0.000 A 
HETATM   35  C           1      -5.183  31.349  53.305  0.00  0.00     0.001 A 
HETATM   36  C           1      -4.159  32.063  53.798  0.00  0.00     0.009 A 
ENDBRANCH   7  31
TORSDOF 11
ENDMDL
MODEL 10
REMARK VINA RESULT:      -5.0      2.410      5.323
REMARK  11 active torsions:
REMARK  status: ('A' for Active; 'I' for Inactive)
REMARK    1  A    between atoms: C_1  and  C_17 
REMARK    2  A    between atoms: C_1  and  S_18 
REMARK    3  A    between atoms: C_2  and  N_23 
REMARK    4  A    between atoms: C_3  and  C_13 
REMARK    5  A    between atoms: C_6  and  S_18 
REMARK    6  A    between atoms: C_6  and  S_19 
REMARK    7  A    between atoms: C_7  and  C_20 
REMARK    8  A    between atoms: C_7  and  C_21 
REMARK    9  A    between atoms: C_9  and  C_24 
REMARK   10  A    between atoms: C_16  and  C_17 
REMARK   11  A    between atoms: S_19  and  C_20 
ROOT
HETATM    1  C           1       6.093  34.563  62.043  0.00  0.00     0.092 C 
HETATM    2  C           1       4.947  36.673  61.933  0.00  0.00     0.156 C 
HETATM    3  C           1       4.634  34.220  61.904  0.00  0.00     0.127 C 
HETATM    4  C           1       3.987  35.542  61.416  0.00  0.00     0.136 C 
HETATM    5  C           1       3.969  35.548  59.919  0.00  0.00     0.079 C 
HETATM    6  N           1       3.924  35.431  58.766  0.00  0.00    -0.196 NA
HETATM    7  C           1       3.868  33.547  63.129  0.00  0.00     0.248 C 
HETATM    8  C           1       1.799  34.523  62.309  0.00  0.00     0.105 C 
HETATM    9  N           1       6.243  35.859  62.063  0.00  0.00    -0.350 N 
HETATM   10  N           1       2.375  33.275  62.779  0.00  0.00    -0.040 N 
HETATM   11  C           1       0.306  34.648  62.500  0.00  0.00     0.075 C 
HETATM   12  C           1       2.512  35.544  61.783  0.00  0.00     0.036 C 
HETATM   13  H           1       7.167  36.302  62.151  0.00  0.00     0.163 HD
HETATM   14  H           1       1.891  33.001  63.665  0.00  0.00     0.284 HD
HETATM   15  H           1       2.231  32.506  62.095  0.00  0.00     0.284 HD
ENDROOT
BRANCH   2  16
HETATM   16  S           1       5.279  37.990  60.715  0.00  0.00    -0.125 SA
BRANCH  16  17
HETATM   17  C           1       4.054  39.264  61.139  0.00  0.00     0.077 C 
BRANCH  17  18
HETATM   18  C           1       2.839  39.113  60.209  0.00  0.00     0.010 C 
BRANCH  18  19
HETATM   19  C           1       3.181  39.512  58.764  0.00  0.00    -0.004 C 
HETATM   20  C           1       2.552  38.555  57.742  0.00  0.00     0.005 C 
ENDBRANCH  18  19
ENDBRANCH  17  18
ENDBRANCH  16  17
ENDBRANCH   2  16
BRANCH   2  21
HETATM   21  S           1       4.392  37.276  63.560  0.00  0.00    -0.125 SA
BRANCH  21  22
HETATM   22  C           1       5.963  37.852  64.273  0.00  0.00     0.077 C 
BRANCH  22  23
HETATM   23  C           1       5.996  39.388  64.212  0.00  0.00     0.010 C 
BRANCH  23  24
HETATM   24  C           1       7.357  39.906  63.721  0.00  0.00    -0.004 C 
HETATM   25  C           1       7.212  40.812  62.491  0.00  0.00     0.005 C 
ENDBRANCH  23  24
ENDBRANCH  22  23
ENDBRANCH  21  22
ENDBRANCH   2  21
BRANCH   3  26
HETATM   26  C           1       4.296  33.134  60.944  0.00  0.00     0.105 C 
HETATM   27  N           1       4.873  32.309  60.370  0.00  0.00    -0.151 N 
ENDBRANCH   3  26
BRANCH   1  28
HETATM   28  N           1       7.039  33.725  62.138  0.00  0.00    -0.388 N 
HETATM   29  H           1       8.012  33.971  61.830  0.00  0.00     0.157 HD
HETATM   30  H           1       6.863  32.763  62.520  0.00  0.00     0.157 HD
ENDBRANCH   1  28
BRANCH   7  31
HETATM   31  C           1       4.042  34.207  64.494  0.00  0.00    -0.026 A 
HETATM   32  C           1       3.036  34.786  65.177  0.00  0.00     0.009 A 
HETATM   33  C           1       3.229  35.344  66.382  0.00  0.00     0.001 A 
HETATM   34  C           1       4.444  35.327  66.948  0.00  0.00     0.000 A 
HETATM   35  C           1       5.458  34.739  66.298  0.00  0.00     0.001 A 
HETATM   36  C           1       5.248  34.183  65.094  0.00  0.00     0.009 A 
ENDBRANCH   7  31
TORSDOF 11
ENDMDL
