MODEL 1
REMARK VINA RESULT:      -9.5      0.000      0.000
REMARK  8 active torsions:
REMARK  status: ('A' for Active; 'I' for Inactive)
REMARK    1  A    between atoms: C_4  and  N_5 
REMARK    2  A    between atoms: C_7  and  C_8 
REMARK    3  A    between atoms: C_8  and  N_9 
REMARK       I    between atoms: N_9  and  C_10 
REMARK       I    between atoms: C_10  and  N_11 
REMARK    4  A    between atoms: N_11  and  C_12 
REMARK    5  A    between atoms: C_12  and  C_13 
REMARK    6  A    between atoms: C_13  and  N_14 
REMARK       I    between atoms: N_14  and  C_15 
REMARK    7  A    between atoms: C_15  and  C_16 
REMARK    8  A    between atoms: C_17  and  O_18 
ROOT
HETATM    1  N   UNL     1       7.595  27.538  55.545  1.00  0.00    -0.337 N 
HETATM    2  C   UNL     1       6.506  26.863  55.085  1.00  0.00     0.316 C 
HETATM    3  N   UNL     1       6.244  27.149  53.773  1.00  0.00    -0.342 N 
HETATM    4  O   UNL     1       5.839  26.097  55.767  1.00  0.00    -0.248 OA
HETATM    5  H   UNL     1       8.268  27.893  54.879  1.00  0.00     0.164 HD
HETATM    6  H   UNL     1       6.607  28.021  53.419  1.00  0.00     0.164 HD
ENDROOT
BRANCH   1   7
HETATM    7  C   UNL     1       8.132  27.244  56.854  1.00  0.00     0.185 C 
BRANCH   7   8
HETATM    8  C   UNL     1       8.636  28.498  57.502  1.00  0.00     0.074 A 
HETATM    9  N   UNL     1       8.039  29.030  58.580  1.00  0.00    -0.171 NA
HETATM   10  N   UNL     1       8.778  30.130  58.891  1.00  0.00    -0.245 N 
HETATM   11  C   UNL     1       9.799  30.312  57.983  1.00  0.00     0.121 A 
HETATM   12  C   UNL     1       9.736  29.276  57.085  1.00  0.00     0.050 A 
BRANCH  10  13
HETATM   13  C   UNL     1       8.467  30.924  60.031  1.00  0.00     0.058 A 
HETATM   14  C   UNL     1       7.449  31.887  59.945  1.00  0.00     0.031 A 
HETATM   15  C   UNL     1       7.119  32.666  61.056  1.00  0.00     0.002 A 
HETATM   16  C   UNL     1       7.801  32.493  62.258  1.00  0.00     0.000 A 
HETATM   17  C   UNL     1       8.815  31.541  62.352  1.00  0.00     0.002 A 
HETATM   18  C   UNL     1       9.150  30.756  61.244  1.00  0.00     0.031 A 
ENDBRANCH  10  13
ENDBRANCH   7   8
ENDBRANCH   1   7
BRANCH   3  19
HETATM   19  C   UNL     1       5.072  26.603  53.109  1.00  0.00     0.144 C 
BRANCH  19  20
HETATM   20  C   UNL     1       5.433  25.534  52.070  1.00  0.00     0.142 C 
BRANCH  20  21
HETATM   21  N   UNL     1       5.865  24.282  52.681  1.00  0.00    -0.355 N 
HETATM   22  C   UNL     1       7.201  24.013  52.881  1.00  0.00     0.254 C 
HETATM   23  O   UNL     1       8.093  24.792  52.551  1.00  0.00    -0.268 OA
HETATM   24  H   UNL     1       5.149  23.705  53.098  1.00  0.00     0.162 HD
BRANCH  22  25
HETATM   25  C   UNL     1       7.570  22.733  53.552  1.00  0.00     0.065 A 
HETATM   26  C   UNL     1       7.454  22.629  54.948  1.00  0.00     0.081 A 
HETATM   27  C   UNL     1       7.787  21.447  55.608  1.00  0.00     0.037 A 
HETATM   28  C   UNL     1       8.257  20.356  54.882  1.00  0.00     0.003 A 
HETATM   29  C   UNL     1       8.398  20.448  53.498  1.00  0.00     0.001 A 
HETATM   30  C   UNL     1       8.061  21.631  52.833  1.00  0.00     0.020 A 
BRANCH  26  31
HETATM   31  O   UNL     1       7.019  23.656  55.746  1.00  0.00    -0.360 OA
HETATM   32  H   UNL     1       6.880  24.444  55.171  1.00  0.00     0.217 HD
ENDBRANCH  26  31
ENDBRANCH  22  25
ENDBRANCH  20  21
ENDBRANCH  19  20
ENDBRANCH   3  19
TORSDOF 8
ENDMDL
MODEL 2
REMARK VINA RESULT:      -9.5      2.916      8.769
REMARK  8 active torsions:
REMARK  status: ('A' for Active; 'I' for Inactive)
REMARK    1  A    between atoms: C_4  and  N_5 
REMARK    2  A    between atoms: C_7  and  C_8 
REMARK    3  A    between atoms: C_8  and  N_9 
REMARK       I    between atoms: N_9  and  C_10 
REMARK       I    between atoms: C_10  and  N_11 
REMARK    4  A    between atoms: N_11  and  C_12 
REMARK    5  A    between atoms: C_12  and  C_13 
REMARK    6  A    between atoms: C_13  and  N_14 
REMARK       I    between atoms: N_14  and  C_15 
REMARK    7  A    between atoms: C_15  and  C_16 
REMARK    8  A    between atoms: C_17  and  O_18 
ROOT
HETATM    1  N   UNL     1       4.733  27.910  56.851  1.00  0.00    -0.337 N 
HETATM    2  C   UNL     1       4.521  29.255  56.883  1.00  0.00     0.316 C 
HETATM    3  N   UNL     1       4.301  29.707  58.155  1.00  0.00    -0.342 N 
HETATM    4  O   UNL     1       4.521  29.970  55.890  1.00  0.00    -0.248 OA
HETATM    5  H   UNL     1       5.028  27.441  57.696  1.00  0.00     0.164 HD
HETATM    6  H   UNL     1       3.974  29.029  58.826  1.00  0.00     0.164 HD
ENDROOT
BRANCH   1   7
HETATM    7  C   UNL     1       5.148  27.270  55.624  1.00  0.00     0.185 C 
BRANCH   7   8
HETATM    8  C   UNL     1       5.955  26.044  55.925  1.00  0.00     0.074 A 
HETATM    9  N   UNL     1       6.110  25.057  55.029  1.00  0.00    -0.171 NA
HETATM   10  N   UNL     1       6.909  24.140  55.641  1.00  0.00    -0.245 N 
HETATM   11  C   UNL     1       7.207  24.528  56.930  1.00  0.00     0.121 A 
HETATM   12  C   UNL     1       6.615  25.749  57.137  1.00  0.00     0.050 A 
BRANCH  10  13
HETATM   13  C   UNL     1       7.335  22.966  54.958  1.00  0.00     0.058 A 
HETATM   14  C   UNL     1       7.470  22.992  53.561  1.00  0.00     0.031 A 
HETATM   15  C   UNL     1       7.901  21.855  52.873  1.00  0.00     0.002 A 
HETATM   16  C   UNL     1       8.197  20.687  53.571  1.00  0.00     0.000 A 
HETATM   17  C   UNL     1       8.063  20.651  54.958  1.00  0.00     0.002 A 
HETATM   18  C   UNL     1       7.634  21.787  55.654  1.00  0.00     0.031 A 
ENDBRANCH  10  13
ENDBRANCH   7   8
ENDBRANCH   1   7
BRANCH   3  19
HETATM   19  C   UNL     1       3.965  31.099  58.405  1.00  0.00     0.144 C 
BRANCH  19  20
HETATM   20  C   UNL     1       5.204  31.959  58.682  1.00  0.00     0.142 C 
BRANCH  20  21
HETATM   21  N   UNL     1       6.413  31.413  58.075  1.00  0.00    -0.355 N 
HETATM   22  C   UNL     1       7.492  31.043  58.847  1.00  0.00     0.254 C 
HETATM   23  O   UNL     1       7.505  31.162  60.071  1.00  0.00    -0.268 OA
HETATM   24  H   UNL     1       6.362  31.164  57.098  1.00  0.00     0.162 HD
BRANCH  22  25
HETATM   25  C   UNL     1       8.678  30.450  58.165  1.00  0.00     0.065 A 
HETATM   26  C   UNL     1       9.903  31.137  58.194  1.00  0.00     0.081 A 
HETATM   27  C   UNL     1      11.033  30.610  57.569  1.00  0.00     0.037 A 
HETATM   28  C   UNL     1      10.950  29.397  56.892  1.00  0.00     0.003 A 
HETATM   29  C   UNL     1       9.737  28.712  56.835  1.00  0.00     0.001 A 
HETATM   30  C   UNL     1       8.602  29.235  57.465  1.00  0.00     0.020 A 
BRANCH  26  31
HETATM   31  O   UNL     1      10.075  32.345  58.819  1.00  0.00    -0.360 OA
HETATM   32  H   UNL     1       9.310  32.918  58.579  1.00  0.00     0.217 HD
ENDBRANCH  26  31
ENDBRANCH  22  25
ENDBRANCH  20  21
ENDBRANCH  19  20
ENDBRANCH   3  19
TORSDOF 8
ENDMDL
MODEL 3
REMARK VINA RESULT:      -9.4      2.785      9.640
REMARK  8 active torsions:
REMARK  status: ('A' for Active; 'I' for Inactive)
REMARK    1  A    between atoms: C_4  and  N_5 
REMARK    2  A    between atoms: C_7  and  C_8 
REMARK    3  A    between atoms: C_8  and  N_9 
REMARK       I    between atoms: N_9  and  C_10 
REMARK       I    between atoms: C_10  and  N_11 
REMARK    4  A    between atoms: N_11  and  C_12 
REMARK    5  A    between atoms: C_12  and  C_13 
REMARK    6  A    between atoms: C_13  and  N_14 
REMARK       I    between atoms: N_14  and  C_15 
REMARK    7  A    between atoms: C_15  and  C_16 
REMARK    8  A    between atoms: C_17  and  O_18 
ROOT
HETATM    1  N   UNL     1       4.599  26.995  56.719  1.00  0.00    -0.337 N 
HETATM    2  C   UNL     1       4.957  28.295  56.904  1.00  0.00     0.316 C 
HETATM    3  N   UNL     1       3.928  29.153  56.632  1.00  0.00    -0.342 N 
HETATM    4  O   UNL     1       6.071  28.652  57.266  1.00  0.00    -0.248 OA
HETATM    5  H   UNL     1       3.618  26.751  56.731  1.00  0.00     0.164 HD
HETATM    6  H   UNL     1       3.201  28.808  56.022  1.00  0.00     0.164 HD
ENDROOT
BRANCH   1   7
HETATM    7  C   UNL     1       5.494  25.932  57.116  1.00  0.00     0.185 C 
BRANCH   7   8
HETATM    8  C   UNL     1       5.949  25.161  55.914  1.00  0.00     0.074 A 
HETATM    9  N   UNL     1       6.628  24.007  56.024  1.00  0.00    -0.171 NA
HETATM   10  N   UNL     1       6.845  23.597  54.745  1.00  0.00    -0.245 N 
HETATM   11  C   UNL     1       6.350  24.513  53.841  1.00  0.00     0.121 A 
HETATM   12  C   UNL     1       5.763  25.523  54.564  1.00  0.00     0.050 A 
BRANCH  10  13
HETATM   13  C   UNL     1       7.499  22.362  54.473  1.00  0.00     0.058 A 
HETATM   14  C   UNL     1       7.796  22.017  53.145  1.00  0.00     0.031 A 
HETATM   15  C   UNL     1       8.451  20.816  52.858  1.00  0.00     0.002 A 
HETATM   16  C   UNL     1       8.810  19.953  53.890  1.00  0.00     0.000 A 
HETATM   17  C   UNL     1       8.516  20.287  55.211  1.00  0.00     0.002 A 
HETATM   18  C   UNL     1       7.863  21.488  55.506  1.00  0.00     0.031 A 
ENDBRANCH  10  13
ENDBRANCH   7   8
ENDBRANCH   1   7
BRANCH   3  19
HETATM   19  C   UNL     1       4.122  30.593  56.679  1.00  0.00     0.144 C 
BRANCH  19  20
HETATM   20  C   UNL     1       3.829  31.176  58.067  1.00  0.00     0.142 C 
BRANCH  20  21
HETATM   21  N   UNL     1       4.960  31.049  58.979  1.00  0.00    -0.355 N 
HETATM   22  C   UNL     1       5.970  31.986  58.993  1.00  0.00     0.254 C 
HETATM   23  O   UNL     1       5.985  32.959  58.241  1.00  0.00    -0.268 OA
HETATM   24  H   UNL     1       4.889  30.351  59.704  1.00  0.00     0.162 HD
BRANCH  22  25
HETATM   25  C   UNL     1       7.074  31.819  59.982  1.00  0.00     0.065 A 
HETATM   26  C   UNL     1       8.020  30.797  59.792  1.00  0.00     0.081 A 
HETATM   27  C   UNL     1       9.066  30.615  60.694  1.00  0.00     0.037 A 
HETATM   28  C   UNL     1       9.173  31.441  61.810  1.00  0.00     0.003 A 
HETATM   29  C   UNL     1       8.231  32.446  62.025  1.00  0.00     0.001 A 
HETATM   30  C   UNL     1       7.182  32.635  61.119  1.00  0.00     0.020 A 
BRANCH  26  31
HETATM   31  O   UNL     1       7.984  29.925  58.734  1.00  0.00    -0.360 OA
HETATM   32  H   UNL     1       7.040  29.710  58.555  1.00  0.00     0.217 HD
ENDBRANCH  26  31
ENDBRANCH  22  25
ENDBRANCH  20  21
ENDBRANCH  19  20
ENDBRANCH   3  19
TORSDOF 8
ENDMDL
MODEL 4
REMARK VINA RESULT:      -9.4      2.946     10.721
REMARK  8 active torsions:
REMARK  status: ('A' for Active; 'I' for Inactive)
REMARK    1  A    between atoms: C_4  and  N_5 
REMARK    2  A    between atoms: C_7  and  C_8 
REMARK    3  A    between atoms: C_8  and  N_9 
REMARK       I    between atoms: N_9  and  C_10 
REMARK       I    between atoms: C_10  and  N_11 
REMARK    4  A    between atoms: N_11  and  C_12 
REMARK    5  A    between atoms: C_12  and  C_13 
REMARK    6  A    between atoms: C_13  and  N_14 
REMARK       I    between atoms: N_14  and  C_15 
REMARK    7  A    between atoms: C_15  and  C_16 
REMARK    8  A    between atoms: C_17  and  O_18 
ROOT
HETATM    1  N   UNL     1       6.202  27.576  56.733  1.00  0.00    -0.337 N 
HETATM    2  C   UNL     1       6.409  28.903  56.956  1.00  0.00     0.316 C 
HETATM    3  N   UNL     1       7.224  29.119  58.033  1.00  0.00    -0.342 N 
HETATM    4  O   UNL     1       5.919  29.795  56.277  1.00  0.00    -0.248 OA
HETATM    5  H   UNL     1       6.861  26.908  57.109  1.00  0.00     0.164 HD
HETATM    6  H   UNL     1       7.280  28.377  58.715  1.00  0.00     0.164 HD
ENDROOT
BRANCH   1   7
HETATM    7  C   UNL     1       5.508  27.141  55.543  1.00  0.00     0.185 C 
BRANCH   7   8
HETATM    8  C   UNL     1       6.359  26.182  54.767  1.00  0.00     0.074 A 
HETATM    9  N   UNL     1       6.489  24.895  55.128  1.00  0.00    -0.171 NA
HETATM   10  N   UNL     1       7.306  24.342  54.190  1.00  0.00    -0.245 N 
HETATM   11  C   UNL     1       7.724  25.289  53.279  1.00  0.00     0.121 A 
HETATM   12  C   UNL     1       7.125  26.477  53.621  1.00  0.00     0.050 A 
BRANCH  10  13
HETATM   13  C   UNL     1       7.626  22.955  54.222  1.00  0.00     0.058 A 
HETATM   14  C   UNL     1       7.603  22.270  55.446  1.00  0.00     0.031 A 
HETATM   15  C   UNL     1       7.899  20.906  55.497  1.00  0.00     0.002 A 
HETATM   16  C   UNL     1       8.222  20.218  54.330  1.00  0.00     0.000 A 
HETATM   17  C   UNL     1       8.251  20.891  53.110  1.00  0.00     0.002 A 
HETATM   18  C   UNL     1       7.953  22.257  53.051  1.00  0.00     0.031 A 
ENDBRANCH  10  13
ENDBRANCH   7   8
ENDBRANCH   1   7
BRANCH   3  19
HETATM   19  C   UNL     1       7.503  30.467  58.501  1.00  0.00     0.144 C 
BRANCH  19  20
HETATM   20  C   UNL     1       8.245  30.477  59.844  1.00  0.00     0.142 C 
BRANCH  20  21
HETATM   21  N   UNL     1       7.572  31.290  60.850  1.00  0.00    -0.355 N 
HETATM   22  C   UNL     1       7.931  31.218  62.178  1.00  0.00     0.254 C 
HETATM   23  O   UNL     1       8.815  30.468  62.589  1.00  0.00    -0.268 OA
HETATM   24  H   UNL     1       6.958  32.019  60.516  1.00  0.00     0.162 HD
BRANCH  22  25
HETATM   25  C   UNL     1       7.232  32.111  63.148  1.00  0.00     0.065 A 
HETATM   26  C   UNL     1       5.827  32.123  63.182  1.00  0.00     0.081 A 
HETATM   27  C   UNL     1       5.141  32.942  64.077  1.00  0.00     0.037 A 
HETATM   28  C   UNL     1       5.850  33.775  64.940  1.00  0.00     0.003 A 
HETATM   29  C   UNL     1       7.243  33.790  64.904  1.00  0.00     0.001 A 
HETATM   30  C   UNL     1       7.935  32.966  64.011  1.00  0.00     0.020 A 
BRANCH  26  31
HETATM   31  O   UNL     1       5.047  31.353  62.358  1.00  0.00    -0.360 OA
HETATM   32  H   UNL     1       4.840  30.518  62.836  1.00  0.00     0.217 HD
ENDBRANCH  26  31
ENDBRANCH  22  25
ENDBRANCH  20  21
ENDBRANCH  19  20
ENDBRANCH   3  19
TORSDOF 8
ENDMDL
MODEL 5
REMARK VINA RESULT:      -9.3      2.338      9.830
REMARK  8 active torsions:
REMARK  status: ('A' for Active; 'I' for Inactive)
REMARK    1  A    between atoms: C_4  and  N_5 
REMARK    2  A    between atoms: C_7  and  C_8 
REMARK    3  A    between atoms: C_8  and  N_9 
REMARK       I    between atoms: N_9  and  C_10 
REMARK       I    between atoms: C_10  and  N_11 
REMARK    4  A    between atoms: N_11  and  C_12 
REMARK    5  A    between atoms: C_12  and  C_13 
REMARK    6  A    between atoms: C_13  and  N_14 
REMARK       I    between atoms: N_14  and  C_15 
REMARK    7  A    between atoms: C_15  and  C_16 
REMARK    8  A    between atoms: C_17  and  O_18 
ROOT
HETATM    1  N   UNL     1       4.725  26.943  54.404  1.00  0.00    -0.337 N 
HETATM    2  C   UNL     1       5.452  28.071  54.630  1.00  0.00     0.316 C 
HETATM    3  N   UNL     1       5.469  28.411  55.955  1.00  0.00    -0.342 N 
HETATM    4  O   UNL     1       6.017  28.707  53.751  1.00  0.00    -0.248 OA
HETATM    5  H   UNL     1       4.557  26.307  55.172  1.00  0.00     0.164 HD
HETATM    6  H   UNL     1       4.715  28.055  56.523  1.00  0.00     0.164 HD
ENDROOT
BRANCH   1   7
HETATM    7  C   UNL     1       4.726  26.329  53.096  1.00  0.00     0.185 C 
BRANCH   7   8
HETATM    8  C   UNL     1       5.905  25.415  52.952  1.00  0.00     0.074 A 
HETATM    9  N   UNL     1       6.053  24.320  53.715  1.00  0.00    -0.171 NA
HETATM   10  N   UNL     1       7.209  23.742  53.290  1.00  0.00    -0.245 N 
HETATM   11  C   UNL     1       7.806  24.498  52.303  1.00  0.00     0.121 A 
HETATM   12  C   UNL     1       6.987  25.573  52.062  1.00  0.00     0.050 A 
BRANCH  10  13
HETATM   13  C   UNL     1       7.660  22.511  53.845  1.00  0.00     0.058 A 
HETATM   14  C   UNL     1       7.627  22.327  55.236  1.00  0.00     0.031 A 
HETATM   15  C   UNL     1       8.052  21.122  55.799  1.00  0.00     0.002 A 
HETATM   16  C   UNL     1       8.514  20.094  54.981  1.00  0.00     0.000 A 
HETATM   17  C   UNL     1       8.554  20.268  53.599  1.00  0.00     0.002 A 
HETATM   18  C   UNL     1       8.128  21.472  53.028  1.00  0.00     0.031 A 
ENDBRANCH  10  13
ENDBRANCH   7   8
ENDBRANCH   1   7
BRANCH   3  19
HETATM   19  C   UNL     1       6.114  29.634  56.404  1.00  0.00     0.144 C 
BRANCH  19  20
HETATM   20  C   UNL     1       7.211  29.368  57.443  1.00  0.00     0.142 C 
BRANCH  20  21
HETATM   21  N   UNL     1       7.055  30.180  58.644  1.00  0.00    -0.355 N 
HETATM   22  C   UNL     1       8.118  30.411  59.489  1.00  0.00     0.254 C 
HETATM   23  O   UNL     1       9.238  29.943  59.292  1.00  0.00    -0.268 OA
HETATM   24  H   UNL     1       6.193  30.697  58.739  1.00  0.00     0.162 HD
BRANCH  22  25
HETATM   25  C   UNL     1       7.899  31.289  60.675  1.00  0.00     0.065 A 
HETATM   26  C   UNL     1       8.432  30.910  61.919  1.00  0.00     0.081 A 
HETATM   27  C   UNL     1       8.250  31.708  63.047  1.00  0.00     0.037 A 
HETATM   28  C   UNL     1       7.517  32.888  62.953  1.00  0.00     0.003 A 
HETATM   29  C   UNL     1       6.963  33.268  61.731  1.00  0.00     0.001 A 
HETATM   30  C   UNL     1       7.148  32.472  60.595  1.00  0.00     0.020 A 
BRANCH  26  31
HETATM   31  O   UNL     1       9.149  29.758  62.111  1.00  0.00    -0.360 OA
HETATM   32  H   UNL     1       9.127  29.246  61.270  1.00  0.00     0.217 HD
ENDBRANCH  26  31
ENDBRANCH  22  25
ENDBRANCH  20  21
ENDBRANCH  19  20
ENDBRANCH   3  19
TORSDOF 8
ENDMDL
MODEL 6
REMARK VINA RESULT:      -9.3      2.835      9.814
REMARK  8 active torsions:
REMARK  status: ('A' for Active; 'I' for Inactive)
REMARK    1  A    between atoms: C_4  and  N_5 
REMARK    2  A    between atoms: C_7  and  C_8 
REMARK    3  A    between atoms: C_8  and  N_9 
REMARK       I    between atoms: N_9  and  C_10 
REMARK       I    between atoms: C_10  and  N_11 
REMARK    4  A    between atoms: N_11  and  C_12 
REMARK    5  A    between atoms: C_12  and  C_13 
REMARK    6  A    between atoms: C_13  and  N_14 
REMARK       I    between atoms: N_14  and  C_15 
REMARK    7  A    between atoms: C_15  and  C_16 
REMARK    8  A    between atoms: C_17  and  O_18 
ROOT
HETATM    1  N   UNL     1       6.126  27.981  57.038  1.00  0.00    -0.337 N 
HETATM    2  C   UNL     1       5.440  29.145  56.875  1.00  0.00     0.316 C 
HETATM    3  N   UNL     1       4.568  29.373  57.904  1.00  0.00    -0.342 N 
HETATM    4  O   UNL     1       5.583  29.894  55.917  1.00  0.00    -0.248 OA
HETATM    5  H   UNL     1       6.199  27.581  57.964  1.00  0.00     0.164 HD
HETATM    6  H   UNL     1       4.271  28.566  58.432  1.00  0.00     0.164 HD
ENDROOT
BRANCH   1   7
HETATM    7  C   UNL     1       7.212  27.647  56.145  1.00  0.00     0.185 C 
BRANCH   7   8
HETATM    8  C   UNL     1       7.615  26.215  56.329  1.00  0.00     0.074 A 
HETATM    9  N   UNL     1       7.418  25.293  55.373  1.00  0.00    -0.171 NA
HETATM   10  N   UNL     1       7.921  24.136  55.884  1.00  0.00    -0.245 N 
HETATM   11  C   UNL     1       8.382  24.323  57.170  1.00  0.00     0.121 A 
HETATM   12  C   UNL     1       8.205  25.649  57.478  1.00  0.00     0.050 A 
BRANCH  10  13
HETATM   13  C   UNL     1       7.934  22.939  55.114  1.00  0.00     0.058 A 
HETATM   14  C   UNL     1       7.891  21.697  55.766  1.00  0.00     0.031 A 
HETATM   15  C   UNL     1       7.889  20.512  55.028  1.00  0.00     0.002 A 
HETATM   16  C   UNL     1       7.932  20.556  53.636  1.00  0.00     0.000 A 
HETATM   17  C   UNL     1       7.978  21.785  52.979  1.00  0.00     0.002 A 
HETATM   18  C   UNL     1       7.978  22.976  53.713  1.00  0.00     0.031 A 
ENDBRANCH  10  13
ENDBRANCH   7   8
ENDBRANCH   1   7
BRANCH   3  19
HETATM   19  C   UNL     1       3.671  30.516  57.884  1.00  0.00     0.144 C 
BRANCH  19  20
HETATM   20  C   UNL     1       4.412  31.844  58.086  1.00  0.00     0.142 C 
BRANCH  20  21
HETATM   21  N   UNL     1       5.024  31.949  59.405  1.00  0.00    -0.355 N 
HETATM   22  C   UNL     1       6.390  32.054  59.548  1.00  0.00     0.254 C 
HETATM   23  O   UNL     1       7.162  32.050  58.591  1.00  0.00    -0.268 OA
HETATM   24  H   UNL     1       4.405  32.111  60.186  1.00  0.00     0.162 HD
BRANCH  22  25
HETATM   25  C   UNL     1       6.946  32.204  60.924  1.00  0.00     0.065 A 
HETATM   26  C   UNL     1       7.860  31.251  61.405  1.00  0.00     0.081 A 
HETATM   27  C   UNL     1       8.401  31.362  62.685  1.00  0.00     0.037 A 
HETATM   28  C   UNL     1       8.024  32.419  63.509  1.00  0.00     0.003 A 
HETATM   29  C   UNL     1       7.103  33.361  63.056  1.00  0.00     0.001 A 
HETATM   30  C   UNL     1       6.561  33.256  61.771  1.00  0.00     0.020 A 
BRANCH  26  31
HETATM   31  O   UNL     1       8.274  30.168  60.673  1.00  0.00    -0.360 OA
HETATM   32  H   UNL     1       7.518  29.880  60.111  1.00  0.00     0.217 HD
ENDBRANCH  26  31
ENDBRANCH  22  25
ENDBRANCH  20  21
ENDBRANCH  19  20
ENDBRANCH   3  19
TORSDOF 8
ENDMDL
MODEL 7
REMARK VINA RESULT:      -9.2      2.010      3.126
REMARK  8 active torsions:
REMARK  status: ('A' for Active; 'I' for Inactive)
REMARK    1  A    between atoms: C_4  and  N_5 
REMARK    2  A    between atoms: C_7  and  C_8 
REMARK    3  A    between atoms: C_8  and  N_9 
REMARK       I    between atoms: N_9  and  C_10 
REMARK       I    between atoms: C_10  and  N_11 
REMARK    4  A    between atoms: N_11  and  C_12 
REMARK    5  A    between atoms: C_12  and  C_13 
REMARK    6  A    between atoms: C_13  and  N_14 
REMARK       I    between atoms: N_14  and  C_15 
REMARK    7  A    between atoms: C_15  and  C_16 
REMARK    8  A    between atoms: C_17  and  O_18 
ROOT
HETATM    1  N   UNL     1       6.887  29.764  58.101  1.00  0.00    -0.337 N 
HETATM    2  C   UNL     1       7.168  28.462  57.816  1.00  0.00     0.316 C 
HETATM    3  N   UNL     1       6.044  27.757  57.489  1.00  0.00    -0.342 N 
HETATM    4  O   UNL     1       8.293  27.982  57.856  1.00  0.00    -0.248 OA
HETATM    5  H   UNL     1       6.026  30.165  57.755  1.00  0.00     0.164 HD
HETATM    6  H   UNL     1       5.165  28.125  57.822  1.00  0.00     0.164 HD
ENDROOT
BRANCH   1   7
HETATM    7  C   UNL     1       7.960  30.710  58.305  1.00  0.00     0.185 C 
BRANCH   7   8
HETATM    8  C   UNL     1       8.174  30.943  59.770  1.00  0.00     0.074 A 
HETATM    9  N   UNL     1       7.318  31.668  60.507  1.00  0.00    -0.171 NA
HETATM   10  N   UNL     1       7.823  31.641  61.771  1.00  0.00    -0.245 N 
HETATM   11  C   UNL     1       9.013  30.948  61.813  1.00  0.00     0.121 A 
HETATM   12  C   UNL     1       9.259  30.483  60.544  1.00  0.00     0.050 A 
BRANCH  10  13
HETATM   13  C   UNL     1       7.136  32.269  62.848  1.00  0.00     0.058 A 
HETATM   14  C   UNL     1       7.873  32.869  63.881  1.00  0.00     0.031 A 
HETATM   15  C   UNL     1       7.218  33.503  64.940  1.00  0.00     0.002 A 
HETATM   16  C   UNL     1       5.827  33.541  64.977  1.00  0.00     0.000 A 
HETATM   17  C   UNL     1       5.086  32.945  63.958  1.00  0.00     0.002 A 
HETATM   18  C   UNL     1       5.735  32.311  62.893  1.00  0.00     0.031 A 
ENDBRANCH  10  13
ENDBRANCH   7   8
ENDBRANCH   1   7
BRANCH   3  19
HETATM   19  C   UNL     1       6.106  26.326  57.236  1.00  0.00     0.144 C 
BRANCH  19  20
HETATM   20  C   UNL     1       6.269  26.003  55.746  1.00  0.00     0.142 C 
BRANCH  20  21
HETATM   21  N   UNL     1       6.621  24.608  55.510  1.00  0.00    -0.355 N 
HETATM   22  C   UNL     1       7.489  24.255  54.500  1.00  0.00     0.254 C 
HETATM   23  O   UNL     1       7.998  25.079  53.742  1.00  0.00    -0.268 OA
HETATM   24  H   UNL     1       6.341  23.939  56.212  1.00  0.00     0.162 HD
BRANCH  22  25
HETATM   25  C   UNL     1       7.841  22.814  54.343  1.00  0.00     0.065 A 
HETATM   26  C   UNL     1       8.209  22.069  55.476  1.00  0.00     0.081 A 
HETATM   27  C   UNL     1       8.542  20.720  55.366  1.00  0.00     0.037 A 
HETATM   28  C   UNL     1       8.528  20.099  54.120  1.00  0.00     0.003 A 
HETATM   29  C   UNL     1       8.186  20.830  52.983  1.00  0.00     0.001 A 
HETATM   30  C   UNL     1       7.847  22.183  53.089  1.00  0.00     0.020 A 
BRANCH  26  31
HETATM   31  O   UNL     1       8.270  22.599  56.739  1.00  0.00    -0.360 OA
HETATM   32  H   UNL     1       8.826  22.000  57.289  1.00  0.00     0.217 HD
ENDBRANCH  26  31
ENDBRANCH  22  25
ENDBRANCH  20  21
ENDBRANCH  19  20
ENDBRANCH   3  19
TORSDOF 8
ENDMDL
MODEL 8
REMARK VINA RESULT:      -9.0      2.521      9.848
REMARK  8 active torsions:
REMARK  status: ('A' for Active; 'I' for Inactive)
REMARK    1  A    between atoms: C_4  and  N_5 
REMARK    2  A    between atoms: C_7  and  C_8 
REMARK    3  A    between atoms: C_8  and  N_9 
REMARK       I    between atoms: N_9  and  C_10 
REMARK       I    between atoms: C_10  and  N_11 
REMARK    4  A    between atoms: N_11  and  C_12 
REMARK    5  A    between atoms: C_12  and  C_13 
REMARK    6  A    between atoms: C_13  and  N_14 
REMARK       I    between atoms: N_14  and  C_15 
REMARK    7  A    between atoms: C_15  and  C_16 
REMARK    8  A    between atoms: C_17  and  O_18 
ROOT
HETATM    1  N   UNL     1       7.231  28.160  55.374  1.00  0.00    -0.337 N 
HETATM    2  C   UNL     1       6.070  28.833  55.602  1.00  0.00     0.316 C 
HETATM    3  N   UNL     1       5.966  29.246  56.902  1.00  0.00    -0.342 N 
HETATM    4  O   UNL     1       5.219  29.038  54.747  1.00  0.00    -0.248 OA
HETATM    5  H   UNL     1       8.007  28.295  56.007  1.00  0.00     0.164 HD
HETATM    6  H   UNL     1       6.515  28.742  57.582  1.00  0.00     0.164 HD
ENDROOT
BRANCH   1   7
HETATM    7  C   UNL     1       7.602  27.790  54.027  1.00  0.00     0.185 C 
BRANCH   7   8
HETATM    8  C   UNL     1       7.129  26.402  53.721  1.00  0.00     0.074 A 
HETATM    9  N   UNL     1       7.801  25.315  54.135  1.00  0.00    -0.171 NA
HETATM   10  N   UNL     1       7.070  24.255  53.694  1.00  0.00    -0.245 N 
HETATM   11  C   UNL     1       5.977  24.676  52.966  1.00  0.00     0.121 A 
HETATM   12  C   UNL     1       5.987  26.049  52.973  1.00  0.00     0.050 A 
BRANCH  10  13
HETATM   13  C   UNL     1       7.456  22.920  54.002  1.00  0.00     0.058 A 
HETATM   14  C   UNL     1       7.840  22.055  52.965  1.00  0.00     0.031 A 
HETATM   15  C   UNL     1       8.236  20.746  53.247  1.00  0.00     0.002 A 
HETATM   16  C   UNL     1       8.251  20.290  54.563  1.00  0.00     0.000 A 
HETATM   17  C   UNL     1       7.869  21.140  55.599  1.00  0.00     0.002 A 
HETATM   18  C   UNL     1       7.472  22.453  55.324  1.00  0.00     0.031 A 
ENDBRANCH  10  13
ENDBRANCH   7   8
ENDBRANCH   1   7
BRANCH   3  19
HETATM   19  C   UNL     1       4.763  29.906  57.383  1.00  0.00     0.144 C 
BRANCH  19  20
HETATM   20  C   UNL     1       4.989  31.395  57.671  1.00  0.00     0.142 C 
BRANCH  20  21
HETATM   21  N   UNL     1       5.446  31.639  59.034  1.00  0.00    -0.355 N 
HETATM   22  C   UNL     1       6.789  31.702  59.333  1.00  0.00     0.254 C 
HETATM   23  O   UNL     1       7.667  31.546  58.486  1.00  0.00    -0.268 OA
HETATM   24  H   UNL     1       4.750  31.923  59.707  1.00  0.00     0.162 HD
BRANCH  22  25
HETATM   25  C   UNL     1       7.186  32.000  60.740  1.00  0.00     0.065 A 
HETATM   26  C   UNL     1       8.121  31.170  61.381  1.00  0.00     0.081 A 
HETATM   27  C   UNL     1       8.517  31.421  62.694  1.00  0.00     0.037 A 
HETATM   28  C   UNL     1       7.971  32.495  63.391  1.00  0.00     0.003 A 
HETATM   29  C   UNL     1       7.027  33.316  62.777  1.00  0.00     0.001 A 
HETATM   30  C   UNL     1       6.630  33.070  61.458  1.00  0.00     0.020 A 
BRANCH  26  31
HETATM   31  O   UNL     1       8.697  30.080  60.781  1.00  0.00    -0.360 OA
HETATM   32  H   UNL     1       9.623  30.319  60.549  1.00  0.00     0.217 HD
ENDBRANCH  26  31
ENDBRANCH  22  25
ENDBRANCH  20  21
ENDBRANCH  19  20
ENDBRANCH   3  19
TORSDOF 8
ENDMDL
MODEL 9
REMARK VINA RESULT:      -8.7      2.708      4.154
REMARK  8 active torsions:
REMARK  status: ('A' for Active; 'I' for Inactive)
REMARK    1  A    between atoms: C_4  and  N_5 
REMARK    2  A    between atoms: C_7  and  C_8 
REMARK    3  A    between atoms: C_8  and  N_9 
REMARK       I    between atoms: N_9  and  C_10 
REMARK       I    between atoms: C_10  and  N_11 
REMARK    4  A    between atoms: N_11  and  C_12 
REMARK    5  A    between atoms: C_12  and  C_13 
REMARK    6  A    between atoms: C_13  and  N_14 
REMARK       I    between atoms: N_14  and  C_15 
REMARK    7  A    between atoms: C_15  and  C_16 
REMARK    8  A    between atoms: C_17  and  O_18 
ROOT
HETATM    1  N   UNL     1       5.306  30.108  57.916  1.00  0.00    -0.337 N 
HETATM    2  C   UNL     1       6.337  29.309  57.525  1.00  0.00     0.316 C 
HETATM    3  N   UNL     1       5.922  28.033  57.263  1.00  0.00    -0.342 N 
HETATM    4  O   UNL     1       7.496  29.689  57.427  1.00  0.00    -0.248 OA
HETATM    5  H   UNL     1       4.361  29.838  57.680  1.00  0.00     0.164 HD
HETATM    6  H   UNL     1       5.062  27.737  57.701  1.00  0.00     0.164 HD
ENDROOT
BRANCH   1   7
HETATM    7  C   UNL     1       5.510  31.530  58.076  1.00  0.00     0.185 C 
BRANCH   7   8
HETATM    8  C   UNL     1       5.081  31.966  59.445  1.00  0.00     0.074 A 
HETATM    9  N   UNL     1       5.960  32.125  60.447  1.00  0.00    -0.171 NA
HETATM   10  N   UNL     1       5.218  32.541  61.510  1.00  0.00    -0.245 N 
HETATM   11  C   UNL     1       3.878  32.590  61.187  1.00  0.00     0.121 A 
HETATM   12  C   UNL     1       3.763  32.233  59.867  1.00  0.00     0.050 A 
BRANCH  10  13
HETATM   13  C   UNL     1       5.834  32.867  62.751  1.00  0.00     0.058 A 
HETATM   14  C   UNL     1       7.226  32.745  62.884  1.00  0.00     0.031 A 
HETATM   15  C   UNL     1       7.851  33.074  64.089  1.00  0.00     0.002 A 
HETATM   16  C   UNL     1       7.093  33.523  65.168  1.00  0.00     0.000 A 
HETATM   17  C   UNL     1       5.710  33.644  65.047  1.00  0.00     0.002 A 
HETATM   18  C   UNL     1       5.078  33.319  63.842  1.00  0.00     0.031 A 
ENDBRANCH  10  13
ENDBRANCH   7   8
ENDBRANCH   1   7
BRANCH   3  19
HETATM   19  C   UNL     1       6.878  26.993  56.917  1.00  0.00     0.144 C 
BRANCH  19  20
HETATM   20  C   UNL     1       6.408  25.600  57.351  1.00  0.00     0.142 C 
BRANCH  20  21
HETATM   21  N   UNL     1       6.614  24.591  56.318  1.00  0.00    -0.355 N 
HETATM   22  C   UNL     1       7.702  23.747  56.356  1.00  0.00     0.254 C 
HETATM   23  O   UNL     1       8.556  23.801  57.239  1.00  0.00    -0.268 OA
HETATM   24  H   UNL     1       5.850  24.427  55.678  1.00  0.00     0.162 HD
BRANCH  22  25
HETATM   25  C   UNL     1       7.827  22.709  55.292  1.00  0.00     0.065 A 
HETATM   26  C   UNL     1       8.088  21.377  55.658  1.00  0.00     0.081 A 
HETATM   27  C   UNL     1       8.208  20.381  54.690  1.00  0.00     0.037 A 
HETATM   28  C   UNL     1       8.086  20.704  53.341  1.00  0.00     0.003 A 
HETATM   29  C   UNL     1       7.849  22.024  52.960  1.00  0.00     0.001 A 
HETATM   30  C   UNL     1       7.723  23.026  53.929  1.00  0.00     0.020 A 
BRANCH  26  31
HETATM   31  O   UNL     1       8.242  20.970  56.958  1.00  0.00    -0.360 OA
HETATM   32  H   UNL     1       7.638  21.512  57.516  1.00  0.00     0.217 HD
ENDBRANCH  26  31
ENDBRANCH  22  25
ENDBRANCH  20  21
ENDBRANCH  19  20
ENDBRANCH   3  19
TORSDOF 8
ENDMDL
MODEL 10
REMARK VINA RESULT:      -8.7      3.678     10.797
REMARK  8 active torsions:
REMARK  status: ('A' for Active; 'I' for Inactive)
REMARK    1  A    between atoms: C_4  and  N_5 
REMARK    2  A    between atoms: C_7  and  C_8 
REMARK    3  A    between atoms: C_8  and  N_9 
REMARK       I    between atoms: N_9  and  C_10 
REMARK       I    between atoms: C_10  and  N_11 
REMARK    4  A    between atoms: N_11  and  C_12 
REMARK    5  A    between atoms: C_12  and  C_13 
REMARK    6  A    between atoms: C_13  and  N_14 
REMARK       I    between atoms: N_14  and  C_15 
REMARK    7  A    between atoms: C_15  and  C_16 
REMARK    8  A    between atoms: C_17  and  O_18 
ROOT
HETATM    1  N   UNL     1       6.340  28.584  57.188  1.00  0.00    -0.337 N 
HETATM    2  C   UNL     1       6.424  29.762  57.865  1.00  0.00     0.316 C 
HETATM    3  N   UNL     1       5.279  30.501  57.747  1.00  0.00    -0.342 N 
HETATM    4  O   UNL     1       7.409  30.119  58.497  1.00  0.00    -0.248 OA
HETATM    5  H   UNL     1       5.427  28.213  56.962  1.00  0.00     0.164 HD
HETATM    6  H   UNL     1       4.693  30.303  56.950  1.00  0.00     0.164 HD
ENDROOT
BRANCH   1   7
HETATM    7  C   UNL     1       7.381  27.591  57.329  1.00  0.00     0.185 C 
BRANCH   7   8
HETATM    8  C   UNL     1       7.461  26.745  56.094  1.00  0.00     0.074 A 
HETATM    9  N   UNL     1       7.895  25.474  56.131  1.00  0.00    -0.171 NA
HETATM   10  N   UNL     1       7.808  25.031  54.847  1.00  0.00    -0.245 N 
HETATM   11  C   UNL     1       7.372  26.033  54.006  1.00  0.00     0.121 A 
HETATM   12  C   UNL     1       7.136  27.142  54.781  1.00  0.00     0.050 A 
BRANCH  10  13
HETATM   13  C   UNL     1       8.138  23.687  54.512  1.00  0.00     0.058 A 
HETATM   14  C   UNL     1       7.648  23.133  53.318  1.00  0.00     0.031 A 
HETATM   15  C   UNL     1       7.972  21.821  52.965  1.00  0.00     0.002 A 
HETATM   16  C   UNL     1       8.782  21.054  53.798  1.00  0.00     0.000 A 
HETATM   17  C   UNL     1       9.270  21.594  54.986  1.00  0.00     0.002 A 
HETATM   18  C   UNL     1       8.952  22.908  55.346  1.00  0.00     0.031 A 
ENDBRANCH  10  13
ENDBRANCH   7   8
ENDBRANCH   1   7
BRANCH   3  19
HETATM   19  C   UNL     1       5.188  31.835  58.318  1.00  0.00     0.144 C 
BRANCH  19  20
HETATM   20  C   UNL     1       4.394  31.856  59.629  1.00  0.00     0.142 C 
BRANCH  20  21
HETATM   21  N   UNL     1       5.176  32.362  60.751  1.00  0.00    -0.355 N 
HETATM   22  C   UNL     1       4.755  32.181  62.051  1.00  0.00     0.254 C 
HETATM   23  O   UNL     1       3.707  31.604  62.336  1.00  0.00    -0.268 OA
HETATM   24  H   UNL     1       6.106  32.696  60.548  1.00  0.00     0.162 HD
BRANCH  22  25
HETATM   25  C   UNL     1       5.626  32.685  63.151  1.00  0.00     0.065 A 
HETATM   26  C   UNL     1       5.037  33.312  64.263  1.00  0.00     0.081 A 
HETATM   27  C   UNL     1       5.821  33.792  65.311  1.00  0.00     0.037 A 
HETATM   28  C   UNL     1       7.206  33.668  65.256  1.00  0.00     0.003 A 
HETATM   29  C   UNL     1       7.808  33.068  64.151  1.00  0.00     0.001 A 
HETATM   30  C   UNL     1       7.025  32.581  63.099  1.00  0.00     0.020 A 
BRANCH  26  31
HETATM   31  O   UNL     1       3.685  33.495  64.395  1.00  0.00    -0.360 OA
HETATM   32  H   UNL     1       3.290  33.472  63.493  1.00  0.00     0.217 HD
ENDBRANCH  26  31
ENDBRANCH  22  25
ENDBRANCH  20  21
ENDBRANCH  19  20
ENDBRANCH   3  19
TORSDOF 8
ENDMDL
