MODEL 1
REMARK VINA RESULT:      -9.6      0.000      0.000
REMARK  5 active torsions:
REMARK  status: ('A' for Active; 'I' for Inactive)
REMARK    1  A    between atoms: O_2  and  C_3 
REMARK    2  A    between atoms: C_4  and  N_5 
REMARK    3  A    between atoms: N_5  and  C_6 
REMARK    4  A    between atoms: C_6  and  C_7 
REMARK    5  A    between atoms: C_15  and  C_16 
ROOT
HETATM    1  C   UNL     1       7.414  26.780  55.352  1.00  0.00     0.120 A 
HETATM    2  N   UNL     1       7.663  25.749  56.098  1.00  0.00    -0.233 NA
HETATM    3  C   UNL     1       7.878  24.514  55.469  1.00  0.00     0.075 A 
HETATM    4  C   UNL     1       7.877  24.365  54.082  1.00  0.00     0.061 A 
HETATM    5  C   UNL     1       7.621  25.568  53.272  1.00  0.00     0.259 A 
HETATM    6  O   UNL     1       7.590  25.535  52.049  1.00  0.00    -0.267 OA
HETATM    7  N   UNL     1       7.404  26.721  53.979  1.00  0.00    -0.310 N 
HETATM    8  C   UNL     1       8.066  23.382  56.266  1.00  0.00     0.048 A 
HETATM    9  C   UNL     1       8.253  22.114  55.691  1.00  0.00     0.050 A 
HETATM   10  C   UNL     1       8.256  21.994  54.291  1.00  0.00     0.017 A 
HETATM   11  C   UNL     1       8.070  23.117  53.484  1.00  0.00     0.020 A 
HETATM   12  H   UNL     1       7.148  27.531  53.432  1.00  0.00     0.170 HD
ENDROOT
BRANCH   1  13
HETATM   13  C   UNL     1       7.096  28.142  55.960  1.00  0.00     0.171 C 
BRANCH  13  14
HETATM   14  N   UNL     1       7.585  28.270  57.348  1.00  0.00    -0.284 NA
HETATM   15  H   UNL     1       7.979  27.369  57.625  1.00  0.00     0.128 HD
BRANCH  14  16
HETATM   16  C   UNL     1       8.634  29.215  57.495  1.00  0.00     0.042 A 
HETATM   17  C   UNL     1       8.460  30.368  58.285  1.00  0.00     0.089 A 
HETATM   18  C   UNL     1       9.530  31.245  58.485  1.00  0.00     0.038 A 
HETATM   19  C   UNL     1      10.765  30.991  57.882  1.00  0.00     0.003 A 
HETATM   20  C   UNL     1      10.936  29.864  57.081  1.00  0.00     0.002 A 
HETATM   21  C   UNL     1       9.874  28.980  56.891  1.00  0.00     0.026 A 
BRANCH  17  22
HETATM   22  O   UNL     1       7.217  30.529  58.850  1.00  0.00    -0.354 OA
HETATM   23  C   UNL     1       6.945  31.846  59.323  1.00  0.00     0.210 C 
ENDBRANCH  17  22
ENDBRANCH  14  16
ENDBRANCH  13  14
ENDBRANCH   1  13
BRANCH   9  24
HETATM   24  C   UNL     1       8.413  20.887  56.556  1.00  0.00     0.417 C 
HETATM   25  F   UNL     1       8.322  21.142  57.890  1.00  0.00    -0.166 F 
HETATM   26  F   UNL     1       7.470  19.942  56.289  1.00  0.00    -0.166 F 
HETATM   27  F   UNL     1       9.617  20.276  56.374  1.00  0.00    -0.166 F 
ENDBRANCH   9  24
TORSDOF 5
ENDMDL
MODEL 2
REMARK VINA RESULT:      -9.2      1.630      2.168
REMARK  5 active torsions:
REMARK  status: ('A' for Active; 'I' for Inactive)
REMARK    1  A    between atoms: O_2  and  C_3 
REMARK    2  A    between atoms: C_4  and  N_5 
REMARK    3  A    between atoms: N_5  and  C_6 
REMARK    4  A    between atoms: C_6  and  C_7 
REMARK    5  A    between atoms: C_15  and  C_16 
ROOT
HETATM    1  C   UNL     1       6.714  27.830  55.650  1.00  0.00     0.120 A 
HETATM    2  N   UNL     1       7.162  26.619  55.759  1.00  0.00    -0.233 NA
HETATM    3  C   UNL     1       7.313  25.861  54.588  1.00  0.00     0.075 A 
HETATM    4  C   UNL     1       7.039  26.374  53.320  1.00  0.00     0.061 A 
HETATM    5  C   UNL     1       6.563  27.765  53.240  1.00  0.00     0.259 A 
HETATM    6  O   UNL     1       6.287  28.299  52.173  1.00  0.00    -0.267 OA
HETATM    7  N   UNL     1       6.431  28.414  54.439  1.00  0.00    -0.310 N 
HETATM    8  C   UNL     1       7.717  24.529  54.702  1.00  0.00     0.048 A 
HETATM    9  C   UNL     1       7.852  23.713  53.565  1.00  0.00     0.050 A 
HETATM   10  C   UNL     1       7.579  24.258  52.298  1.00  0.00     0.017 A 
HETATM   11  C   UNL     1       7.175  25.587  52.172  1.00  0.00     0.020 A 
HETATM   12  H   UNL     1       6.027  29.339  54.395  1.00  0.00     0.170 HD
ENDROOT
BRANCH   1  13
HETATM   13  C   UNL     1       6.453  28.694  56.880  1.00  0.00     0.171 C 
BRANCH  13  14
HETATM   14  N   UNL     1       7.453  28.478  57.946  1.00  0.00    -0.284 NA
HETATM   15  H   UNL     1       7.813  27.526  57.849  1.00  0.00     0.128 HD
BRANCH  14  16
HETATM   16  C   UNL     1       8.581  29.333  57.845  1.00  0.00     0.042 A 
HETATM   17  C   UNL     1       8.658  30.518  58.603  1.00  0.00     0.089 A 
HETATM   18  C   UNL     1       9.812  31.304  58.554  1.00  0.00     0.038 A 
HETATM   19  C   UNL     1      10.881  30.929  57.736  1.00  0.00     0.003 A 
HETATM   20  C   UNL     1      10.801  29.771  56.967  1.00  0.00     0.002 A 
HETATM   21  C   UNL     1       9.656  28.976  57.024  1.00  0.00     0.026 A 
BRANCH  17  22
HETATM   22  O   UNL     1       7.566  30.801  59.389  1.00  0.00    -0.354 OA
HETATM   23  C   UNL     1       7.881  31.305  60.685  1.00  0.00     0.210 C 
ENDBRANCH  17  22
ENDBRANCH  14  16
ENDBRANCH  13  14
ENDBRANCH   1  13
BRANCH   9  24
HETATM   24  C   UNL     1       8.248  22.262  53.695  1.00  0.00     0.417 C 
HETATM   25  F   UNL     1       9.560  22.079  54.007  1.00  0.00    -0.166 F 
HETATM   26  F   UNL     1       7.539  21.620  54.664  1.00  0.00    -0.166 F 
HETATM   27  F   UNL     1       8.035  21.561  52.548  1.00  0.00    -0.166 F 
ENDBRANCH   9  24
TORSDOF 5
ENDMDL
MODEL 3
REMARK VINA RESULT:      -9.2      1.180      2.041
REMARK  5 active torsions:
REMARK  status: ('A' for Active; 'I' for Inactive)
REMARK    1  A    between atoms: O_2  and  C_3 
REMARK    2  A    between atoms: C_4  and  N_5 
REMARK    3  A    between atoms: N_5  and  C_6 
REMARK    4  A    between atoms: C_6  and  C_7 
REMARK    5  A    between atoms: C_15  and  C_16 
ROOT
HETATM    1  C   UNL     1       6.869  26.474  55.170  1.00  0.00     0.120 A 
HETATM    2  N   UNL     1       7.171  25.383  55.802  1.00  0.00    -0.233 NA
HETATM    3  C   UNL     1       7.455  24.238  55.044  1.00  0.00     0.075 A 
HETATM    4  C   UNL     1       7.466  24.242  53.649  1.00  0.00     0.061 A 
HETATM    5  C   UNL     1       7.149  25.511  52.973  1.00  0.00     0.259 A 
HETATM    6  O   UNL     1       7.123  25.610  51.753  1.00  0.00    -0.267 OA
HETATM    7  N   UNL     1       6.867  26.566  53.799  1.00  0.00    -0.310 N 
HETATM    8  C   UNL     1       7.701  23.037  55.715  1.00  0.00     0.048 A 
HETATM    9  C   UNL     1       7.958  21.851  55.006  1.00  0.00     0.050 A 
HETATM   10  C   UNL     1       7.972  21.885  53.601  1.00  0.00     0.017 A 
HETATM   11  C   UNL     1       7.728  23.078  52.920  1.00  0.00     0.020 A 
HETATM   12  H   UNL     1       6.569  27.416  53.341  1.00  0.00     0.170 HD
ENDROOT
BRANCH   1  13
HETATM   13  C   UNL     1       6.475  27.743  55.920  1.00  0.00     0.171 C 
BRANCH  13  14
HETATM   14  N   UNL     1       7.492  28.808  55.802  1.00  0.00    -0.284 NA
HETATM   15  H   UNL     1       7.196  29.443  55.057  1.00  0.00     0.128 HD
BRANCH  14  16
HETATM   16  C   UNL     1       7.614  29.608  56.968  1.00  0.00     0.042 A 
HETATM   17  C   UNL     1       8.836  29.683  57.666  1.00  0.00     0.089 A 
HETATM   18  C   UNL     1       8.960  30.539  58.764  1.00  0.00     0.038 A 
HETATM   19  C   UNL     1       7.868  31.303  59.184  1.00  0.00     0.003 A 
HETATM   20  C   UNL     1       6.652  31.215  58.511  1.00  0.00     0.002 A 
HETATM   21  C   UNL     1       6.527  30.372  57.407  1.00  0.00     0.026 A 
BRANCH  17  22
HETATM   22  O   UNL     1       9.859  28.908  57.174  1.00  0.00    -0.354 OA
HETATM   23  C   UNL     1      11.051  29.624  56.864  1.00  0.00     0.210 C 
ENDBRANCH  17  22
ENDBRANCH  14  16
ENDBRANCH  13  14
ENDBRANCH   1  13
BRANCH   9  24
HETATM   24  C   UNL     1       8.182  20.547  55.734  1.00  0.00     0.417 C 
HETATM   25  F   UNL     1       9.068  20.639  56.763  1.00  0.00    -0.166 F 
HETATM   26  F   UNL     1       7.032  20.054  56.271  1.00  0.00    -0.166 F 
HETATM   27  F   UNL     1       8.661  19.571  54.915  1.00  0.00    -0.166 F 
ENDBRANCH   9  24
TORSDOF 5
ENDMDL
MODEL 4
REMARK VINA RESULT:      -9.0      1.751      2.473
REMARK  5 active torsions:
REMARK  status: ('A' for Active; 'I' for Inactive)
REMARK    1  A    between atoms: O_2  and  C_3 
REMARK    2  A    between atoms: C_4  and  N_5 
REMARK    3  A    between atoms: N_5  and  C_6 
REMARK    4  A    between atoms: C_6  and  C_7 
REMARK    5  A    between atoms: C_15  and  C_16 
ROOT
HETATM    1  C   UNL     1       7.567  26.565  56.467  1.00  0.00     0.120 A 
HETATM    2  N   UNL     1       7.793  25.289  56.488  1.00  0.00    -0.233 NA
HETATM    3  C   UNL     1       7.738  24.588  55.274  1.00  0.00     0.075 A 
HETATM    4  C   UNL     1       7.494  25.216  54.053  1.00  0.00     0.061 A 
HETATM    5  C   UNL     1       7.275  26.672  54.072  1.00  0.00     0.259 A 
HETATM    6  O   UNL     1       7.044  27.309  53.052  1.00  0.00    -0.267 OA
HETATM    7  N   UNL     1       7.330  27.261  55.306  1.00  0.00    -0.310 N 
HETATM    8  C   UNL     1       7.899  23.200  55.297  1.00  0.00     0.048 A 
HETATM    9  C   UNL     1       7.821  22.443  54.115  1.00  0.00     0.050 A 
HETATM   10  C   UNL     1       7.583  23.102  52.897  1.00  0.00     0.017 A 
HETATM   11  C   UNL     1       7.421  24.487  52.862  1.00  0.00     0.020 A 
HETATM   12  H   UNL     1       7.099  28.245  55.334  1.00  0.00     0.170 HD
ENDROOT
BRANCH   1  13
HETATM   13  C   UNL     1       7.535  27.387  57.752  1.00  0.00     0.171 C 
BRANCH  13  14
HETATM   14  N   UNL     1       8.474  28.527  57.717  1.00  0.00    -0.284 NA
HETATM   15  H   UNL     1       8.666  28.744  56.737  1.00  0.00     0.128 HD
BRANCH  14  16
HETATM   16  C   UNL     1       7.942  29.716  58.282  1.00  0.00     0.042 A 
HETATM   17  C   UNL     1       6.944  30.450  57.610  1.00  0.00     0.089 A 
HETATM   18  C   UNL     1       6.374  31.571  58.218  1.00  0.00     0.038 A 
HETATM   19  C   UNL     1       6.810  31.980  59.481  1.00  0.00     0.003 A 
HETATM   20  C   UNL     1       7.812  31.272  60.140  1.00  0.00     0.002 A 
HETATM   21  C   UNL     1       8.374  30.144  59.542  1.00  0.00     0.026 A 
BRANCH  17  22
HETATM   22  O   UNL     1       6.569  29.967  56.379  1.00  0.00    -0.354 OA
HETATM   23  C   UNL     1       5.181  30.103  56.085  1.00  0.00     0.210 C 
ENDBRANCH  17  22
ENDBRANCH  14  16
ENDBRANCH  13  14
ENDBRANCH   1  13
BRANCH   9  24
HETATM   24  C   UNL     1       7.953  20.939  54.149  1.00  0.00     0.417 C 
HETATM   25  F   UNL     1       9.241  20.504  54.203  1.00  0.00    -0.166 F 
HETATM   26  F   UNL     1       7.326  20.392  55.226  1.00  0.00    -0.166 F 
HETATM   27  F   UNL     1       7.403  20.345  53.054  1.00  0.00    -0.166 F 
ENDBRANCH   9  24
TORSDOF 5
ENDMDL
MODEL 5
REMARK VINA RESULT:      -8.9      3.817      7.615
REMARK  5 active torsions:
REMARK  status: ('A' for Active; 'I' for Inactive)
REMARK    1  A    between atoms: O_2  and  C_3 
REMARK    2  A    between atoms: C_4  and  N_5 
REMARK    3  A    between atoms: N_5  and  C_6 
REMARK    4  A    between atoms: C_6  and  C_7 
REMARK    5  A    between atoms: C_15  and  C_16 
ROOT
HETATM    1  C   UNL     1       6.440  26.199  55.097  1.00  0.00     0.120 A 
HETATM    2  N   UNL     1       7.505  26.678  55.661  1.00  0.00    -0.233 NA
HETATM    3  C   UNL     1       7.381  27.855  56.414  1.00  0.00     0.075 A 
HETATM    4  C   UNL     1       6.158  28.497  56.612  1.00  0.00     0.061 A 
HETATM    5  C   UNL     1       4.970  27.900  55.980  1.00  0.00     0.259 A 
HETATM    6  O   UNL     1       3.855  28.396  56.088  1.00  0.00    -0.267 OA
HETATM    7  N   UNL     1       5.197  26.763  55.250  1.00  0.00    -0.310 N 
HETATM    8  C   UNL     1       8.535  28.425  56.957  1.00  0.00     0.048 A 
HETATM    9  C   UNL     1       8.475  29.621  57.693  1.00  0.00     0.050 A 
HETATM   10  C   UNL     1       7.229  30.242  57.885  1.00  0.00     0.017 A 
HETATM   11  C   UNL     1       6.069  29.682  57.348  1.00  0.00     0.020 A 
HETATM   12  H   UNL     1       4.400  26.397  54.749  1.00  0.00     0.170 HD
ENDROOT
BRANCH   1  13
HETATM   13  C   UNL     1       6.503  24.965  54.201  1.00  0.00     0.171 C 
BRANCH  13  14
HETATM   14  N   UNL     1       7.887  24.607  53.829  1.00  0.00    -0.284 NA
HETATM   15  H   UNL     1       8.518  25.085  54.475  1.00  0.00     0.128 HD
BRANCH  14  16
HETATM   16  C   UNL     1       8.169  23.222  53.961  1.00  0.00     0.042 A 
HETATM   17  C   UNL     1       8.820  22.726  55.107  1.00  0.00     0.089 A 
HETATM   18  C   UNL     1       9.016  21.350  55.258  1.00  0.00     0.038 A 
HETATM   19  C   UNL     1       8.587  20.469  54.262  1.00  0.00     0.003 A 
HETATM   20  C   UNL     1       7.963  20.956  53.117  1.00  0.00     0.002 A 
HETATM   21  C   UNL     1       7.754  22.327  52.969  1.00  0.00     0.026 A 
BRANCH  17  22
HETATM   22  O   UNL     1       9.195  23.664  56.040  1.00  0.00    -0.354 OA
HETATM   23  C   UNL     1       8.497  23.582  57.279  1.00  0.00     0.210 C 
ENDBRANCH  17  22
ENDBRANCH  14  16
ENDBRANCH  13  14
ENDBRANCH   1  13
BRANCH   9  24
HETATM   24  C   UNL     1       9.729  30.256  58.242  1.00  0.00     0.417 C 
HETATM   25  F   UNL     1       9.769  30.304  59.602  1.00  0.00    -0.166 F 
HETATM   26  F   UNL     1      10.854  29.591  57.858  1.00  0.00    -0.166 F 
HETATM   27  F   UNL     1       9.891  31.540  57.818  1.00  0.00    -0.166 F 
ENDBRANCH   9  24
TORSDOF 5
ENDMDL
MODEL 6
REMARK VINA RESULT:      -8.8      4.396      8.188
REMARK  5 active torsions:
REMARK  status: ('A' for Active; 'I' for Inactive)
REMARK    1  A    between atoms: O_2  and  C_3 
REMARK    2  A    between atoms: C_4  and  N_5 
REMARK    3  A    between atoms: N_5  and  C_6 
REMARK    4  A    between atoms: C_6  and  C_7 
REMARK    5  A    between atoms: C_15  and  C_16 
ROOT
HETATM    1  C   UNL     1       7.601  27.902  56.984  1.00  0.00     0.120 A 
HETATM    2  N   UNL     1       7.535  28.479  58.143  1.00  0.00    -0.233 NA
HETATM    3  C   UNL     1       8.403  29.551  58.397  1.00  0.00     0.075 A 
HETATM    4  C   UNL     1       9.295  30.041  57.442  1.00  0.00     0.061 A 
HETATM    5  C   UNL     1       9.313  29.376  56.129  1.00  0.00     0.259 A 
HETATM    6  O   UNL     1      10.067  29.728  55.231  1.00  0.00    -0.267 OA
HETATM    7  N   UNL     1       8.443  28.329  55.985  1.00  0.00    -0.310 N 
HETATM    8  C   UNL     1       8.398  30.127  59.670  1.00  0.00     0.048 A 
HETATM    9  C   UNL     1       9.269  31.182  59.992  1.00  0.00     0.050 A 
HETATM   10  C   UNL     1      10.150  31.662  59.008  1.00  0.00     0.017 A 
HETATM   11  C   UNL     1      10.165  31.096  57.733  1.00  0.00     0.020 A 
HETATM   12  H   UNL     1       8.509  27.818  55.115  1.00  0.00     0.170 HD
ENDROOT
BRANCH   1  13
HETATM   13  C   UNL     1       6.744  26.683  56.654  1.00  0.00     0.171 C 
BRANCH  13  14
HETATM   14  N   UNL     1       6.615  26.460  55.199  1.00  0.00    -0.284 NA
HETATM   15  H   UNL     1       7.201  27.150  54.723  1.00  0.00     0.128 HD
BRANCH  14  16
HETATM   16  C   UNL     1       7.086  25.190  54.776  1.00  0.00     0.042 A 
HETATM   17  C   UNL     1       6.656  24.631  53.556  1.00  0.00     0.089 A 
HETATM   18  C   UNL     1       7.193  23.418  53.116  1.00  0.00     0.038 A 
HETATM   19  C   UNL     1       8.140  22.748  53.897  1.00  0.00     0.003 A 
HETATM   20  C   UNL     1       8.552  23.285  55.113  1.00  0.00     0.002 A 
HETATM   21  C   UNL     1       8.028  24.502  55.549  1.00  0.00     0.026 A 
BRANCH  17  22
HETATM   22  O   UNL     1       5.733  25.366  52.850  1.00  0.00    -0.354 OA
HETATM   23  C   UNL     1       6.192  25.839  51.586  1.00  0.00     0.210 C 
ENDBRANCH  17  22
ENDBRANCH  14  16
ENDBRANCH  13  14
ENDBRANCH   1  13
BRANCH   9  24
HETATM   24  C   UNL     1       9.290  31.773  61.380  1.00  0.00     0.417 C 
HETATM   25  F   UNL     1      10.499  32.287  61.739  1.00  0.00    -0.166 F 
HETATM   26  F   UNL     1       8.394  32.789  61.521  1.00  0.00    -0.166 F 
HETATM   27  F   UNL     1       8.974  30.860  62.339  1.00  0.00    -0.166 F 
ENDBRANCH   9  24
TORSDOF 5
ENDMDL
MODEL 7
REMARK VINA RESULT:      -8.8      4.428      7.393
REMARK  5 active torsions:
REMARK  status: ('A' for Active; 'I' for Inactive)
REMARK    1  A    between atoms: O_2  and  C_3 
REMARK    2  A    between atoms: C_4  and  N_5 
REMARK    3  A    between atoms: N_5  and  C_6 
REMARK    4  A    between atoms: C_6  and  C_7 
REMARK    5  A    between atoms: C_15  and  C_16 
ROOT
HETATM    1  C   UNL     1       5.469  26.370  52.440  1.00  0.00     0.120 A 
HETATM    2  N   UNL     1       6.019  25.230  52.164  1.00  0.00    -0.233 NA
HETATM    3  C   UNL     1       6.464  24.435  53.232  1.00  0.00     0.075 A 
HETATM    4  C   UNL     1       6.297  24.806  54.566  1.00  0.00     0.061 A 
HETATM    5  C   UNL     1       5.638  26.095  54.834  1.00  0.00     0.259 A 
HETATM    6  O   UNL     1       5.456  26.511  55.971  1.00  0.00    -0.267 OA
HETATM    7  N   UNL     1       5.258  26.805  53.726  1.00  0.00    -0.310 N 
HETATM    8  C   UNL     1       7.131  23.243  52.944  1.00  0.00     0.048 A 
HETATM    9  C   UNL     1       7.628  22.423  53.972  1.00  0.00     0.050 A 
HETATM   10  C   UNL     1       7.438  22.817  55.309  1.00  0.00     0.017 A 
HETATM   11  C   UNL     1       6.772  24.005  55.609  1.00  0.00     0.020 A 
HETATM   12  H   UNL     1       4.880  27.726  53.902  1.00  0.00     0.170 HD
ENDROOT
BRANCH   1  13
HETATM   13  C   UNL     1       5.026  27.326  51.335  1.00  0.00     0.171 C 
BRANCH  13  14
HETATM   14  N   UNL     1       5.505  26.909  50.002  1.00  0.00    -0.284 NA
HETATM   15  H   UNL     1       5.913  25.976  50.093  1.00  0.00     0.128 HD
BRANCH  14  16
HETATM   16  C   UNL     1       4.470  26.789  49.039  1.00  0.00     0.042 A 
HETATM   17  C   UNL     1       4.092  27.891  48.245  1.00  0.00     0.089 A 
HETATM   18  C   UNL     1       3.128  27.733  47.246  1.00  0.00     0.038 A 
HETATM   19  C   UNL     1       2.521  26.490  47.049  1.00  0.00     0.003 A 
HETATM   20  C   UNL     1       2.874  25.403  47.845  1.00  0.00     0.002 A 
HETATM   21  C   UNL     1       3.846  25.554  48.835  1.00  0.00     0.026 A 
BRANCH  17  22
HETATM   22  O   UNL     1       4.750  29.070  48.501  1.00  0.00    -0.354 OA
HETATM   23  C   UNL     1       3.901  30.203  48.660  1.00  0.00     0.210 C 
ENDBRANCH  17  22
ENDBRANCH  14  16
ENDBRANCH  13  14
ENDBRANCH   1  13
BRANCH   9  24
HETATM   24  C   UNL     1       8.386  21.157  53.657  1.00  0.00     0.417 C 
HETATM   25  F   UNL     1       9.697  21.364  53.356  1.00  0.00    -0.166 F 
HETATM   26  F   UNL     1       8.374  20.277  54.696  1.00  0.00    -0.166 F 
HETATM   27  F   UNL     1       7.860  20.488  52.594  1.00  0.00    -0.166 F 
ENDBRANCH   9  24
TORSDOF 5
ENDMDL
MODEL 8
REMARK VINA RESULT:      -8.8      4.285      8.241
REMARK  5 active torsions:
REMARK  status: ('A' for Active; 'I' for Inactive)
REMARK    1  A    between atoms: O_2  and  C_3 
REMARK    2  A    between atoms: C_4  and  N_5 
REMARK    3  A    between atoms: N_5  and  C_6 
REMARK    4  A    between atoms: C_6  and  C_7 
REMARK    5  A    between atoms: C_15  and  C_16 
ROOT
HETATM    1  C   UNL     1       7.332  29.102  56.336  1.00  0.00     0.120 A 
HETATM    2  N   UNL     1       8.021  29.109  57.434  1.00  0.00    -0.233 NA
HETATM    3  C   UNL     1       7.750  30.109  58.379  1.00  0.00     0.075 A 
HETATM    4  C   UNL     1       6.745  31.060  58.201  1.00  0.00     0.061 A 
HETATM    5  C   UNL     1       5.965  30.996  56.954  1.00  0.00     0.259 A 
HETATM    6  O   UNL     1       5.070  31.793  56.703  1.00  0.00    -0.267 OA
HETATM    7  N   UNL     1       6.319  29.996  56.087  1.00  0.00    -0.310 N 
HETATM    8  C   UNL     1       8.542  30.175  59.528  1.00  0.00     0.048 A 
HETATM    9  C   UNL     1       8.337  31.176  60.493  1.00  0.00     0.050 A 
HETATM   10  C   UNL     1       7.312  32.117  60.292  1.00  0.00     0.017 A 
HETATM   11  C   UNL     1       6.514  32.061  59.149  1.00  0.00     0.020 A 
HETATM   12  H   UNL     1       5.842  29.998  55.196  1.00  0.00     0.170 HD
ENDROOT
BRANCH   1  13
HETATM   13  C   UNL     1       7.615  28.094  55.227  1.00  0.00     0.171 C 
BRANCH  13  14
HETATM   14  N   UNL     1       6.963  26.790  55.467  1.00  0.00    -0.284 NA
HETATM   15  H   UNL     1       5.957  26.914  55.337  1.00  0.00     0.128 HD
BRANCH  14  16
HETATM   16  C   UNL     1       7.354  25.783  54.547  1.00  0.00     0.042 A 
HETATM   17  C   UNL     1       7.488  24.442  54.960  1.00  0.00     0.089 A 
HETATM   18  C   UNL     1       7.793  23.451  54.024  1.00  0.00     0.038 A 
HETATM   19  C   UNL     1       7.989  23.791  52.682  1.00  0.00     0.003 A 
HETATM   20  C   UNL     1       7.879  25.118  52.273  1.00  0.00     0.002 A 
HETATM   21  C   UNL     1       7.562  26.108  53.203  1.00  0.00     0.026 A 
BRANCH  17  22
HETATM   22  O   UNL     1       7.265  24.198  56.295  1.00  0.00    -0.354 OA
HETATM   23  C   UNL     1       8.423  23.811  57.030  1.00  0.00     0.210 C 
ENDBRANCH  17  22
ENDBRANCH  14  16
ENDBRANCH  13  14
ENDBRANCH   1  13
BRANCH   9  24
HETATM   24  C   UNL     1       9.222  31.270  61.712  1.00  0.00     0.417 C 
HETATM   25  F   UNL     1      10.276  32.118  61.560  1.00  0.00    -0.166 F 
HETATM   26  F   UNL     1       8.543  31.707  62.808  1.00  0.00    -0.166 F 
HETATM   27  F   UNL     1       9.758  30.067  62.059  1.00  0.00    -0.166 F 
ENDBRANCH   9  24
TORSDOF 5
ENDMDL
MODEL 9
REMARK VINA RESULT:      -8.7      4.202      7.146
REMARK  5 active torsions:
REMARK  status: ('A' for Active; 'I' for Inactive)
REMARK    1  A    between atoms: O_2  and  C_3 
REMARK    2  A    between atoms: C_4  and  N_5 
REMARK    3  A    between atoms: N_5  and  C_6 
REMARK    4  A    between atoms: C_6  and  C_7 
REMARK    5  A    between atoms: C_15  and  C_16 
ROOT
HETATM    1  C   UNL     1       6.226  26.378  52.572  1.00  0.00     0.120 A 
HETATM    2  N   UNL     1       6.372  25.111  52.342  1.00  0.00    -0.233 NA
HETATM    3  C   UNL     1       7.033  24.336  53.305  1.00  0.00     0.075 A 
HETATM    4  C   UNL     1       7.497  24.866  54.509  1.00  0.00     0.061 A 
HETATM    5  C   UNL     1       7.282  26.304  54.744  1.00  0.00     0.259 A 
HETATM    6  O   UNL     1       7.662  26.862  55.765  1.00  0.00    -0.267 OA
HETATM    7  N   UNL     1       6.644  26.977  53.736  1.00  0.00    -0.310 N 
HETATM    8  C   UNL     1       7.268  22.986  53.030  1.00  0.00     0.048 A 
HETATM    9  C   UNL     1       7.955  22.170  53.944  1.00  0.00     0.050 A 
HETATM   10  C   UNL     1       8.404  22.728  55.154  1.00  0.00     0.017 A 
HETATM   11  C   UNL     1       8.175  24.074  55.440  1.00  0.00     0.020 A 
HETATM   12  H   UNL     1       6.567  27.978  53.857  1.00  0.00     0.170 HD
ENDROOT
BRANCH   1  13
HETATM   13  C   UNL     1       5.583  27.304  51.544  1.00  0.00     0.171 C 
BRANCH  13  14
HETATM   14  N   UNL     1       5.700  26.785  50.165  1.00  0.00    -0.284 NA
HETATM   15  H   UNL     1       5.230  25.878  50.132  1.00  0.00     0.128 HD
BRANCH  14  16
HETATM   16  C   UNL     1       5.049  27.595  49.198  1.00  0.00     0.042 A 
HETATM   17  C   UNL     1       3.974  27.089  48.440  1.00  0.00     0.089 A 
HETATM   18  C   UNL     1       3.293  27.925  47.552  1.00  0.00     0.038 A 
HETATM   19  C   UNL     1       3.692  29.256  47.397  1.00  0.00     0.003 A 
HETATM   20  C   UNL     1       4.767  29.755  48.127  1.00  0.00     0.002 A 
HETATM   21  C   UNL     1       5.442  28.927  49.024  1.00  0.00     0.026 A 
BRANCH  17  22
HETATM   22  O   UNL     1       3.644  25.774  48.667  1.00  0.00    -0.354 OA
HETATM   23  C   UNL     1       2.927  25.149  47.606  1.00  0.00     0.210 C 
ENDBRANCH  17  22
ENDBRANCH  14  16
ENDBRANCH  13  14
ENDBRANCH   1  13
BRANCH   9  24
HETATM   24  C   UNL     1       8.244  20.723  53.626  1.00  0.00     0.417 C 
HETATM   25  F   UNL     1       8.308  19.922  54.725  1.00  0.00    -0.166 F 
HETATM   26  F   UNL     1       7.296  20.175  52.816  1.00  0.00    -0.166 F 
HETATM   27  F   UNL     1       9.430  20.560  52.977  1.00  0.00    -0.166 F 
ENDBRANCH   9  24
TORSDOF 5
ENDMDL
MODEL 10
REMARK VINA RESULT:      -8.7      4.148      7.101
REMARK  5 active torsions:
REMARK  status: ('A' for Active; 'I' for Inactive)
REMARK    1  A    between atoms: O_2  and  C_3 
REMARK    2  A    between atoms: C_4  and  N_5 
REMARK    3  A    between atoms: N_5  and  C_6 
REMARK    4  A    between atoms: C_6  and  C_7 
REMARK    5  A    between atoms: C_15  and  C_16 
ROOT
HETATM    1  C   UNL     1       7.502  31.724  59.778  1.00  0.00     0.120 A 
HETATM    2  N   UNL     1       7.078  30.588  59.319  1.00  0.00    -0.233 NA
HETATM    3  C   UNL     1       7.921  29.866  58.461  1.00  0.00     0.075 A 
HETATM    4  C   UNL     1       9.202  30.301  58.123  1.00  0.00     0.061 A 
HETATM    5  C   UNL     1       9.655  31.581  58.693  1.00  0.00     0.259 A 
HETATM    6  O   UNL     1      10.760  32.050  58.446  1.00  0.00    -0.267 OA
HETATM    7  N   UNL     1       8.754  32.219  59.502  1.00  0.00    -0.310 N 
HETATM    8  C   UNL     1       7.442  28.682  57.896  1.00  0.00     0.048 A 
HETATM    9  C   UNL     1       8.230  27.934  57.004  1.00  0.00     0.050 A 
HETATM   10  C   UNL     1       9.521  28.391  56.687  1.00  0.00     0.017 A 
HETATM   11  C   UNL     1      10.011  29.572  57.246  1.00  0.00     0.020 A 
HETATM   12  H   UNL     1       9.028  33.135  59.829  1.00  0.00     0.170 HD
ENDROOT
BRANCH   1  13
HETATM   13  C   UNL     1       6.619  32.605  60.657  1.00  0.00     0.171 C 
BRANCH  13  14
HETATM   14  N   UNL     1       6.057  31.872  61.810  1.00  0.00    -0.284 NA
HETATM   15  H   UNL     1       6.607  31.019  61.936  1.00  0.00     0.128 HD
BRANCH  14  16
HETATM   16  C   UNL     1       6.154  32.582  63.035  1.00  0.00     0.042 A 
HETATM   17  C   UNL     1       4.996  33.009  63.714  1.00  0.00     0.089 A 
HETATM   18  C   UNL     1       5.107  33.634  64.959  1.00  0.00     0.038 A 
HETATM   19  C   UNL     1       6.368  33.857  65.520  1.00  0.00     0.003 A 
HETATM   20  C   UNL     1       7.517  33.456  64.843  1.00  0.00     0.002 A 
HETATM   21  C   UNL     1       7.409  32.821  63.606  1.00  0.00     0.026 A 
BRANCH  17  22
HETATM   22  O   UNL     1       3.800  32.736  63.093  1.00  0.00    -0.354 OA
HETATM   23  C   UNL     1       2.952  33.867  62.914  1.00  0.00     0.210 C 
ENDBRANCH  17  22
ENDBRANCH  14  16
ENDBRANCH  13  14
ENDBRANCH   1  13
BRANCH   9  24
HETATM   24  C   UNL     1       7.693  26.677  56.363  1.00  0.00     0.417 C 
HETATM   25  F   UNL     1       8.403  25.558  56.672  1.00  0.00    -0.166 F 
HETATM   26  F   UNL     1       6.408  26.420  56.730  1.00  0.00    -0.166 F 
HETATM   27  F   UNL     1       7.686  26.750  55.003  1.00  0.00    -0.166 F 
ENDBRANCH   9  24
TORSDOF 5
ENDMDL
