MODEL 1
REMARK VINA RESULT:      -9.8      0.000      0.000
REMARK  6 active torsions:
REMARK  status: ('A' for Active; 'I' for Inactive)
REMARK    1  A    between atoms: C_7  and  S_8 
REMARK    2  A    between atoms: S_8  and  C_9 
REMARK    3  A    between atoms: C_9  and  C_10 
REMARK    4  A    between atoms: C_18  and  C_19 
REMARK    5  A    between atoms: C_27  and  C_28 
REMARK    6  A    between atoms: C_28  and  O_29 
ROOT
HETATM    1  C   UNL     1       3.678  29.001  55.149  1.00  0.00     0.070 C 
HETATM    2  C   UNL     1       4.825  28.419  55.935  1.00  0.00     0.037 A 
HETATM    3  N   UNL     1       5.015  27.047  55.795  1.00  0.00    -0.192 N 
HETATM    4  C   UNL     1       5.997  26.366  56.414  1.00  0.00     0.726 A 
HETATM    5  N   UNL     1       6.833  27.027  57.268  1.00  0.00    -0.082 N 
HETATM    6  N   UNL     1       7.727  26.189  57.830  1.00  0.00    -0.128 NA
HETATM    7  C   UNL     1       7.423  25.044  57.203  1.00  0.00     0.226 A 
HETATM    8  N   UNL     1       6.346  25.109  56.352  1.00  0.00    -0.035 NA
HETATM    9  C   UNL     1       6.764  28.470  57.543  1.00  0.00     0.208 A 
HETATM   10  C   UNL     1       5.636  29.131  56.757  1.00  0.00     0.070 A 
HETATM   11  H   UNL     1       4.428  26.556  55.126  1.00  0.00     0.184 HD
ENDROOT
BRANCH   7  12
HETATM   12  S   UNL     1       8.334  23.575  57.407  1.00  0.00    -0.083 SA
BRANCH  12  13
HETATM   13  C   UNL     1       9.361  23.580  55.911  1.00  0.00     0.123 C 
BRANCH  13  14
HETATM   14  C   UNL     1       8.886  22.546  54.915  1.00  0.00    -0.027 A 
HETATM   15  C   UNL     1       8.238  22.886  53.715  1.00  0.00     0.041 A 
HETATM   16 CL   UNL     1       7.945  24.527  53.259  1.00  0.00    -0.084 Cl
HETATM   17  C   UNL     1       7.800  21.890  52.836  1.00  0.00     0.024 A 
HETATM   18  C   UNL     1       7.992  20.544  53.145  1.00  0.00     0.002 A 
HETATM   19  C   UNL     1       8.621  20.190  54.334  1.00  0.00     0.001 A 
HETATM   20  C   UNL     1       9.065  21.181  55.212  1.00  0.00     0.009 A 
ENDBRANCH  13  14
ENDBRANCH  12  13
ENDBRANCH   7  12
BRANCH   9  21
HETATM   21  C   UNL     1       8.134  29.092  57.308  1.00  0.00     0.032 A 
HETATM   22  C   UNL     1       8.775  29.080  56.059  1.00  0.00     0.045 A 
HETATM   23 CL   UNL     1       8.086  28.315  54.671  1.00  0.00    -0.084 Cl
HETATM   24  C   UNL     1      10.022  29.696  55.886  1.00  0.00     0.024 A 
HETATM   25  C   UNL     1      10.649  30.338  56.952  1.00  0.00     0.005 A 
HETATM   26  C   UNL     1      10.029  30.363  58.196  1.00  0.00     0.043 A 
HETATM   27  C   UNL     1       8.790  29.749  58.360  1.00  0.00     0.126 A 
HETATM   28  F   UNL     1       8.219  29.802  59.573  1.00  0.00    -0.205 F 
ENDBRANCH   9  21
BRANCH  10  29
HETATM   29  C   UNL     1       5.496  30.593  56.907  1.00  0.00     0.293 C 
HETATM   30  O   UNL     1       5.641  31.400  56.003  1.00  0.00    -0.259 OA
BRANCH  29  31
HETATM   31  O   UNL     1       5.197  30.882  58.196  1.00  0.00    -0.323 OA
HETATM   32  C   UNL     1       5.682  32.155  58.629  1.00  0.00     0.213 C 
ENDBRANCH  29  31
ENDBRANCH  10  29
TORSDOF 6
ENDMDL
MODEL 2
REMARK VINA RESULT:      -8.9      3.980      7.882
REMARK  6 active torsions:
REMARK  status: ('A' for Active; 'I' for Inactive)
REMARK    1  A    between atoms: C_7  and  S_8 
REMARK    2  A    between atoms: S_8  and  C_9 
REMARK    3  A    between atoms: C_9  and  C_10 
REMARK    4  A    between atoms: C_18  and  C_19 
REMARK    5  A    between atoms: C_27  and  C_28 
REMARK    6  A    between atoms: C_28  and  O_29 
ROOT
HETATM    1  C   UNL     1       3.163  28.368  52.661  1.00  0.00     0.070 C 
HETATM    2  C   UNL     1       4.502  28.151  53.320  1.00  0.00     0.037 A 
HETATM    3  N   UNL     1       4.777  28.974  54.408  1.00  0.00    -0.192 N 
HETATM    4  C   UNL     1       5.917  28.908  55.120  1.00  0.00     0.726 A 
HETATM    5  N   UNL     1       6.891  28.029  54.743  1.00  0.00    -0.082 N 
HETATM    6  N   UNL     1       7.977  28.125  55.535  1.00  0.00    -0.128 NA
HETATM    7  C   UNL     1       7.553  29.031  56.428  1.00  0.00     0.226 A 
HETATM    8  N   UNL     1       6.307  29.556  56.185  1.00  0.00    -0.035 NA
HETATM    9  C   UNL     1       6.773  27.098  53.609  1.00  0.00     0.208 A 
HETATM   10  C   UNL     1       5.426  27.246  52.909  1.00  0.00     0.070 A 
HETATM   11  H   UNL     1       4.039  29.597  54.725  1.00  0.00     0.184 HD
ENDROOT
BRANCH   7  12
HETATM   12  S   UNL     1       8.481  29.497  57.825  1.00  0.00    -0.083 SA
BRANCH  12  13
HETATM   13  C   UNL     1       7.565  30.957  58.393  1.00  0.00     0.123 C 
BRANCH  13  14
HETATM   14  C   UNL     1       7.904  31.295  59.828  1.00  0.00    -0.027 A 
HETATM   15  C   UNL     1       7.118  32.155  60.613  1.00  0.00     0.041 A 
HETATM   16 CL   UNL     1       5.673  32.889  60.013  1.00  0.00    -0.084 Cl
HETATM   17  C   UNL     1       7.487  32.451  61.930  1.00  0.00     0.024 A 
HETATM   18  C   UNL     1       8.646  31.904  62.477  1.00  0.00     0.002 A 
HETATM   19  C   UNL     1       9.442  31.059  61.709  1.00  0.00     0.001 A 
HETATM   20  C   UNL     1       9.075  30.756  60.396  1.00  0.00     0.009 A 
ENDBRANCH  13  14
ENDBRANCH  12  13
ENDBRANCH   7  12
BRANCH   9  21
HETATM   21  C   UNL     1       7.074  25.684  54.088  1.00  0.00     0.032 A 
HETATM   22  C   UNL     1       6.479  25.120  55.227  1.00  0.00     0.045 A 
HETATM   23 CL   UNL     1       5.374  25.996  56.227  1.00  0.00    -0.084 Cl
HETATM   24  C   UNL     1       6.763  23.801  55.607  1.00  0.00     0.024 A 
HETATM   25  C   UNL     1       7.642  23.021  54.857  1.00  0.00     0.005 A 
HETATM   26  C   UNL     1       8.239  23.562  53.724  1.00  0.00     0.043 A 
HETATM   27  C   UNL     1       7.951  24.873  53.352  1.00  0.00     0.126 A 
HETATM   28  F   UNL     1       8.540  25.356  52.249  1.00  0.00    -0.205 F 
ENDBRANCH   9  21
BRANCH  10  29
HETATM   29  C   UNL     1       5.162  26.328  51.784  1.00  0.00     0.293 C 
HETATM   30  O   UNL     1       4.683  25.212  51.897  1.00  0.00    -0.259 OA
BRANCH  29  31
HETATM   31  O   UNL     1       5.549  26.917  50.627  1.00  0.00    -0.323 OA
HETATM   32  C   UNL     1       4.608  26.769  49.561  1.00  0.00     0.213 C 
ENDBRANCH  29  31
ENDBRANCH  10  29
TORSDOF 6
ENDMDL
MODEL 3
REMARK VINA RESULT:      -8.6      5.868      7.758
REMARK  6 active torsions:
REMARK  status: ('A' for Active; 'I' for Inactive)
REMARK    1  A    between atoms: C_7  and  S_8 
REMARK    2  A    between atoms: S_8  and  C_9 
REMARK    3  A    between atoms: C_9  and  C_10 
REMARK    4  A    between atoms: C_18  and  C_19 
REMARK    5  A    between atoms: C_27  and  C_28 
REMARK    6  A    between atoms: C_28  and  O_29 
ROOT
HETATM    1  C   UNL     1       4.606  32.153  51.355  1.00  0.00     0.070 C 
HETATM    2  C   UNL     1       4.711  30.676  51.071  1.00  0.00     0.037 A 
HETATM    3  N   UNL     1       4.919  29.864  52.181  1.00  0.00    -0.192 N 
HETATM    4  C   UNL     1       5.025  28.524  52.112  1.00  0.00     0.726 A 
HETATM    5  N   UNL     1       4.977  27.912  50.893  1.00  0.00    -0.082 N 
HETATM    6  N   UNL     1       5.140  26.578  51.003  1.00  0.00    -0.128 NA
HETATM    7  C   UNL     1       5.199  26.444  52.336  1.00  0.00     0.226 A 
HETATM    8  N   UNL     1       5.163  27.621  53.046  1.00  0.00    -0.035 NA
HETATM    9  C   UNL     1       4.779  28.619  49.618  1.00  0.00     0.208 A 
HETATM   10  C   UNL     1       4.639  30.122  49.835  1.00  0.00     0.070 A 
HETATM   11  H   UNL     1       4.908  30.305  53.097  1.00  0.00     0.184 HD
ENDROOT
BRANCH   7  12
HETATM   12  S   UNL     1       5.276  24.900  53.136  1.00  0.00    -0.083 SA
BRANCH  12  13
HETATM   13  C   UNL     1       7.060  24.732  53.419  1.00  0.00     0.123 C 
BRANCH  13  14
HETATM   14  C   UNL     1       7.414  23.333  53.872  1.00  0.00    -0.027 A 
HETATM   15  C   UNL     1       7.473  22.963  55.227  1.00  0.00     0.041 A 
HETATM   16 CL   UNL     1       7.121  24.076  56.502  1.00  0.00    -0.084 Cl
HETATM   17  C   UNL     1       7.827  21.660  55.594  1.00  0.00     0.024 A 
HETATM   18  C   UNL     1       8.135  20.713  54.619  1.00  0.00     0.002 A 
HETATM   19  C   UNL     1       8.093  21.066  53.274  1.00  0.00     0.001 A 
HETATM   20  C   UNL     1       7.735  22.364  52.902  1.00  0.00     0.009 A 
ENDBRANCH  13  14
ENDBRANCH  12  13
ENDBRANCH   7  12
BRANCH   9  21
HETATM   21  C   UNL     1       3.614  27.986  48.869  1.00  0.00     0.032 A 
HETATM   22  C   UNL     1       2.273  28.174  49.242  1.00  0.00     0.045 A 
HETATM   23 CL   UNL     1       1.817  29.110  50.621  1.00  0.00    -0.084 Cl
HETATM   24  C   UNL     1       1.234  27.597  48.499  1.00  0.00     0.024 A 
HETATM   25  C   UNL     1       1.512  26.827  47.371  1.00  0.00     0.005 A 
HETATM   26  C   UNL     1       2.832  26.633  46.985  1.00  0.00     0.043 A 
HETATM   27  C   UNL     1       3.860  27.209  47.727  1.00  0.00     0.126 A 
HETATM   28  F   UNL     1       5.121  27.006  47.318  1.00  0.00    -0.205 F 
ENDBRANCH   9  21
BRANCH  10  29
HETATM   29  C   UNL     1       4.382  30.941  48.633  1.00  0.00     0.293 C 
HETATM   30  O   UNL     1       3.273  31.208  48.200  1.00  0.00    -0.259 OA
BRANCH  29  31
HETATM   31  O   UNL     1       5.563  31.326  48.095  1.00  0.00    -0.323 OA
HETATM   32  C   UNL     1       5.641  32.725  47.814  1.00  0.00     0.213 C 
ENDBRANCH  29  31
ENDBRANCH  10  29
TORSDOF 6
ENDMDL
MODEL 4
REMARK VINA RESULT:      -8.6      5.538      7.439
REMARK  6 active torsions:
REMARK  status: ('A' for Active; 'I' for Inactive)
REMARK    1  A    between atoms: C_7  and  S_8 
REMARK    2  A    between atoms: S_8  and  C_9 
REMARK    3  A    between atoms: C_9  and  C_10 
REMARK    4  A    between atoms: C_18  and  C_19 
REMARK    5  A    between atoms: C_27  and  C_28 
REMARK    6  A    between atoms: C_28  and  O_29 
ROOT
HETATM    1  C   UNL     1       4.411  32.446  51.826  1.00  0.00     0.070 C 
HETATM    2  C   UNL     1       4.587  30.989  51.476  1.00  0.00     0.037 A 
HETATM    3  N   UNL     1       4.748  30.127  52.557  1.00  0.00    -0.192 N 
HETATM    4  C   UNL     1       4.905  28.797  52.429  1.00  0.00     0.726 A 
HETATM    5  N   UNL     1       4.962  28.248  51.180  1.00  0.00    -0.082 N 
HETATM    6  N   UNL     1       5.164  26.916  51.235  1.00  0.00    -0.128 NA
HETATM    7  C   UNL     1       5.136  26.715  52.560  1.00  0.00     0.226 A 
HETATM    8  N   UNL     1       5.011  27.851  53.323  1.00  0.00    -0.035 NA
HETATM    9  C   UNL     1       4.826  29.014  49.931  1.00  0.00     0.208 A 
HETATM   10  C   UNL     1       4.618  30.498  50.212  1.00  0.00     0.070 A 
HETATM   11  H   UNL     1       4.659  30.520  53.490  1.00  0.00     0.184 HD
ENDROOT
BRANCH   7  12
HETATM   12  S   UNL     1       5.213  25.135  53.285  1.00  0.00    -0.083 SA
BRANCH  12  13
HETATM   13  C   UNL     1       6.997  24.950  53.555  1.00  0.00     0.123 C 
BRANCH  13  14
HETATM   14  C   UNL     1       7.354  23.526  53.918  1.00  0.00    -0.027 A 
HETATM   15  C   UNL     1       7.438  23.077  55.247  1.00  0.00     0.041 A 
HETATM   16 CL   UNL     1       7.118  24.113  56.592  1.00  0.00    -0.084 Cl
HETATM   17  C   UNL     1       7.792  21.752  55.529  1.00  0.00     0.024 A 
HETATM   18  C   UNL     1       8.076  20.864  54.494  1.00  0.00     0.002 A 
HETATM   19  C   UNL     1       8.008  21.295  53.173  1.00  0.00     0.001 A 
HETATM   20  C   UNL     1       7.650  22.614  52.886  1.00  0.00     0.009 A 
ENDBRANCH  13  14
ENDBRANCH  12  13
ENDBRANCH   7  12
BRANCH   9  21
HETATM   21  C   UNL     1       3.737  28.385  49.072  1.00  0.00     0.032 A 
HETATM   22  C   UNL     1       4.004  27.728  47.860  1.00  0.00     0.045 A 
HETATM   23 CL   UNL     1       5.597  27.609  47.201  1.00  0.00    -0.084 Cl
HETATM   24  C   UNL     1       2.970  27.136  47.122  1.00  0.00     0.024 A 
HETATM   25  C   UNL     1       1.654  27.183  47.581  1.00  0.00     0.005 A 
HETATM   26  C   UNL     1       1.371  27.826  48.780  1.00  0.00     0.043 A 
HETATM   27  C   UNL     1       2.404  28.412  49.508  1.00  0.00     0.126 A 
HETATM   28  F   UNL     1       2.092  29.016  50.664  1.00  0.00    -0.205 F 
ENDBRANCH   9  21
BRANCH  10  29
HETATM   29  C   UNL     1       4.415  31.370  49.038  1.00  0.00     0.293 C 
HETATM   30  O   UNL     1       3.327  31.744  48.631  1.00  0.00    -0.259 OA
BRANCH  29  31
HETATM   31  O   UNL     1       5.617  31.669  48.491  1.00  0.00    -0.323 OA
HETATM   32  C   UNL     1       5.774  33.050  48.160  1.00  0.00     0.213 C 
ENDBRANCH  29  31
ENDBRANCH  10  29
TORSDOF 6
ENDMDL
MODEL 5
REMARK VINA RESULT:      -8.5      5.728      7.126
REMARK  6 active torsions:
REMARK  status: ('A' for Active; 'I' for Inactive)
REMARK    1  A    between atoms: C_7  and  S_8 
REMARK    2  A    between atoms: S_8  and  C_9 
REMARK    3  A    between atoms: C_9  and  C_10 
REMARK    4  A    between atoms: C_18  and  C_19 
REMARK    5  A    between atoms: C_27  and  C_28 
REMARK    6  A    between atoms: C_28  and  O_29 
ROOT
HETATM    1  C   UNL     1       3.020  26.093  47.519  1.00  0.00     0.070 C 
HETATM    2  C   UNL     1       3.557  26.751  48.765  1.00  0.00     0.037 A 
HETATM    3  N   UNL     1       4.432  25.979  49.524  1.00  0.00    -0.192 N 
HETATM    4  C   UNL     1       5.012  26.412  50.657  1.00  0.00     0.726 A 
HETATM    5  N   UNL     1       4.704  27.654  51.134  1.00  0.00    -0.082 N 
HETATM    6  N   UNL     1       5.340  27.909  52.296  1.00  0.00    -0.128 NA
HETATM    7  C   UNL     1       6.085  26.801  52.419  1.00  0.00     0.226 A 
HETATM    8  N   UNL     1       5.885  25.849  51.449  1.00  0.00    -0.035 NA
HETATM    9  C   UNL     1       3.789  28.594  50.468  1.00  0.00     0.208 A 
HETATM   10  C   UNL     1       3.227  28.000  49.181  1.00  0.00     0.070 A 
HETATM   11  H   UNL     1       4.704  25.073  49.152  1.00  0.00     0.184 HD
ENDROOT
BRANCH   7  12
HETATM   12  S   UNL     1       7.256  26.578  53.687  1.00  0.00    -0.083 SA
BRANCH  12  13
HETATM   13  C   UNL     1       6.561  25.155  54.572  1.00  0.00     0.123 C 
BRANCH  13  14
HETATM   14  C   UNL     1       7.415  23.921  54.386  1.00  0.00    -0.027 A 
HETATM   15  C   UNL     1       8.412  23.541  55.300  1.00  0.00     0.041 A 
HETATM   16 CL   UNL     1       8.737  24.444  56.738  1.00  0.00    -0.084 Cl
HETATM   17  C   UNL     1       9.190  22.400  55.071  1.00  0.00     0.024 A 
HETATM   18  C   UNL     1       8.991  21.631  53.927  1.00  0.00     0.002 A 
HETATM   19  C   UNL     1       8.016  21.999  53.005  1.00  0.00     0.001 A 
HETATM   20  C   UNL     1       7.234  23.134  53.232  1.00  0.00     0.009 A 
ENDBRANCH  13  14
ENDBRANCH  12  13
ENDBRANCH   7  12
BRANCH   9  21
HETATM   21  C   UNL     1       4.492  29.931  50.281  1.00  0.00     0.032 A 
HETATM   22  C   UNL     1       4.067  31.112  50.911  1.00  0.00     0.045 A 
HETATM   23 CL   UNL     1       2.673  31.169  51.930  1.00  0.00    -0.084 Cl
HETATM   24  C   UNL     1       4.769  32.313  50.734  1.00  0.00     0.024 A 
HETATM   25  C   UNL     1       5.906  32.357  49.929  1.00  0.00     0.005 A 
HETATM   26  C   UNL     1       6.343  31.197  49.299  1.00  0.00     0.043 A 
HETATM   27  C   UNL     1       5.642  30.008  49.481  1.00  0.00     0.126 A 
HETATM   28  F   UNL     1       6.099  28.909  48.863  1.00  0.00    -0.205 F 
ENDBRANCH   9  21
BRANCH  10  29
HETATM   29  C   UNL     1       2.333  28.868  48.389  1.00  0.00     0.293 C 
HETATM   30  O   UNL     1       1.189  29.154  48.701  1.00  0.00    -0.259 OA
BRANCH  29  31
HETATM   31  O   UNL     1       2.981  29.274  47.271  1.00  0.00    -0.323 OA
HETATM   32  C   UNL     1       2.856  30.673  47.006  1.00  0.00     0.213 C 
ENDBRANCH  29  31
ENDBRANCH  10  29
TORSDOF 6
ENDMDL
MODEL 6
REMARK VINA RESULT:      -8.0      2.488      3.231
REMARK  6 active torsions:
REMARK  status: ('A' for Active; 'I' for Inactive)
REMARK    1  A    between atoms: C_7  and  S_8 
REMARK    2  A    between atoms: S_8  and  C_9 
REMARK    3  A    between atoms: C_9  and  C_10 
REMARK    4  A    between atoms: C_18  and  C_19 
REMARK    5  A    between atoms: C_27  and  C_28 
REMARK    6  A    between atoms: C_28  and  O_29 
ROOT
HETATM    1  C   UNL     1       4.443  31.964  55.094  1.00  0.00     0.070 C 
HETATM    2  C   UNL     1       5.201  31.089  56.060  1.00  0.00     0.037 A 
HETATM    3  N   UNL     1       5.642  29.871  55.550  1.00  0.00    -0.192 N 
HETATM    4  C   UNL     1       6.342  28.975  56.268  1.00  0.00     0.726 A 
HETATM    5  N   UNL     1       6.605  29.230  57.583  1.00  0.00    -0.082 N 
HETATM    6  N   UNL     1       7.276  28.213  58.159  1.00  0.00    -0.128 NA
HETATM    7  C   UNL     1       7.460  27.407  57.104  1.00  0.00     0.226 A 
HETATM    8  N   UNL     1       6.872  27.828  55.935  1.00  0.00    -0.035 NA
HETATM    9  C   UNL     1       6.200  30.458  58.285  1.00  0.00     0.208 A 
HETATM   10  C   UNL     1       5.447  31.404  57.356  1.00  0.00     0.070 A 
HETATM   11  H   UNL     1       5.493  29.694  54.560  1.00  0.00     0.184 HD
ENDROOT
BRANCH   7  12
HETATM   12  S   UNL     1       8.402  25.945  57.173  1.00  0.00    -0.083 SA
BRANCH  12  13
HETATM   13  C   UNL     1       7.141  24.688  56.830  1.00  0.00     0.123 C 
BRANCH  13  14
HETATM   14  C   UNL     1       7.417  23.974  55.526  1.00  0.00    -0.027 A 
HETATM   15  C   UNL     1       8.003  22.699  55.465  1.00  0.00     0.041 A 
HETATM   16 CL   UNL     1       8.443  21.818  56.886  1.00  0.00    -0.084 Cl
HETATM   17  C   UNL     1       8.256  22.090  54.231  1.00  0.00     0.024 A 
HETATM   18  C   UNL     1       7.939  22.747  53.043  1.00  0.00     0.002 A 
HETATM   19  C   UNL     1       7.368  24.015  53.085  1.00  0.00     0.001 A 
HETATM   20  C   UNL     1       7.109  24.624  54.315  1.00  0.00     0.009 A 
ENDBRANCH  13  14
ENDBRANCH  12  13
ENDBRANCH   7  12
BRANCH   9  21
HETATM   21  C   UNL     1       7.419  31.080  58.952  1.00  0.00     0.032 A 
HETATM   22  C   UNL     1       7.385  31.637  60.240  1.00  0.00     0.045 A 
HETATM   23 CL   UNL     1       5.937  31.710  61.181  1.00  0.00    -0.084 Cl
HETATM   24  C   UNL     1       8.544  32.167  60.824  1.00  0.00     0.024 A 
HETATM   25  C   UNL     1       9.756  32.148  60.137  1.00  0.00     0.005 A 
HETATM   26  C   UNL     1       9.811  31.598  58.862  1.00  0.00     0.043 A 
HETATM   27  C   UNL     1       8.656  31.072  58.288  1.00  0.00     0.126 A 
HETATM   28  F   UNL     1       8.749  30.544  57.059  1.00  0.00    -0.205 F 
ENDBRANCH   9  21
BRANCH  10  29
HETATM   29  C   UNL     1       5.031  32.700  57.930  1.00  0.00     0.293 C 
HETATM   30  O   UNL     1       5.606  33.759  57.739  1.00  0.00    -0.259 OA
BRANCH  29  31
HETATM   31  O   UNL     1       3.933  32.515  58.700  1.00  0.00    -0.323 OA
HETATM   32  C   UNL     1       3.527  33.683  59.417  1.00  0.00     0.213 C 
ENDBRANCH  29  31
ENDBRANCH  10  29
TORSDOF 6
ENDMDL
MODEL 7
REMARK VINA RESULT:      -7.5      2.901      4.020
REMARK  6 active torsions:
REMARK  status: ('A' for Active; 'I' for Inactive)
REMARK    1  A    between atoms: C_7  and  S_8 
REMARK    2  A    between atoms: S_8  and  C_9 
REMARK    3  A    between atoms: C_9  and  C_10 
REMARK    4  A    between atoms: C_18  and  C_19 
REMARK    5  A    between atoms: C_27  and  C_28 
REMARK    6  A    between atoms: C_28  and  O_29 
ROOT
HETATM    1  C   UNL     1       4.651  33.288  54.315  1.00  0.00     0.070 C 
HETATM    2  C   UNL     1       4.835  32.242  55.384  1.00  0.00     0.037 A 
HETATM    3  N   UNL     1       5.219  30.982  54.933  1.00  0.00    -0.192 N 
HETATM    4  C   UNL     1       5.439  29.936  55.750  1.00  0.00     0.726 A 
HETATM    5  N   UNL     1       5.234  30.081  57.093  1.00  0.00    -0.082 N 
HETATM    6  N   UNL     1       5.459  28.928  57.754  1.00  0.00    -0.128 NA
HETATM    7  C   UNL     1       5.881  28.145  56.751  1.00  0.00     0.226 A 
HETATM    8  N   UNL     1       5.851  28.721  55.504  1.00  0.00    -0.035 NA
HETATM    9  C   UNL     1       4.813  31.336  57.735  1.00  0.00     0.208 A 
HETATM   10  C   UNL     1       4.632  32.450  56.709  1.00  0.00     0.070 A 
HETATM   11  H   UNL     1       5.421  30.878  53.942  1.00  0.00     0.184 HD
ENDROOT
BRANCH   7  12
HETATM   12  S   UNL     1       6.466  26.523  56.991  1.00  0.00    -0.083 SA
BRANCH  12  13
HETATM   13  C   UNL     1       5.591  25.628  55.677  1.00  0.00     0.123 C 
BRANCH  13  14
HETATM   14  C   UNL     1       6.524  24.708  54.924  1.00  0.00    -0.027 A 
HETATM   15  C   UNL     1       6.320  24.349  53.580  1.00  0.00     0.041 A 
HETATM   16 CL   UNL     1       4.987  24.951  52.659  1.00  0.00    -0.084 Cl
HETATM   17  C   UNL     1       7.203  23.477  52.934  1.00  0.00     0.024 A 
HETATM   18  C   UNL     1       8.293  22.944  53.619  1.00  0.00     0.002 A 
HETATM   19  C   UNL     1       8.504  23.279  54.953  1.00  0.00     0.001 A 
HETATM   20  C   UNL     1       7.628  24.154  55.601  1.00  0.00     0.009 A 
ENDBRANCH  13  14
ENDBRANCH  12  13
ENDBRANCH   7  12
BRANCH   9  21
HETATM   21  C   UNL     1       5.784  31.675  58.858  1.00  0.00     0.032 A 
HETATM   22  C   UNL     1       5.365  32.078  60.136  1.00  0.00     0.045 A 
HETATM   23 CL   UNL     1       3.698  32.270  60.546  1.00  0.00    -0.084 Cl
HETATM   24  C   UNL     1       6.299  32.346  61.146  1.00  0.00     0.024 A 
HETATM   25  C   UNL     1       7.665  32.215  60.902  1.00  0.00     0.005 A 
HETATM   26  C   UNL     1       8.099  31.814  59.644  1.00  0.00     0.043 A 
HETATM   27  C   UNL     1       7.166  31.548  58.645  1.00  0.00     0.126 A 
HETATM   28  F   UNL     1       7.623  31.157  57.447  1.00  0.00    -0.205 F 
ENDBRANCH   9  21
BRANCH  10  29
HETATM   29  C   UNL     1       4.261  33.778  57.236  1.00  0.00     0.293 C 
HETATM   30  O   UNL     1       5.033  34.715  57.362  1.00  0.00    -0.259 OA
BRANCH  29  31
HETATM   31  O   UNL     1       2.947  33.777  57.563  1.00  0.00    -0.323 OA
HETATM   32  C   UNL     1       2.517  34.965  58.232  1.00  0.00     0.213 C 
ENDBRANCH  29  31
ENDBRANCH  10  29
TORSDOF 6
ENDMDL
MODEL 8
REMARK VINA RESULT:      -7.5      3.891      7.767
REMARK  6 active torsions:
REMARK  status: ('A' for Active; 'I' for Inactive)
REMARK    1  A    between atoms: C_7  and  S_8 
REMARK    2  A    between atoms: S_8  and  C_9 
REMARK    3  A    between atoms: C_9  and  C_10 
REMARK    4  A    between atoms: C_18  and  C_19 
REMARK    5  A    between atoms: C_27  and  C_28 
REMARK    6  A    between atoms: C_28  and  O_29 
ROOT
HETATM    1  C   UNL     1       4.657  24.601  53.003  1.00  0.00     0.070 C 
HETATM    2  C   UNL     1       4.980  26.047  53.283  1.00  0.00     0.037 A 
HETATM    3  N   UNL     1       3.927  26.941  53.114  1.00  0.00    -0.192 N 
HETATM    4  C   UNL     1       4.035  28.265  53.331  1.00  0.00     0.726 A 
HETATM    5  N   UNL     1       5.245  28.787  53.691  1.00  0.00    -0.082 N 
HETATM    6  N   UNL     1       5.183  30.127  53.827  1.00  0.00    -0.128 NA
HETATM    7  C   UNL     1       3.877  30.339  53.613  1.00  0.00     0.226 A 
HETATM    8  N   UNL     1       3.149  29.223  53.275  1.00  0.00    -0.035 NA
HETATM    9  C   UNL     1       6.463  27.988  53.900  1.00  0.00     0.208 A 
HETATM   10  C   UNL     1       6.201  26.506  53.656  1.00  0.00     0.070 A 
HETATM   11  H   UNL     1       3.013  26.557  52.892  1.00  0.00     0.184 HD
ENDROOT
BRANCH   7  12
HETATM   12  S   UNL     1       3.125  31.899  53.782  1.00  0.00    -0.083 SA
BRANCH  12  13
HETATM   13  C   UNL     1       2.360  31.753  55.420  1.00  0.00     0.123 C 
BRANCH  13  14
HETATM   14  C   UNL     1       3.339  32.107  56.518  1.00  0.00    -0.027 A 
HETATM   15  C   UNL     1       3.621  33.432  56.888  1.00  0.00     0.041 A 
HETATM   16 CL   UNL     1       2.853  34.784  56.133  1.00  0.00    -0.084 Cl
HETATM   17  C   UNL     1       4.551  33.707  57.897  1.00  0.00     0.024 A 
HETATM   18  C   UNL     1       5.218  32.666  58.542  1.00  0.00     0.002 A 
HETATM   19  C   UNL     1       4.959  31.348  58.179  1.00  0.00     0.001 A 
HETATM   20  C   UNL     1       4.028  31.069  57.176  1.00  0.00     0.009 A 
ENDBRANCH  13  14
ENDBRANCH  12  13
ENDBRANCH   7  12
BRANCH   9  21
HETATM   21  C   UNL     1       7.039  28.302  55.273  1.00  0.00     0.032 A 
HETATM   22  C   UNL     1       6.328  28.098  56.466  1.00  0.00     0.045 A 
HETATM   23 CL   UNL     1       4.703  27.509  56.487  1.00  0.00    -0.084 Cl
HETATM   24  C   UNL     1       6.916  28.370  57.709  1.00  0.00     0.024 A 
HETATM   25  C   UNL     1       8.224  28.846  57.785  1.00  0.00     0.005 A 
HETATM   26  C   UNL     1       8.945  29.052  56.615  1.00  0.00     0.043 A 
HETATM   27  C   UNL     1       8.355  28.779  55.384  1.00  0.00     0.126 A 
HETATM   28  F   UNL     1       9.085  28.982  54.278  1.00  0.00    -0.205 F 
ENDBRANCH   9  21
BRANCH  10  29
HETATM   29  C   UNL     1       7.335  25.589  53.885  1.00  0.00     0.293 C 
HETATM   30  O   UNL     1       7.646  25.126  54.970  1.00  0.00    -0.259 OA
BRANCH  29  31
HETATM   31  O   UNL     1       7.970  25.363  52.710  1.00  0.00    -0.323 OA
HETATM   32  C   UNL     1       8.152  23.978  52.408  1.00  0.00     0.213 C 
ENDBRANCH  29  31
ENDBRANCH  10  29
TORSDOF 6
ENDMDL
MODEL 9
REMARK VINA RESULT:      -7.4      5.528      7.981
REMARK  6 active torsions:
REMARK  status: ('A' for Active; 'I' for Inactive)
REMARK    1  A    between atoms: C_7  and  S_8 
REMARK    2  A    between atoms: S_8  and  C_9 
REMARK    3  A    between atoms: C_9  and  C_10 
REMARK    4  A    between atoms: C_18  and  C_19 
REMARK    5  A    between atoms: C_27  and  C_28 
REMARK    6  A    between atoms: C_28  and  O_29 
ROOT
HETATM    1  C   UNL     1       3.785  25.911  47.642  1.00  0.00     0.070 C 
HETATM    2  C   UNL     1       4.129  26.610  48.932  1.00  0.00     0.037 A 
HETATM    3  N   UNL     1       5.001  25.926  49.773  1.00  0.00    -0.192 N 
HETATM    4  C   UNL     1       5.422  26.407  50.957  1.00  0.00     0.726 A 
HETATM    5  N   UNL     1       4.943  27.607  51.400  1.00  0.00    -0.082 N 
HETATM    6  N   UNL     1       5.434  27.915  52.617  1.00  0.00    -0.128 NA
HETATM    7  C   UNL     1       6.274  26.889  52.814  1.00  0.00     0.226 A 
HETATM    8  N   UNL     1       6.268  25.929  51.831  1.00  0.00    -0.035 NA
HETATM    9  C   UNL     1       4.005  28.453  50.646  1.00  0.00     0.208 A 
HETATM   10  C   UNL     1       3.633  27.815  49.312  1.00  0.00     0.070 A 
HETATM   11  H   UNL     1       5.399  25.055  49.431  1.00  0.00     0.184 HD
ENDROOT
BRANCH   7  12
HETATM   12  S   UNL     1       7.334  26.777  54.190  1.00  0.00    -0.083 SA
BRANCH  12  13
HETATM   13  C   UNL     1       7.944  28.481  54.313  1.00  0.00     0.123 C 
BRANCH  13  14
HETATM   14  C   UNL     1       7.964  28.954  55.749  1.00  0.00    -0.027 A 
HETATM   15  C   UNL     1       6.817  29.421  56.413  1.00  0.00     0.041 A 
HETATM   16 CL   UNL     1       5.267  29.474  55.649  1.00  0.00    -0.084 Cl
HETATM   17  C   UNL     1       6.893  29.868  57.737  1.00  0.00     0.024 A 
HETATM   18  C   UNL     1       8.112  29.864  58.412  1.00  0.00     0.002 A 
HETATM   19  C   UNL     1       9.260  29.416  57.766  1.00  0.00     0.001 A 
HETATM   20  C   UNL     1       9.188  28.964  56.446  1.00  0.00     0.009 A 
ENDBRANCH  13  14
ENDBRANCH  12  13
ENDBRANCH   7  12
BRANCH   9  21
HETATM   21  C   UNL     1       4.581  29.857  50.526  1.00  0.00     0.032 A 
HETATM   22  C   UNL     1       4.082  30.953  51.248  1.00  0.00     0.045 A 
HETATM   23 CL   UNL     1       2.729  30.821  52.316  1.00  0.00    -0.084 Cl
HETATM   24  C   UNL     1       4.670  32.220  51.128  1.00  0.00     0.024 A 
HETATM   25  C   UNL     1       5.766  32.416  50.289  1.00  0.00     0.005 A 
HETATM   26  C   UNL     1       6.276  31.343  49.569  1.00  0.00     0.043 A 
HETATM   27  C   UNL     1       5.688  30.087  49.694  1.00  0.00     0.126 A 
HETATM   28  F   UNL     1       6.213  29.074  48.989  1.00  0.00    -0.205 F 
ENDBRANCH   9  21
BRANCH  10  29
HETATM   29  C   UNL     1       2.736  28.594  48.435  1.00  0.00     0.293 C 
HETATM   30  O   UNL     1       3.111  29.367  47.570  1.00  0.00    -0.259 OA
BRANCH  29  31
HETATM   31  O   UNL     1       1.449  28.319  48.758  1.00  0.00    -0.323 OA
HETATM   32  C   UNL     1       0.701  27.725  47.695  1.00  0.00     0.213 C 
ENDBRANCH  29  31
ENDBRANCH  10  29
TORSDOF 6
ENDMDL
MODEL 10
REMARK VINA RESULT:      -7.3      6.292      8.274
REMARK  6 active torsions:
REMARK  status: ('A' for Active; 'I' for Inactive)
REMARK    1  A    between atoms: C_7  and  S_8 
REMARK    2  A    between atoms: S_8  and  C_9 
REMARK    3  A    between atoms: C_9  and  C_10 
REMARK    4  A    between atoms: C_18  and  C_19 
REMARK    5  A    between atoms: C_27  and  C_28 
REMARK    6  A    between atoms: C_28  and  O_29 
ROOT
HETATM    1  C   UNL     1       3.255  33.118  49.846  1.00  0.00     0.070 C 
HETATM    2  C   UNL     1       3.699  31.694  50.066  1.00  0.00     0.037 A 
HETATM    3  N   UNL     1       3.827  31.303  51.395  1.00  0.00    -0.192 N 
HETATM    4  C   UNL     1       4.202  30.066  51.772  1.00  0.00     0.726 A 
HETATM    5  N   UNL     1       4.525  29.145  50.817  1.00  0.00    -0.082 N 
HETATM    6  N   UNL     1       4.917  27.979  51.369  1.00  0.00    -0.128 NA
HETATM    7  C   UNL     1       4.724  28.242  52.669  1.00  0.00     0.226 A 
HETATM    8  N   UNL     1       4.317  29.523  52.955  1.00  0.00    -0.035 NA
HETATM    9  C   UNL     1       4.461  29.395  49.369  1.00  0.00     0.208 A 
HETATM   10  C   UNL     1       3.991  30.816  49.073  1.00  0.00     0.070 A 
HETATM   11  H   UNL     1       3.543  31.966  52.111  1.00  0.00     0.184 HD
ENDROOT
BRANCH   7  12
HETATM   12  S   UNL     1       4.932  27.053  53.923  1.00  0.00    -0.083 SA
BRANCH  12  13
HETATM   13  C   UNL     1       6.725  26.783  53.869  1.00  0.00     0.123 C 
BRANCH  13  14
HETATM   14  C   UNL     1       7.083  25.379  54.302  1.00  0.00    -0.027 A 
HETATM   15  C   UNL     1       7.547  24.401  53.406  1.00  0.00     0.041 A 
HETATM   16 CL   UNL     1       7.773  24.725  51.723  1.00  0.00    -0.084 Cl
HETATM   17  C   UNL     1       7.846  23.109  53.855  1.00  0.00     0.024 A 
HETATM   18  C   UNL     1       7.676  22.774  55.197  1.00  0.00     0.002 A 
HETATM   19  C   UNL     1       7.206  23.727  56.095  1.00  0.00     0.001 A 
HETATM   20  C   UNL     1       6.912  25.019  55.653  1.00  0.00     0.009 A 
ENDBRANCH  13  14
ENDBRANCH  12  13
ENDBRANCH   7  12
BRANCH   9  21
HETATM   21  C   UNL     1       3.619  28.312  48.709  1.00  0.00     0.032 A 
HETATM   22  C   UNL     1       2.246  28.156  48.954  1.00  0.00     0.045 A 
HETATM   23 CL   UNL     1       1.382  29.157  50.067  1.00  0.00    -0.084 Cl
HETATM   24  C   UNL     1       1.508  27.163  48.295  1.00  0.00     0.024 A 
HETATM   25  C   UNL     1       2.124  26.311  47.379  1.00  0.00     0.005 A 
HETATM   26  C   UNL     1       3.483  26.452  47.122  1.00  0.00     0.043 A 
HETATM   27  C   UNL     1       4.210  27.442  47.780  1.00  0.00     0.126 A 
HETATM   28  F   UNL     1       5.516  27.552  47.500  1.00  0.00    -0.205 F 
ENDBRANCH   9  21
BRANCH  10  29
HETATM   29  C   UNL     1       3.834  31.176  47.650  1.00  0.00     0.293 C 
HETATM   30  O   UNL     1       2.777  31.155  47.042  1.00  0.00    -0.259 OA
BRANCH  29  31
HETATM   31  O   UNL     1       5.042  31.516  47.140  1.00  0.00    -0.323 OA
HETATM   32  C   UNL     1       4.984  32.018  45.803  1.00  0.00     0.213 C 
ENDBRANCH  29  31
ENDBRANCH  10  29
TORSDOF 6
ENDMDL
