MODEL 1
REMARK VINA RESULT:     -11.3      0.000      0.000
REMARK  7 active torsions:
REMARK  status: ('A' for Active; 'I' for Inactive)
REMARK    1  A    between atoms: C_3  and  C_4 
REMARK    2  A    between atoms: C_4  and  S_5 
REMARK    3  A    between atoms: S_5  and  C_6 
REMARK    4  A    between atoms: C_6  and  C_7 
REMARK    5  A    between atoms: C_16  and  C_17 
REMARK       I    between atoms: C_17  and  N_18 
REMARK    6  A    between atoms: N_18  and  C_19 
REMARK    7  A    between atoms: C_19  and  C_20 
ROOT
HETATM    1  C   UNL     1       6.176  28.033  54.908  1.00  0.00     0.162 C 
HETATM    2  N   UNL     1       7.519  28.675  54.875  1.00  0.00    -0.277 NA
HETATM    3  C   UNL     1       7.947  29.210  56.103  1.00  0.00     0.036 A 
HETATM    4  C   UNL     1       7.022  29.648  57.071  1.00  0.00     0.057 A 
HETATM    5  N   UNL     1       5.650  29.495  56.837  1.00  0.00    -0.324 N 
HETATM    6  C   UNL     1       5.162  28.859  55.723  1.00  0.00     0.240 C 
HETATM    7  O   UNL     1       3.962  28.897  55.452  1.00  0.00    -0.271 OA
HETATM    8  C   UNL     1       9.305  29.472  56.314  1.00  0.00     0.027 A 
HETATM    9  C   UNL     1       9.741  30.078  57.499  1.00  0.00     0.019 A 
HETATM   10  C   UNL     1       8.814  30.458  58.476  1.00  0.00     0.034 A 
HETATM   11  C   UNL     1       7.446  30.265  58.247  1.00  0.00     0.048 A 
HETATM   12  H   UNL     1       8.229  28.119  54.409  1.00  0.00     0.128 HD
HETATM   13  H   UNL     1       4.972  29.952  57.432  1.00  0.00     0.169 HD
ENDROOT
BRANCH  10  14
HETATM   14  C   UNL     1       9.218  31.092  59.761  1.00  0.00     0.252 C 
HETATM   15  N   UNL     1       8.755  30.505  60.916  1.00  0.00    -0.353 N 
HETATM   16  H   UNL     1       8.188  29.669  60.889  1.00  0.00     0.163 HD
HETATM   17  O   UNL     1       9.893  32.114  59.750  1.00  0.00    -0.268 OA
BRANCH  15  18
HETATM   18  C   UNL     1       9.057  31.079  62.209  1.00  0.00     0.161 C 
BRANCH  18  19
HETATM   19  C   UNL     1       7.868  31.802  62.794  1.00  0.00    -0.040 A 
HETATM   20  C   UNL     1       6.568  31.474  62.386  1.00  0.00     0.010 A 
HETATM   21  C   UNL     1       5.462  32.114  62.955  1.00  0.00     0.024 A 
HETATM   22  C   UNL     1       5.652  33.085  63.936  1.00  0.00     0.034 A 
HETATM   23 CL   UNL     1       4.291  33.873  64.634  1.00  0.00    -0.084 Cl
HETATM   24  C   UNL     1       6.936  33.416  64.360  1.00  0.00     0.024 A 
HETATM   25  C   UNL     1       8.039  32.771  63.797  1.00  0.00     0.010 A 
ENDBRANCH  18  19
ENDBRANCH  15  18
ENDBRANCH  10  14
BRANCH   1  26
HETATM   26  C   UNL     1       6.307  26.596  55.457  1.00  0.00     0.103 C 
BRANCH  26  27
HETATM   27  S   UNL     1       6.068  25.207  54.293  1.00  0.00    -0.162 SA
BRANCH  27  28
HETATM   28  C   UNL     1       7.790  24.649  54.090  1.00  0.00     0.112 C 
BRANCH  28  29
HETATM   29  C   UNL     1       7.904  23.148  54.237  1.00  0.00    -0.043 A 
HETATM   30  C   UNL     1       8.119  22.525  55.485  1.00  0.00    -0.055 A 
HETATM   31  C   UNL     1       8.233  23.316  56.761  1.00  0.00     0.049 C 
HETATM   32  C   UNL     1       8.218  21.124  55.546  1.00  0.00     0.007 A 
HETATM   33  C   UNL     1       8.126  20.348  54.391  1.00  0.00     0.001 A 
HETATM   34  C   UNL     1       7.932  20.960  53.158  1.00  0.00     0.001 A 
HETATM   35  C   UNL     1       7.824  22.348  53.080  1.00  0.00     0.008 A 
ENDBRANCH  28  29
ENDBRANCH  27  28
ENDBRANCH  26  27
ENDBRANCH   1  26
TORSDOF 7
ENDMDL
MODEL 2
REMARK VINA RESULT:     -10.6      1.610      2.117
REMARK  7 active torsions:
REMARK  status: ('A' for Active; 'I' for Inactive)
REMARK    1  A    between atoms: C_3  and  C_4 
REMARK    2  A    between atoms: C_4  and  S_5 
REMARK    3  A    between atoms: S_5  and  C_6 
REMARK    4  A    between atoms: C_6  and  C_7 
REMARK    5  A    between atoms: C_16  and  C_17 
REMARK       I    between atoms: C_17  and  N_18 
REMARK    6  A    between atoms: N_18  and  C_19 
REMARK    7  A    between atoms: C_19  and  C_20 
ROOT
HETATM    1  C   UNL     1       5.289  26.313  55.242  1.00  0.00     0.162 C 
HETATM    2  N   UNL     1       4.769  27.683  55.508  1.00  0.00    -0.277 NA
HETATM    3  C   UNL     1       5.601  28.482  56.313  1.00  0.00     0.036 A 
HETATM    4  C   UNL     1       6.479  27.907  57.253  1.00  0.00     0.057 A 
HETATM    5  N   UNL     1       6.574  26.514  57.350  1.00  0.00    -0.324 N 
HETATM    6  C   UNL     1       5.896  25.671  56.505  1.00  0.00     0.240 C 
HETATM    7  O   UNL     1       5.854  24.461  56.724  1.00  0.00    -0.271 OA
HETATM    8  C   UNL     1       5.446  29.872  56.312  1.00  0.00     0.027 A 
HETATM    9  C   UNL     1       6.209  30.678  57.166  1.00  0.00     0.019 A 
HETATM   10  C   UNL     1       7.119  30.095  58.056  1.00  0.00     0.034 A 
HETATM   11  C   UNL     1       7.232  28.701  58.116  1.00  0.00     0.048 A 
HETATM   12  H   UNL     1       4.430  28.162  54.680  1.00  0.00     0.128 HD
HETATM   13  H   UNL     1       7.062  26.083  58.123  1.00  0.00     0.169 HD
ENDROOT
BRANCH  10  14
HETATM   14  C   UNL     1       7.968  30.901  58.975  1.00  0.00     0.252 C 
HETATM   15  N   UNL     1       7.669  30.830  60.317  1.00  0.00    -0.353 N 
HETATM   16  H   UNL     1       6.925  30.239  60.659  1.00  0.00     0.163 HD
HETATM   17  O   UNL     1       8.850  31.618  58.519  1.00  0.00    -0.268 OA
BRANCH  15  18
HETATM   18  C   UNL     1       8.409  31.616  61.280  1.00  0.00     0.161 C 
BRANCH  18  19
HETATM   19  C   UNL     1       7.524  32.117  62.396  1.00  0.00    -0.040 A 
HETATM   20  C   UNL     1       8.088  32.688  63.546  1.00  0.00     0.010 A 
HETATM   21  C   UNL     1       7.270  33.189  64.564  1.00  0.00     0.024 A 
HETATM   22  C   UNL     1       5.885  33.123  64.435  1.00  0.00     0.034 A 
HETATM   23 CL   UNL     1       4.879  33.740  65.689  1.00  0.00    -0.084 Cl
HETATM   24  C   UNL     1       5.308  32.569  63.295  1.00  0.00     0.024 A 
HETATM   25  C   UNL     1       6.125  32.076  62.276  1.00  0.00     0.010 A 
ENDBRANCH  18  19
ENDBRANCH  15  18
ENDBRANCH  10  14
BRANCH   1  26
HETATM   26  C   UNL     1       6.310  26.366  54.087  1.00  0.00     0.103 C 
BRANCH  26  27
HETATM   27  S   UNL     1       6.396  24.938  52.949  1.00  0.00    -0.162 SA
BRANCH  27  28
HETATM   28  C   UNL     1       8.123  24.417  53.206  1.00  0.00     0.112 C 
BRANCH  28  29
HETATM   29  C   UNL     1       8.199  22.998  53.722  1.00  0.00    -0.043 A 
HETATM   30  C   UNL     1       8.624  22.693  55.034  1.00  0.00    -0.055 A 
HETATM   31  C   UNL     1       9.014  23.767  56.015  1.00  0.00     0.049 C 
HETATM   32  C   UNL     1       8.674  21.350  55.445  1.00  0.00     0.007 A 
HETATM   33  C   UNL     1       8.329  20.320  54.571  1.00  0.00     0.001 A 
HETATM   34  C   UNL     1       7.928  20.616  53.273  1.00  0.00     0.001 A 
HETATM   35  C   UNL     1       7.865  21.943  52.851  1.00  0.00     0.008 A 
ENDBRANCH  28  29
ENDBRANCH  27  28
ENDBRANCH  26  27
ENDBRANCH   1  26
TORSDOF 7
ENDMDL
MODEL 3
REMARK VINA RESULT:     -10.5      2.080      3.002
REMARK  7 active torsions:
REMARK  status: ('A' for Active; 'I' for Inactive)
REMARK    1  A    between atoms: C_3  and  C_4 
REMARK    2  A    between atoms: C_4  and  S_5 
REMARK    3  A    between atoms: S_5  and  C_6 
REMARK    4  A    between atoms: C_6  and  C_7 
REMARK    5  A    between atoms: C_16  and  C_17 
REMARK       I    between atoms: C_17  and  N_18 
REMARK    6  A    between atoms: N_18  and  C_19 
REMARK    7  A    between atoms: C_19  and  C_20 
ROOT
HETATM    1  C   UNL     1       8.271  27.920  56.682  1.00  0.00     0.162 C 
HETATM    2  N   UNL     1       9.016  28.812  57.614  1.00  0.00    -0.277 NA
HETATM    3  C   UNL     1       8.208  29.687  58.362  1.00  0.00     0.036 A 
HETATM    4  C   UNL     1       6.959  30.121  57.879  1.00  0.00     0.057 A 
HETATM    5  N   UNL     1       6.479  29.629  56.659  1.00  0.00    -0.324 N 
HETATM    6  C   UNL     1       7.148  28.669  55.941  1.00  0.00     0.240 C 
HETATM    7  O   UNL     1       6.801  28.387  54.794  1.00  0.00    -0.271 OA
HETATM    8  C   UNL     1       8.712  30.275  59.527  1.00  0.00     0.027 A 
HETATM    9  C   UNL     1       7.953  31.211  60.242  1.00  0.00     0.019 A 
HETATM   10  C   UNL     1       6.688  31.591  59.778  1.00  0.00     0.034 A 
HETATM   11  C   UNL     1       6.203  31.062  58.576  1.00  0.00     0.048 A 
HETATM   12  H   UNL     1       9.714  28.332  58.173  1.00  0.00     0.128 HD
HETATM   13  H   UNL     1       5.675  30.050  56.214  1.00  0.00     0.169 HD
ENDROOT
BRANCH  10  14
HETATM   14  C   UNL     1       5.830  32.569  60.502  1.00  0.00     0.252 C 
HETATM   15  N   UNL     1       5.460  32.238  61.786  1.00  0.00    -0.353 N 
HETATM   16  H   UNL     1       5.780  31.384  62.221  1.00  0.00     0.163 HD
HETATM   17  O   UNL     1       5.451  33.586  59.934  1.00  0.00    -0.268 OA
BRANCH  15  18
HETATM   18  C   UNL     1       4.588  33.104  62.549  1.00  0.00     0.161 C 
BRANCH  18  19
HETATM   19  C   UNL     1       5.149  33.400  63.919  1.00  0.00    -0.040 A 
HETATM   20  C   UNL     1       6.535  33.397  64.133  1.00  0.00     0.010 A 
HETATM   21  C   UNL     1       7.060  33.709  65.392  1.00  0.00     0.024 A 
HETATM   22  C   UNL     1       6.201  34.029  66.441  1.00  0.00     0.034 A 
HETATM   23 CL   UNL     1       6.848  34.412  67.989  1.00  0.00    -0.084 Cl
HETATM   24  C   UNL     1       4.823  34.047  66.243  1.00  0.00     0.024 A 
HETATM   25  C   UNL     1       4.300  33.742  64.984  1.00  0.00     0.010 A 
ENDBRANCH  18  19
ENDBRANCH  15  18
ENDBRANCH  10  14
BRANCH   1  26
HETATM   26  C   UNL     1       7.724  26.705  57.462  1.00  0.00     0.103 C 
BRANCH  26  27
HETATM   27  S   UNL     1       8.377  25.050  57.042  1.00  0.00    -0.162 SA
BRANCH  27  28
HETATM   28  C   UNL     1       7.642  24.816  55.391  1.00  0.00     0.112 C 
BRANCH  28  29
HETATM   29  C   UNL     1       7.748  23.377  54.940  1.00  0.00    -0.043 A 
HETATM   30  C   UNL     1       7.844  23.017  53.578  1.00  0.00    -0.055 A 
HETATM   31  C   UNL     1       7.864  24.049  52.481  1.00  0.00     0.049 C 
HETATM   32  C   UNL     1       7.936  21.659  53.231  1.00  0.00     0.007 A 
HETATM   33  C   UNL     1       7.915  20.666  54.210  1.00  0.00     0.001 A 
HETATM   34  C   UNL     1       7.802  21.016  55.551  1.00  0.00     0.001 A 
HETATM   35  C   UNL     1       7.718  22.360  55.913  1.00  0.00     0.008 A 
ENDBRANCH  28  29
ENDBRANCH  27  28
ENDBRANCH  26  27
ENDBRANCH   1  26
TORSDOF 7
ENDMDL
MODEL 4
REMARK VINA RESULT:     -10.4      3.769     10.821
REMARK  7 active torsions:
REMARK  status: ('A' for Active; 'I' for Inactive)
REMARK    1  A    between atoms: C_3  and  C_4 
REMARK    2  A    between atoms: C_4  and  S_5 
REMARK    3  A    between atoms: S_5  and  C_6 
REMARK    4  A    between atoms: C_6  and  C_7 
REMARK    5  A    between atoms: C_16  and  C_17 
REMARK       I    between atoms: C_17  and  N_18 
REMARK    6  A    between atoms: N_18  and  C_19 
REMARK    7  A    between atoms: C_19  and  C_20 
ROOT
HETATM    1  C   UNL     1       8.693  31.365  59.031  1.00  0.00     0.162 C 
HETATM    2  N   UNL     1       7.338  31.315  58.416  1.00  0.00    -0.277 NA
HETATM    3  C   UNL     1       7.120  30.219  57.561  1.00  0.00     0.036 A 
HETATM    4  C   UNL     1       8.186  29.601  56.879  1.00  0.00     0.057 A 
HETATM    5  N   UNL     1       9.496  30.042  57.098  1.00  0.00    -0.324 N 
HETATM    6  C   UNL     1       9.800  31.013  58.019  1.00  0.00     0.240 C 
HETATM    7  O   UNL     1      10.926  31.508  58.063  1.00  0.00    -0.271 OA
HETATM    8  C   UNL     1       5.814  29.832  57.244  1.00  0.00     0.027 A 
HETATM    9  C   UNL     1       5.576  28.796  56.332  1.00  0.00     0.019 A 
HETATM   10  C   UNL     1       6.649  28.153  55.704  1.00  0.00     0.034 A 
HETATM   11  C   UNL     1       7.958  28.578  55.960  1.00  0.00     0.048 A 
HETATM   12  H   UNL     1       6.581  31.468  59.074  1.00  0.00     0.128 HD
HETATM   13  H   UNL     1      10.251  29.733  56.499  1.00  0.00     0.169 HD
ENDROOT
BRANCH  10  14
HETATM   14  C   UNL     1       6.459  27.035  54.739  1.00  0.00     0.252 C 
HETATM   15  N   UNL     1       7.590  26.547  54.124  1.00  0.00    -0.353 N 
HETATM   16  H   UNL     1       8.505  26.915  54.340  1.00  0.00     0.163 HD
HETATM   17  O   UNL     1       5.330  26.627  54.493  1.00  0.00    -0.268 OA
BRANCH  15  18
HETATM   18  C   UNL     1       7.497  25.494  53.136  1.00  0.00     0.161 C 
BRANCH  18  19
HETATM   19  C   UNL     1       7.743  24.133  53.741  1.00  0.00    -0.040 A 
HETATM   20  C   UNL     1       7.650  22.979  52.950  1.00  0.00     0.010 A 
HETATM   21  C   UNL     1       7.916  21.720  53.497  1.00  0.00     0.024 A 
HETATM   22  C   UNL     1       8.278  21.609  54.838  1.00  0.00     0.034 A 
HETATM   23 CL   UNL     1       8.605  20.059  55.511  1.00  0.00    -0.084 Cl
HETATM   24  C   UNL     1       8.385  22.746  55.635  1.00  0.00     0.024 A 
HETATM   25  C   UNL     1       8.127  24.004  55.086  1.00  0.00     0.010 A 
ENDBRANCH  18  19
ENDBRANCH  15  18
ENDBRANCH  10  14
BRANCH   1  26
HETATM   26  C   UNL     1       8.733  30.433  60.261  1.00  0.00     0.103 C 
BRANCH  26  27
HETATM   27  S   UNL     1       8.646  31.196  61.920  1.00  0.00    -0.162 SA
BRANCH  27  28
HETATM   28  C   UNL     1       7.116  32.169  61.754  1.00  0.00     0.112 C 
BRANCH  28  29
HETATM   29  C   UNL     1       6.676  32.736  63.086  1.00  0.00    -0.043 A 
HETATM   30  C   UNL     1       5.320  32.979  63.393  1.00  0.00    -0.055 A 
HETATM   31  C   UNL     1       4.215  32.673  62.418  1.00  0.00     0.049 C 
HETATM   32  C   UNL     1       4.985  33.511  64.650  1.00  0.00     0.007 A 
HETATM   33  C   UNL     1       5.973  33.818  65.585  1.00  0.00     0.001 A 
HETATM   34  C   UNL     1       7.311  33.596  65.278  1.00  0.00     0.001 A 
HETATM   35  C   UNL     1       7.660  33.061  64.039  1.00  0.00     0.008 A 
ENDBRANCH  28  29
ENDBRANCH  27  28
ENDBRANCH  26  27
ENDBRANCH   1  26
TORSDOF 7
ENDMDL
MODEL 5
REMARK VINA RESULT:     -10.3      1.649      2.165
REMARK  7 active torsions:
REMARK  status: ('A' for Active; 'I' for Inactive)
REMARK    1  A    between atoms: C_3  and  C_4 
REMARK    2  A    between atoms: C_4  and  S_5 
REMARK    3  A    between atoms: S_5  and  C_6 
REMARK    4  A    between atoms: C_6  and  C_7 
REMARK    5  A    between atoms: C_16  and  C_17 
REMARK       I    between atoms: C_17  and  N_18 
REMARK    6  A    between atoms: N_18  and  C_19 
REMARK    7  A    between atoms: C_19  and  C_20 
ROOT
HETATM    1  C   UNL     1       6.991  27.497  54.058  1.00  0.00     0.162 C 
HETATM    2  N   UNL     1       8.104  28.444  54.342  1.00  0.00    -0.277 NA
HETATM    3  C   UNL     1       8.187  28.872  55.680  1.00  0.00     0.036 A 
HETATM    4  C   UNL     1       7.046  28.917  56.504  1.00  0.00     0.057 A 
HETATM    5  N   UNL     1       5.814  28.473  56.007  1.00  0.00    -0.324 N 
HETATM    6  C   UNL     1       5.685  27.915  54.759  1.00  0.00     0.240 C 
HETATM    7  O   UNL     1       4.572  27.702  54.279  1.00  0.00    -0.271 OA
HETATM    8  C   UNL     1       9.379  29.421  56.164  1.00  0.00     0.027 A 
HETATM    9  C   UNL     1       9.456  29.926  57.468  1.00  0.00     0.019 A 
HETATM   10  C   UNL     1       8.327  29.913  58.295  1.00  0.00     0.034 A 
HETATM   11  C   UNL     1       7.110  29.430  57.798  1.00  0.00     0.048 A 
HETATM   12  H   UNL     1       8.998  28.156  53.956  1.00  0.00     0.128 HD
HETATM   13  H   UNL     1       4.959  28.653  56.514  1.00  0.00     0.169 HD
ENDROOT
BRANCH  10  14
HETATM   14  C   UNL     1       8.352  30.421  59.694  1.00  0.00     0.252 C 
HETATM   15  N   UNL     1       7.240  31.108  60.125  1.00  0.00    -0.353 N 
HETATM   16  H   UNL     1       6.438  31.237  59.525  1.00  0.00     0.163 HD
HETATM   17  O   UNL     1       9.352  30.258  60.383  1.00  0.00    -0.268 OA
BRANCH  15  18
HETATM   18  C   UNL     1       7.195  31.680  61.453  1.00  0.00     0.161 C 
BRANCH  18  19
HETATM   19  C   UNL     1       6.369  32.943  61.493  1.00  0.00    -0.040 A 
HETATM   20  C   UNL     1       5.315  33.129  60.587  1.00  0.00     0.010 A 
HETATM   21  C   UNL     1       4.522  34.280  60.647  1.00  0.00     0.024 A 
HETATM   22  C   UNL     1       4.779  35.249  61.614  1.00  0.00     0.034 A 
HETATM   23 CL   UNL     1       3.804  36.665  61.687  1.00  0.00    -0.084 Cl
HETATM   24  C   UNL     1       5.815  35.075  62.528  1.00  0.00     0.024 A 
HETATM   25  C   UNL     1       6.601  33.922  62.473  1.00  0.00     0.010 A 
ENDBRANCH  18  19
ENDBRANCH  15  18
ENDBRANCH  10  14
BRANCH   1  26
HETATM   26  C   UNL     1       7.417  26.069  54.460  1.00  0.00     0.103 C 
BRANCH  26  27
HETATM   27  S   UNL     1       6.364  24.675  53.922  1.00  0.00    -0.162 SA
BRANCH  27  28
HETATM   28  C   UNL     1       7.638  23.491  53.380  1.00  0.00     0.112 C 
BRANCH  28  29
HETATM   29  C   UNL     1       7.954  22.487  54.466  1.00  0.00    -0.043 A 
HETATM   30  C   UNL     1       8.126  21.112  54.196  1.00  0.00    -0.055 A 
HETATM   31  C   UNL     1       8.022  20.553  52.802  1.00  0.00     0.049 C 
HETATM   32  C   UNL     1       8.416  20.235  55.256  1.00  0.00     0.007 A 
HETATM   33  C   UNL     1       8.516  20.702  56.566  1.00  0.00     0.001 A 
HETATM   34  C   UNL     1       8.329  22.053  56.837  1.00  0.00     0.001 A 
HETATM   35  C   UNL     1       8.049  22.938  55.796  1.00  0.00     0.008 A 
ENDBRANCH  28  29
ENDBRANCH  27  28
ENDBRANCH  26  27
ENDBRANCH   1  26
TORSDOF 7
ENDMDL
MODEL 6
REMARK VINA RESULT:     -10.2      1.293      1.723
REMARK  7 active torsions:
REMARK  status: ('A' for Active; 'I' for Inactive)
REMARK    1  A    between atoms: C_3  and  C_4 
REMARK    2  A    between atoms: C_4  and  S_5 
REMARK    3  A    between atoms: S_5  and  C_6 
REMARK    4  A    between atoms: C_6  and  C_7 
REMARK    5  A    between atoms: C_16  and  C_17 
REMARK       I    between atoms: C_17  and  N_18 
REMARK    6  A    between atoms: N_18  and  C_19 
REMARK    7  A    between atoms: C_19  and  C_20 
ROOT
HETATM    1  C   UNL     1       7.137  27.664  54.375  1.00  0.00     0.162 C 
HETATM    2  N   UNL     1       8.252  28.619  54.622  1.00  0.00    -0.277 NA
HETATM    3  C   UNL     1       8.345  29.086  55.946  1.00  0.00     0.036 A 
HETATM    4  C   UNL     1       7.210  29.156  56.776  1.00  0.00     0.057 A 
HETATM    5  N   UNL     1       5.975  28.698  56.302  1.00  0.00    -0.324 N 
HETATM    6  C   UNL     1       5.836  28.104  55.072  1.00  0.00     0.240 C 
HETATM    7  O   UNL     1       4.720  27.876  54.607  1.00  0.00    -0.271 OA
HETATM    8  C   UNL     1       9.540  29.649  56.404  1.00  0.00     0.027 A 
HETATM    9  C   UNL     1       9.628  30.193  57.692  1.00  0.00     0.019 A 
HETATM   10  C   UNL     1       8.504  30.205  58.527  1.00  0.00     0.034 A 
HETATM   11  C   UNL     1       7.284  29.708  58.054  1.00  0.00     0.048 A 
HETATM   12  H   UNL     1       9.143  28.319  54.238  1.00  0.00     0.128 HD
HETATM   13  H   UNL     1       5.123  28.893  56.810  1.00  0.00     0.169 HD
ENDROOT
BRANCH  10  14
HETATM   14  C   UNL     1       8.540  30.755  59.910  1.00  0.00     0.252 C 
HETATM   15  N   UNL     1       7.863  31.934  60.127  1.00  0.00    -0.353 N 
HETATM   16  H   UNL     1       7.348  32.387  59.387  1.00  0.00     0.163 HD
HETATM   17  O   UNL     1       9.190  30.183  60.777  1.00  0.00    -0.268 OA
BRANCH  15  18
HETATM   18  C   UNL     1       7.883  32.567  61.428  1.00  0.00     0.161 C 
BRANCH  18  19
HETATM   19  C   UNL     1       6.494  32.922  61.901  1.00  0.00    -0.040 A 
HETATM   20  C   UNL     1       6.314  33.848  62.938  1.00  0.00     0.010 A 
HETATM   21  C   UNL     1       5.027  34.209  63.352  1.00  0.00     0.024 A 
HETATM   22  C   UNL     1       3.915  33.646  62.729  1.00  0.00     0.034 A 
HETATM   23 CL   UNL     1       2.333  34.091  63.240  1.00  0.00    -0.084 Cl
HETATM   24  C   UNL     1       4.076  32.732  61.691  1.00  0.00     0.024 A 
HETATM   25  C   UNL     1       5.361  32.379  61.273  1.00  0.00     0.010 A 
ENDBRANCH  18  19
ENDBRANCH  15  18
ENDBRANCH  10  14
BRANCH   1  26
HETATM   26  C   UNL     1       7.566  26.248  54.816  1.00  0.00     0.103 C 
BRANCH  26  27
HETATM   27  S   UNL     1       6.280  24.952  54.914  1.00  0.00    -0.162 SA
BRANCH  27  28
HETATM   28  C   UNL     1       7.166  23.682  55.873  1.00  0.00     0.112 C 
BRANCH  28  29
HETATM   29  C   UNL     1       7.600  22.531  54.994  1.00  0.00    -0.043 A 
HETATM   30  C   UNL     1       8.094  21.319  55.525  1.00  0.00    -0.055 A 
HETATM   31  C   UNL     1       8.205  21.086  57.008  1.00  0.00     0.049 C 
HETATM   32  C   UNL     1       8.483  20.293  54.648  1.00  0.00     0.007 A 
HETATM   33  C   UNL     1       8.405  20.463  53.266  1.00  0.00     0.001 A 
HETATM   34  C   UNL     1       7.936  21.662  52.740  1.00  0.00     0.001 A 
HETATM   35  C   UNL     1       7.539  22.688  53.596  1.00  0.00     0.008 A 
ENDBRANCH  28  29
ENDBRANCH  27  28
ENDBRANCH  26  27
ENDBRANCH   1  26
TORSDOF 7
ENDMDL
MODEL 7
REMARK VINA RESULT:      -9.9      6.000     10.148
REMARK  7 active torsions:
REMARK  status: ('A' for Active; 'I' for Inactive)
REMARK    1  A    between atoms: C_3  and  C_4 
REMARK    2  A    between atoms: C_4  and  S_5 
REMARK    3  A    between atoms: S_5  and  C_6 
REMARK    4  A    between atoms: C_6  and  C_7 
REMARK    5  A    between atoms: C_16  and  C_17 
REMARK       I    between atoms: C_17  and  N_18 
REMARK    6  A    between atoms: N_18  and  C_19 
REMARK    7  A    between atoms: C_19  and  C_20 
ROOT
HETATM    1  C   UNL     1       5.543  26.477  56.644  1.00  0.00     0.162 C 
HETATM    2  N   UNL     1       4.978  25.511  55.661  1.00  0.00    -0.277 NA
HETATM    3  C   UNL     1       5.063  25.922  54.318  1.00  0.00     0.036 A 
HETATM    4  C   UNL     1       5.091  27.286  53.972  1.00  0.00     0.057 A 
HETATM    5  N   UNL     1       5.097  28.257  54.981  1.00  0.00    -0.324 N 
HETATM    6  C   UNL     1       5.155  27.930  56.313  1.00  0.00     0.240 C 
HETATM    7  O   UNL     1       4.977  28.787  57.178  1.00  0.00    -0.271 OA
HETATM    8  C   UNL     1       4.948  24.978  53.292  1.00  0.00     0.027 A 
HETATM    9  C   UNL     1       4.949  25.376  51.950  1.00  0.00     0.019 A 
HETATM   10  C   UNL     1       5.034  26.734  51.619  1.00  0.00     0.034 A 
HETATM   11  C   UNL     1       5.079  27.693  52.638  1.00  0.00     0.048 A 
HETATM   12  H   UNL     1       5.277  24.552  55.808  1.00  0.00     0.128 HD
HETATM   13  H   UNL     1       4.946  29.232  54.759  1.00  0.00     0.169 HD
ENDROOT
BRANCH  10  14
HETATM   14  C   UNL     1       5.055  27.216  50.212  1.00  0.00     0.252 C 
HETATM   15  N   UNL     1       4.522  26.377  49.260  1.00  0.00    -0.353 N 
HETATM   16  H   UNL     1       4.115  25.488  49.513  1.00  0.00     0.163 HD
HETATM   17  O   UNL     1       5.572  28.294  49.944  1.00  0.00    -0.268 OA
BRANCH  15  18
HETATM   18  C   UNL     1       4.543  26.741  47.860  1.00  0.00     0.161 C 
BRANCH  18  19
HETATM   19  C   UNL     1       3.244  27.376  47.426  1.00  0.00    -0.040 A 
HETATM   20  C   UNL     1       3.161  28.763  47.238  1.00  0.00     0.010 A 
HETATM   21  C   UNL     1       1.970  29.350  46.798  1.00  0.00     0.024 A 
HETATM   22  C   UNL     1       0.857  28.552  46.542  1.00  0.00     0.034 A 
HETATM   23 CL   UNL     1      -0.608  29.275  46.002  1.00  0.00    -0.084 Cl
HETATM   24  C   UNL     1       0.925  27.172  46.714  1.00  0.00     0.024 A 
HETATM   25  C   UNL     1       2.117  26.585  47.145  1.00  0.00     0.010 A 
ENDBRANCH  18  19
ENDBRANCH  15  18
ENDBRANCH  10  14
BRANCH   1  26
HETATM   26  C   UNL     1       7.074  26.301  56.715  1.00  0.00     0.103 C 
BRANCH  26  27
HETATM   27  S   UNL     1       7.882  25.274  55.436  1.00  0.00    -0.162 SA
BRANCH  27  28
HETATM   28  C   UNL     1       7.769  23.631  56.216  1.00  0.00     0.112 C 
BRANCH  28  29
HETATM   29  C   UNL     1       7.912  22.526  55.194  1.00  0.00    -0.043 A 
HETATM   30  C   UNL     1       8.233  21.199  55.556  1.00  0.00    -0.055 A 
HETATM   31  C   UNL     1       8.438  20.792  56.991  1.00  0.00     0.049 C 
HETATM   32  C   UNL     1       8.353  20.223  54.552  1.00  0.00     0.007 A 
HETATM   33  C   UNL     1       8.179  20.552  53.208  1.00  0.00     0.001 A 
HETATM   34  C   UNL     1       7.882  21.861  52.847  1.00  0.00     0.001 A 
HETATM   35  C   UNL     1       7.751  22.840  53.831  1.00  0.00     0.008 A 
ENDBRANCH  28  29
ENDBRANCH  27  28
ENDBRANCH  26  27
ENDBRANCH   1  26
TORSDOF 7
ENDMDL
MODEL 8
REMARK VINA RESULT:      -9.8      4.300     10.402
REMARK  7 active torsions:
REMARK  status: ('A' for Active; 'I' for Inactive)
REMARK    1  A    between atoms: C_3  and  C_4 
REMARK    2  A    between atoms: C_4  and  S_5 
REMARK    3  A    between atoms: S_5  and  C_6 
REMARK    4  A    between atoms: C_6  and  C_7 
REMARK    5  A    between atoms: C_16  and  C_17 
REMARK       I    between atoms: C_17  and  N_18 
REMARK    6  A    between atoms: N_18  and  C_19 
REMARK    7  A    between atoms: C_19  and  C_20 
ROOT
HETATM    1  C   UNL     1       3.578  31.472  57.619  1.00  0.00     0.162 C 
HETATM    2  N   UNL     1       4.107  30.167  58.104  1.00  0.00    -0.277 NA
HETATM    3  C   UNL     1       4.816  29.425  57.143  1.00  0.00     0.036 A 
HETATM    4  C   UNL     1       4.548  29.566  55.768  1.00  0.00     0.057 A 
HETATM    5  N   UNL     1       3.600  30.504  55.339  1.00  0.00    -0.324 N 
HETATM    6  C   UNL     1       2.969  31.358  56.209  1.00  0.00     0.240 C 
HETATM    7  O   UNL     1       2.016  32.042  55.836  1.00  0.00    -0.271 OA
HETATM    8  C   UNL     1       5.686  28.408  57.550  1.00  0.00     0.027 A 
HETATM    9  C   UNL     1       6.340  27.605  56.606  1.00  0.00     0.019 A 
HETATM   10  C   UNL     1       6.104  27.794  55.239  1.00  0.00     0.034 A 
HETATM   11  C   UNL     1       5.183  28.762  54.822  1.00  0.00     0.048 A 
HETATM   12  H   UNL     1       4.582  30.224  59.000  1.00  0.00     0.128 HD
HETATM   13  H   UNL     1       3.269  30.503  54.384  1.00  0.00     0.169 HD
ENDROOT
BRANCH  10  14
HETATM   14  C   UNL     1       6.781  26.983  54.190  1.00  0.00     0.252 C 
HETATM   15  N   UNL     1       6.201  25.777  53.868  1.00  0.00    -0.353 N 
HETATM   16  H   UNL     1       5.344  25.473  54.307  1.00  0.00     0.163 HD
HETATM   17  O   UNL     1       7.828  27.380  53.693  1.00  0.00    -0.268 OA
BRANCH  15  18
HETATM   18  C   UNL     1       6.814  24.900  52.895  1.00  0.00     0.161 C 
BRANCH  18  19
HETATM   19  C   UNL     1       7.328  23.630  53.529  1.00  0.00    -0.040 A 
HETATM   20  C   UNL     1       7.195  23.422  54.909  1.00  0.00     0.010 A 
HETATM   21  C   UNL     1       7.635  22.230  55.494  1.00  0.00     0.024 A 
HETATM   22  C   UNL     1       8.209  21.239  54.700  1.00  0.00     0.034 A 
HETATM   23 CL   UNL     1       8.750  19.773  55.420  1.00  0.00    -0.084 Cl
HETATM   24  C   UNL     1       8.339  21.425  53.326  1.00  0.00     0.024 A 
HETATM   25  C   UNL     1       7.892  22.612  52.742  1.00  0.00     0.010 A 
ENDBRANCH  18  19
ENDBRANCH  15  18
ENDBRANCH  10  14
BRANCH   1  26
HETATM   26  C   UNL     1       4.699  32.531  57.668  1.00  0.00     0.103 C 
BRANCH  26  27
HETATM   27  S   UNL     1       5.069  33.317  59.277  1.00  0.00    -0.162 SA
BRANCH  27  28
HETATM   28  C   UNL     1       6.418  32.243  59.864  1.00  0.00     0.112 C 
BRANCH  28  29
HETATM   29  C   UNL     1       6.716  32.482  61.327  1.00  0.00    -0.043 A 
HETATM   30  C   UNL     1       8.015  32.352  61.865  1.00  0.00    -0.055 A 
HETATM   31  C   UNL     1       9.198  31.980  61.010  1.00  0.00     0.049 C 
HETATM   32  C   UNL     1       8.219  32.586  63.235  1.00  0.00     0.007 A 
HETATM   33  C   UNL     1       7.154  32.927  64.069  1.00  0.00     0.001 A 
HETATM   34  C   UNL     1       5.871  33.038  63.546  1.00  0.00     0.001 A 
HETATM   35  C   UNL     1       5.653  32.816  62.187  1.00  0.00     0.008 A 
ENDBRANCH  28  29
ENDBRANCH  27  28
ENDBRANCH  26  27
ENDBRANCH   1  26
TORSDOF 7
ENDMDL
MODEL 9
REMARK VINA RESULT:      -9.7      5.946      9.811
REMARK  7 active torsions:
REMARK  status: ('A' for Active; 'I' for Inactive)
REMARK    1  A    between atoms: C_3  and  C_4 
REMARK    2  A    between atoms: C_4  and  S_5 
REMARK    3  A    between atoms: S_5  and  C_6 
REMARK    4  A    between atoms: C_6  and  C_7 
REMARK    5  A    between atoms: C_16  and  C_17 
REMARK       I    between atoms: C_17  and  N_18 
REMARK    6  A    between atoms: N_18  and  C_19 
REMARK    7  A    between atoms: C_19  and  C_20 
ROOT
HETATM    1  C   UNL     1       5.985  26.617  56.176  1.00  0.00     0.162 C 
HETATM    2  N   UNL     1       5.110  25.698  55.396  1.00  0.00    -0.277 NA
HETATM    3  C   UNL     1       5.139  25.898  54.004  1.00  0.00     0.036 A 
HETATM    4  C   UNL     1       5.442  27.157  53.453  1.00  0.00     0.057 A 
HETATM    5  N   UNL     1       5.781  28.220  54.299  1.00  0.00    -0.324 N 
HETATM    6  C   UNL     1       5.907  28.065  55.657  1.00  0.00     0.240 C 
HETATM    7  O   UNL     1       6.026  29.045  56.393  1.00  0.00    -0.271 OA
HETATM    8  C   UNL     1       4.699  24.885  53.146  1.00  0.00     0.027 A 
HETATM    9  C   UNL     1       4.645  25.093  51.762  1.00  0.00     0.019 A 
HETATM   10  C   UNL     1       5.003  26.335  51.223  1.00  0.00     0.034 A 
HETATM   11  C   UNL     1       5.378  27.378  52.078  1.00  0.00     0.048 A 
HETATM   12  H   UNL     1       5.195  24.723  55.665  1.00  0.00     0.128 HD
HETATM   13  H   UNL     1       5.835  29.165  53.944  1.00  0.00     0.169 HD
ENDROOT
BRANCH  10  14
HETATM   14  C   UNL     1       4.980  26.610  49.761  1.00  0.00     0.252 C 
HETATM   15  N   UNL     1       5.528  27.803  49.345  1.00  0.00    -0.353 N 
HETATM   16  H   UNL     1       5.947  28.445  50.002  1.00  0.00     0.163 HD
HETATM   17  O   UNL     1       4.448  25.812  48.998  1.00  0.00    -0.268 OA
BRANCH  15  18
HETATM   18  C   UNL     1       5.507  28.177  47.948  1.00  0.00     0.161 C 
BRANCH  18  19
HETATM   19  C   UNL     1       4.372  29.122  47.637  1.00  0.00    -0.040 A 
HETATM   20  C   UNL     1       3.109  28.623  47.291  1.00  0.00     0.010 A 
HETATM   21  C   UNL     1       2.044  29.495  47.040  1.00  0.00     0.024 A 
HETATM   22  C   UNL     1       2.239  30.871  47.136  1.00  0.00     0.034 A 
HETATM   23 CL   UNL     1       0.928  31.943  46.827  1.00  0.00    -0.084 Cl
HETATM   24  C   UNL     1       3.484  31.384  47.489  1.00  0.00     0.024 A 
HETATM   25  C   UNL     1       4.544  30.512  47.747  1.00  0.00     0.010 A 
ENDBRANCH  18  19
ENDBRANCH  15  18
ENDBRANCH  10  14
BRANCH   1  26
HETATM   26  C   UNL     1       7.433  26.085  56.158  1.00  0.00     0.103 C 
BRANCH  26  27
HETATM   27  S   UNL     1       7.752  24.433  56.873  1.00  0.00    -0.162 SA
BRANCH  27  28
HETATM   28  C   UNL     1       9.111  23.867  55.800  1.00  0.00     0.112 C 
BRANCH  28  29
HETATM   29  C   UNL     1       8.676  22.715  54.922  1.00  0.00    -0.043 A 
HETATM   30  C   UNL     1       8.241  22.901  53.592  1.00  0.00    -0.055 A 
HETATM   31  C   UNL     1       8.196  24.263  52.951  1.00  0.00     0.049 C 
HETATM   32  C   UNL     1       7.848  21.784  52.835  1.00  0.00     0.007 A 
HETATM   33  C   UNL     1       7.865  20.503  53.386  1.00  0.00     0.001 A 
HETATM   34  C   UNL     1       8.276  20.319  54.701  1.00  0.00     0.001 A 
HETATM   35  C   UNL     1       8.677  21.415  55.463  1.00  0.00     0.008 A 
ENDBRANCH  28  29
ENDBRANCH  27  28
ENDBRANCH  26  27
ENDBRANCH   1  26
TORSDOF 7
ENDMDL
MODEL 10
REMARK VINA RESULT:      -9.7      4.081      5.409
REMARK  7 active torsions:
REMARK  status: ('A' for Active; 'I' for Inactive)
REMARK    1  A    between atoms: C_3  and  C_4 
REMARK    2  A    between atoms: C_4  and  S_5 
REMARK    3  A    between atoms: S_5  and  C_6 
REMARK    4  A    between atoms: C_6  and  C_7 
REMARK    5  A    between atoms: C_16  and  C_17 
REMARK       I    between atoms: C_17  and  N_18 
REMARK    6  A    between atoms: N_18  and  C_19 
REMARK    7  A    between atoms: C_19  and  C_20 
ROOT
HETATM    1  C   UNL     1       5.289  25.955  54.012  1.00  0.00     0.162 C 
HETATM    2  N   UNL     1       4.694  26.786  55.095  1.00  0.00    -0.277 NA
HETATM    3  C   UNL     1       5.625  27.514  55.858  1.00  0.00     0.036 A 
HETATM    4  C   UNL     1       6.951  27.067  56.013  1.00  0.00     0.057 A 
HETATM    5  N   UNL     1       7.373  25.909  55.348  1.00  0.00    -0.324 N 
HETATM    6  C   UNL     1       6.561  25.224  54.480  1.00  0.00     0.240 C 
HETATM    7  O   UNL     1       6.889  24.117  54.052  1.00  0.00    -0.271 OA
HETATM    8  C   UNL     1       5.199  28.609  56.617  1.00  0.00     0.027 A 
HETATM    9  C   UNL     1       6.095  29.297  57.445  1.00  0.00     0.019 A 
HETATM   10  C   UNL     1       7.426  28.874  57.545  1.00  0.00     0.034 A 
HETATM   11  C   UNL     1       7.846  27.737  56.845  1.00  0.00     0.048 A 
HETATM   12  H   UNL     1       3.896  27.340  54.798  1.00  0.00     0.128 HD
HETATM   13  H   UNL     1       8.259  25.477  55.576  1.00  0.00     0.169 HD
ENDROOT
BRANCH  10  14
HETATM   14  C   UNL     1       8.427  29.573  58.397  1.00  0.00     0.252 C 
HETATM   15  N   UNL     1       7.993  30.022  59.624  1.00  0.00    -0.353 N 
HETATM   16  H   UNL     1       7.047  29.860  59.937  1.00  0.00     0.163 HD
HETATM   17  O   UNL     1       9.561  29.764  57.973  1.00  0.00    -0.268 OA
BRANCH  15  18
HETATM   18  C   UNL     1       8.883  30.755  60.498  1.00  0.00     0.161 C 
BRANCH  18  19
HETATM   19  C   UNL     1       8.130  31.704  61.398  1.00  0.00    -0.040 A 
HETATM   20  C   UNL     1       8.509  31.860  62.739  1.00  0.00     0.010 A 
HETATM   21  C   UNL     1       7.839  32.768  63.565  1.00  0.00     0.024 A 
HETATM   22  C   UNL     1       6.787  33.525  63.053  1.00  0.00     0.034 A 
HETATM   23 CL   UNL     1       5.962  34.641  64.071  1.00  0.00    -0.084 Cl
HETATM   24  C   UNL     1       6.404  33.390  61.721  1.00  0.00     0.024 A 
HETATM   25  C   UNL     1       7.079  32.489  60.895  1.00  0.00     0.010 A 
ENDBRANCH  18  19
ENDBRANCH  15  18
ENDBRANCH  10  14
BRANCH   1  26
HETATM   26  C   UNL     1       5.565  26.841  52.779  1.00  0.00     0.103 C 
BRANCH  26  27
HETATM   27  S   UNL     1       5.298  26.116  51.122  1.00  0.00    -0.162 SA
BRANCH  27  28
HETATM   28  C   UNL     1       4.805  27.601  50.189  1.00  0.00     0.112 C 
BRANCH  28  29
HETATM   29  C   UNL     1       3.766  27.272  49.140  1.00  0.00    -0.043 A 
HETATM   30  C   UNL     1       2.513  27.922  49.089  1.00  0.00    -0.055 A 
HETATM   31  C   UNL     1       2.134  29.000  50.068  1.00  0.00     0.049 C 
HETATM   32  C   UNL     1       1.595  27.563  48.088  1.00  0.00     0.007 A 
HETATM   33  C   UNL     1       1.897  26.565  47.162  1.00  0.00     0.001 A 
HETATM   34  C   UNL     1       3.123  25.911  47.221  1.00  0.00     0.001 A 
HETATM   35  C   UNL     1       4.049  26.261  48.203  1.00  0.00     0.008 A 
ENDBRANCH  28  29
ENDBRANCH  27  28
ENDBRANCH  26  27
ENDBRANCH   1  26
TORSDOF 7
ENDMDL
