MODEL 1
REMARK VINA RESULT:      -8.7      0.000      0.000
REMARK  3 active torsions:
REMARK  status: ('A' for Active; 'I' for Inactive)
REMARK    1  A    between atoms: C_5  and  N_6 
REMARK       I    between atoms: N_6  and  C_7 
REMARK    2  A    between atoms: C_7  and  C_8 
REMARK    3  A    between atoms: C_8  and  C_9 
ROOT
HETATM    1  C   UNL     1       8.789  31.371  59.296  1.00  0.00     0.286 C 
HETATM    2  N   UNL     1       7.937  30.145  59.606  1.00  0.00    -0.056 N 
HETATM    3  H   UNL     1       8.546  29.535  60.195  1.00  0.00     0.278 HD
HETATM    4  H   UNL     1       7.135  30.390  60.198  1.00  0.00     0.278 HD
HETATM    5  C   UNL     1       7.516  29.339  58.410  1.00  0.00     0.209 C 
HETATM    6  C   UNL     1       8.759  28.998  57.551  1.00  0.00     0.115 C 
HETATM    7  N   UNL     1       9.603  30.160  57.282  1.00  0.00    -0.353 N 
HETATM    8  C   UNL     1       9.876  31.115  58.230  1.00  0.00     0.249 C 
HETATM    9  O   UNL     1      10.893  31.793  58.141  1.00  0.00    -0.271 OA
HETATM   10  C   UNL     1       6.427  30.084  57.636  1.00  0.00     0.035 C 
HETATM   11  C   UNL     1       6.046  29.329  56.365  1.00  0.00     0.002 C 
HETATM   12  C   UNL     1       7.267  29.067  55.487  1.00  0.00     0.002 C 
HETATM   13  C   UNL     1       8.354  28.304  56.246  1.00  0.00     0.027 C 
HETATM   14  H   UNL     1      10.383  30.035  56.638  1.00  0.00     0.163 HD
ENDROOT
BRANCH   1  15
HETATM   15  C   UNL     1       9.392  31.986  60.569  1.00  0.00     0.146 C 
BRANCH  15  16
HETATM   16  C   UNL     1       9.155  31.110  61.771  1.00  0.00     0.224 C 
HETATM   17  N   UNL     1       8.317  31.451  62.782  1.00  0.00    -0.327 N 
HETATM   18  H   UNL     1       8.304  30.734  63.503  1.00  0.00     0.169 HD
HETATM   19  O   UNL     1       9.691  29.991  61.799  1.00  0.00    -0.273 OA
BRANCH  17  20
HETATM   20  C   UNL     1       7.492  32.562  63.054  1.00  0.00     0.034 A 
HETATM   21  C   UNL     1       6.595  33.158  62.170  1.00  0.00     0.030 A 
HETATM   22  C   UNL     1       5.846  34.279  62.559  1.00  0.00     0.009 A 
HETATM   23  C   UNL     1       5.961  34.810  63.845  1.00  0.00    -0.062 A 
HETATM   24  C   UNL     1       5.189  36.031  64.251  1.00  0.00     0.048 C 
HETATM   25  C   UNL     1       6.849  34.211  64.738  1.00  0.00     0.009 A 
HETATM   26  C   UNL     1       7.602  33.099  64.345  1.00  0.00     0.030 A 
ENDBRANCH  17  20
ENDBRANCH  15  16
ENDBRANCH   1  15
TORSDOF 3
ENDMDL
MODEL 2
REMARK VINA RESULT:      -8.6      5.154      7.958
REMARK  3 active torsions:
REMARK  status: ('A' for Active; 'I' for Inactive)
REMARK    1  A    between atoms: C_5  and  N_6 
REMARK       I    between atoms: N_6  and  C_7 
REMARK    2  A    between atoms: C_7  and  C_8 
REMARK    3  A    between atoms: C_8  and  C_9 
ROOT
HETATM    1  C   UNL     1       8.009  24.801  55.615  1.00  0.00     0.286 C 
HETATM    2  N   UNL     1       6.928  24.111  54.791  1.00  0.00    -0.056 N 
HETATM    3  H   UNL     1       6.065  24.169  55.374  1.00  0.00     0.278 HD
HETATM    4  H   UNL     1       6.720  24.637  53.934  1.00  0.00     0.278 HD
HETATM    5  C   UNL     1       7.176  22.658  54.499  1.00  0.00     0.209 C 
HETATM    6  C   UNL     1       7.486  21.909  55.819  1.00  0.00     0.115 C 
HETATM    7  N   UNL     1       8.492  22.585  56.635  1.00  0.00    -0.353 N 
HETATM    8  C   UNL     1       8.527  23.949  56.793  1.00  0.00     0.249 C 
HETATM    9  O   UNL     1       9.054  24.436  57.786  1.00  0.00    -0.271 OA
HETATM   10  C   UNL     1       8.277  22.516  53.446  1.00  0.00     0.035 C 
HETATM   11  C   UNL     1       8.613  21.048  53.199  1.00  0.00     0.002 C 
HETATM   12  C   UNL     1       8.994  20.339  54.496  1.00  0.00     0.002 C 
HETATM   13  C   UNL     1       7.890  20.456  55.547  1.00  0.00     0.027 C 
HETATM   14  H   UNL     1       8.824  22.100  57.468  1.00  0.00     0.163 HD
ENDROOT
BRANCH   1  15
HETATM   15  C   UNL     1       7.564  26.194  56.089  1.00  0.00     0.146 C 
BRANCH  15  16
HETATM   16  C   UNL     1       7.561  27.188  54.958  1.00  0.00     0.224 C 
HETATM   17  N   UNL     1       7.969  28.474  55.101  1.00  0.00    -0.327 N 
HETATM   18  H   UNL     1       7.879  28.985  54.227  1.00  0.00     0.169 HD
HETATM   19  O   UNL     1       7.244  26.791  53.827  1.00  0.00    -0.273 OA
BRANCH  17  20
HETATM   20  C   UNL     1       8.464  29.243  56.175  1.00  0.00     0.034 A 
HETATM   21  C   UNL     1       9.801  29.548  56.422  1.00  0.00     0.030 A 
HETATM   22  C   UNL     1      10.165  30.309  57.544  1.00  0.00     0.009 A 
HETATM   23  C   UNL     1       9.199  30.797  58.426  1.00  0.00    -0.062 A 
HETATM   24  C   UNL     1       9.588  31.578  59.647  1.00  0.00     0.048 C 
HETATM   25  C   UNL     1       7.859  30.504  58.178  1.00  0.00     0.009 A 
HETATM   26  C   UNL     1       7.498  29.739  57.064  1.00  0.00     0.030 A 
ENDBRANCH  17  20
ENDBRANCH  15  16
ENDBRANCH   1  15
TORSDOF 3
ENDMDL
MODEL 3
REMARK VINA RESULT:      -8.4      8.411     10.579
REMARK  3 active torsions:
REMARK  status: ('A' for Active; 'I' for Inactive)
REMARK    1  A    between atoms: C_5  and  N_6 
REMARK       I    between atoms: N_6  and  C_7 
REMARK    2  A    between atoms: C_7  and  C_8 
REMARK    3  A    between atoms: C_8  and  C_9 
ROOT
HETATM    1  C   UNL     1       7.934  24.557  54.966  1.00  0.00     0.286 C 
HETATM    2  N   UNL     1       6.884  23.661  54.316  1.00  0.00    -0.056 N 
HETATM    3  H   UNL     1       6.037  23.757  54.917  1.00  0.00     0.278 HD
HETATM    4  H   UNL     1       6.612  24.019  53.393  1.00  0.00     0.278 HD
HETATM    5  C   UNL     1       7.234  22.201  54.261  1.00  0.00     0.209 C 
HETATM    6  C   UNL     1       7.640  21.712  55.674  1.00  0.00     0.115 C 
HETATM    7  N   UNL     1       8.616  22.586  56.322  1.00  0.00    -0.353 N 
HETATM    8  C   UNL     1       8.550  23.956  56.247  1.00  0.00     0.249 C 
HETATM    9  O   UNL     1       9.068  24.641  57.122  1.00  0.00    -0.271 OA
HETATM   10  C   UNL     1       8.312  21.961  53.201  1.00  0.00     0.035 C 
HETATM   11  C   UNL     1       8.751  20.500  53.189  1.00  0.00     0.002 C 
HETATM   12  C   UNL     1       9.224  20.050  54.569  1.00  0.00     0.002 C 
HETATM   13  C   UNL     1       8.146  20.265  55.632  1.00  0.00     0.027 C 
HETATM   14  H   UNL     1       9.008  22.275  57.209  1.00  0.00     0.163 HD
ENDROOT
BRANCH   1  15
HETATM   15  C   UNL     1       7.397  25.975  55.219  1.00  0.00     0.146 C 
BRANCH  15  16
HETATM   16  C   UNL     1       5.911  25.969  55.459  1.00  0.00     0.224 C 
HETATM   17  N   UNL     1       5.011  26.406  54.544  1.00  0.00    -0.327 N 
HETATM   18  H   UNL     1       4.062  26.331  54.900  1.00  0.00     0.169 HD
HETATM   19  O   UNL     1       5.487  25.469  56.513  1.00  0.00    -0.273 OA
BRANCH  17  20
HETATM   20  C   UNL     1       5.102  26.943  53.243  1.00  0.00     0.034 A 
HETATM   21  C   UNL     1       5.167  28.294  52.912  1.00  0.00     0.030 A 
HETATM   22  C   UNL     1       5.233  28.700  51.570  1.00  0.00     0.009 A 
HETATM   23  C   UNL     1       5.258  27.763  50.536  1.00  0.00    -0.062 A 
HETATM   24  C   UNL     1       5.290  28.194  49.099  1.00  0.00     0.048 C 
HETATM   25  C   UNL     1       5.205  26.408  50.861  1.00  0.00     0.009 A 
HETATM   26  C   UNL     1       5.130  26.006  52.198  1.00  0.00     0.030 A 
ENDBRANCH  17  20
ENDBRANCH  15  16
ENDBRANCH   1  15
TORSDOF 3
ENDMDL
MODEL 4
REMARK VINA RESULT:      -8.4      4.536      9.430
REMARK  3 active torsions:
REMARK  status: ('A' for Active; 'I' for Inactive)
REMARK    1  A    between atoms: C_5  and  N_6 
REMARK       I    between atoms: N_6  and  C_7 
REMARK    2  A    between atoms: C_7  and  C_8 
REMARK    3  A    between atoms: C_8  and  C_9 
ROOT
HETATM    1  C   UNL     1       7.288  28.483  55.571  1.00  0.00     0.286 C 
HETATM    2  N   UNL     1       8.186  27.724  56.542  1.00  0.00    -0.056 N 
HETATM    3  H   UNL     1       7.531  27.212  57.172  1.00  0.00     0.278 HD
HETATM    4  H   UNL     1       8.729  27.000  56.058  1.00  0.00     0.278 HD
HETATM    5  C   UNL     1       9.062  28.584  57.408  1.00  0.00     0.209 C 
HETATM    6  C   UNL     1       8.198  29.660  58.113  1.00  0.00     0.115 C 
HETATM    7  N   UNL     1       7.304  30.364  57.197  1.00  0.00    -0.353 N 
HETATM    8  C   UNL     1       6.619  29.727  56.191  1.00  0.00     0.249 C 
HETATM    9  O   UNL     1       5.583  30.215  55.753  1.00  0.00    -0.271 OA
HETATM   10  C   UNL     1      10.205  29.171  56.576  1.00  0.00     0.035 C 
HETATM   11  C   UNL     1      11.057  30.122  57.412  1.00  0.00     0.002 C 
HETATM   12  C   UNL     1      10.207  31.225  58.038  1.00  0.00     0.002 C 
HETATM   13  C   UNL     1       9.075  30.649  58.889  1.00  0.00     0.027 C 
HETATM   14  H   UNL     1       6.780  31.156  57.567  1.00  0.00     0.163 HD
ENDROOT
BRANCH   1  15
HETATM   15  C   UNL     1       6.247  27.560  54.916  1.00  0.00     0.146 C 
BRANCH  15  16
HETATM   16  C   UNL     1       5.593  26.657  55.929  1.00  0.00     0.224 C 
HETATM   17  N   UNL     1       5.748  25.310  55.928  1.00  0.00    -0.327 N 
HETATM   18  H   UNL     1       5.218  24.881  56.683  1.00  0.00     0.169 HD
HETATM   19  O   UNL     1       4.949  27.178  56.852  1.00  0.00    -0.273 OA
BRANCH  17  20
HETATM   20  C   UNL     1       6.452  24.393  55.120  1.00  0.00     0.034 A 
HETATM   21  C   UNL     1       6.458  24.357  53.728  1.00  0.00     0.030 A 
HETATM   22  C   UNL     1       7.188  23.375  53.040  1.00  0.00     0.009 A 
HETATM   23  C   UNL     1       7.941  22.424  53.731  1.00  0.00    -0.062 A 
HETATM   24  C   UNL     1       8.691  21.350  53.000  1.00  0.00     0.048 C 
HETATM   25  C   UNL     1       7.948  22.462  55.124  1.00  0.00     0.009 A 
HETATM   26  C   UNL     1       7.214  23.436  55.808  1.00  0.00     0.030 A 
ENDBRANCH  17  20
ENDBRANCH  15  16
ENDBRANCH   1  15
TORSDOF 3
ENDMDL
MODEL 5
REMARK VINA RESULT:      -8.4      6.010      9.895
REMARK  3 active torsions:
REMARK  status: ('A' for Active; 'I' for Inactive)
REMARK    1  A    between atoms: C_5  and  N_6 
REMARK       I    between atoms: N_6  and  C_7 
REMARK    2  A    between atoms: C_7  and  C_8 
REMARK    3  A    between atoms: C_8  and  C_9 
ROOT
HETATM    1  C   UNL     1       5.824  27.147  56.344  1.00  0.00     0.286 C 
HETATM    2  N   UNL     1       4.352  27.499  56.532  1.00  0.00    -0.056 N 
HETATM    3  H   UNL     1       3.838  26.872  55.875  1.00  0.00     0.278 HD
HETATM    4  H   UNL     1       4.026  27.244  57.471  1.00  0.00     0.278 HD
HETATM    5  C   UNL     1       3.983  28.913  56.184  1.00  0.00     0.209 C 
HETATM    6  C   UNL     1       4.498  29.249  54.762  1.00  0.00     0.115 C 
HETATM    7  N   UNL     1       5.897  28.878  54.560  1.00  0.00    -0.353 N 
HETATM    8  C   UNL     1       6.433  27.708  55.042  1.00  0.00     0.249 C 
HETATM    9  O   UNL     1       7.420  27.220  54.504  1.00  0.00    -0.271 OA
HETATM   10  C   UNL     1       4.502  29.868  57.261  1.00  0.00     0.035 C 
HETATM   11  C   UNL     1       4.221  31.321  56.885  1.00  0.00     0.002 C 
HETATM   12  C   UNL     1       4.801  31.664  55.515  1.00  0.00     0.002 C 
HETATM   13  C   UNL     1       4.272  30.728  54.428  1.00  0.00     0.027 C 
HETATM   14  H   UNL     1       6.337  29.161  53.685  1.00  0.00     0.163 HD
ENDROOT
BRANCH   1  15
HETATM   15  C   UNL     1       6.070  25.634  56.466  1.00  0.00     0.146 C 
BRANCH  15  16
HETATM   16  C   UNL     1       7.335  25.339  57.229  1.00  0.00     0.224 C 
HETATM   17  N   UNL     1       8.151  24.297  56.935  1.00  0.00    -0.327 N 
HETATM   18  H   UNL     1       8.943  24.263  57.571  1.00  0.00     0.169 HD
HETATM   19  O   UNL     1       7.684  26.132  58.117  1.00  0.00    -0.273 OA
BRANCH  17  20
HETATM   20  C   UNL     1       8.134  23.266  55.973  1.00  0.00     0.034 A 
HETATM   21  C   UNL     1       7.938  21.909  56.222  1.00  0.00     0.030 A 
HETATM   22  C   UNL     1       7.966  20.978  55.173  1.00  0.00     0.009 A 
HETATM   23  C   UNL     1       8.168  21.386  53.853  1.00  0.00    -0.062 A 
HETATM   24  C   UNL     1       8.237  20.389  52.735  1.00  0.00     0.048 C 
HETATM   25  C   UNL     1       8.354  22.744  53.596  1.00  0.00     0.009 A 
HETATM   26  C   UNL     1       8.334  23.670  54.644  1.00  0.00     0.030 A 
ENDBRANCH  17  20
ENDBRANCH  15  16
ENDBRANCH   1  15
TORSDOF 3
ENDMDL
MODEL 6
REMARK VINA RESULT:      -8.4      2.910      4.749
REMARK  3 active torsions:
REMARK  status: ('A' for Active; 'I' for Inactive)
REMARK    1  A    between atoms: C_5  and  N_6 
REMARK       I    between atoms: N_6  and  C_7 
REMARK    2  A    between atoms: C_7  and  C_8 
REMARK    3  A    between atoms: C_8  and  C_9 
ROOT
HETATM    1  C   UNL     1       7.927  27.749  56.758  1.00  0.00     0.286 C 
HETATM    2  N   UNL     1       6.976  28.257  55.679  1.00  0.00    -0.056 N 
HETATM    3  H   UNL     1       6.114  28.546  56.192  1.00  0.00     0.278 HD
HETATM    4  H   UNL     1       7.336  29.112  55.238  1.00  0.00     0.278 HD
HETATM    5  C   UNL     1       6.567  27.237  54.654  1.00  0.00     0.209 C 
HETATM    6  C   UNL     1       6.035  25.969  55.368  1.00  0.00     0.115 C 
HETATM    7  N   UNL     1       6.920  25.499  56.431  1.00  0.00    -0.353 N 
HETATM    8  C   UNL     1       7.559  26.351  57.298  1.00  0.00     0.249 C 
HETATM    9  O   UNL     1       7.906  25.952  58.403  1.00  0.00    -0.271 OA
HETATM   10  C   UNL     1       7.733  26.956  53.703  1.00  0.00     0.035 C 
HETATM   11  C   UNL     1       7.375  25.855  52.709  1.00  0.00     0.002 C 
HETATM   12  C   UNL     1       6.926  24.583  53.424  1.00  0.00     0.002 C 
HETATM   13  C   UNL     1       5.747  24.850  54.361  1.00  0.00     0.027 C 
HETATM   14  H   UNL     1       6.689  24.611  56.876  1.00  0.00     0.163 HD
ENDROOT
BRANCH   1  15
HETATM   15  C   UNL     1       8.087  28.763  57.902  1.00  0.00     0.146 C 
BRANCH  15  16
HETATM   16  C   UNL     1       9.096  29.828  57.560  1.00  0.00     0.224 C 
HETATM   17  N   UNL     1       9.454  30.813  58.421  1.00  0.00    -0.327 N 
HETATM   18  H   UNL     1      10.137  31.436  57.999  1.00  0.00     0.169 HD
HETATM   19  O   UNL     1       9.682  29.754  56.469  1.00  0.00    -0.273 OA
BRANCH  17  20
HETATM   20  C   UNL     1       9.084  31.162  59.737  1.00  0.00     0.034 A 
HETATM   21  C   UNL     1       9.414  30.467  60.898  1.00  0.00     0.030 A 
HETATM   22  C   UNL     1       8.962  30.910  62.150  1.00  0.00     0.009 A 
HETATM   23  C   UNL     1       8.192  32.069  62.268  1.00  0.00    -0.062 A 
HETATM   24  C   UNL     1       7.676  32.524  63.600  1.00  0.00     0.048 C 
HETATM   25  C   UNL     1       7.868  32.775  61.110  1.00  0.00     0.009 A 
HETATM   26  C   UNL     1       8.312  32.327  59.862  1.00  0.00     0.030 A 
ENDBRANCH  17  20
ENDBRANCH  15  16
ENDBRANCH   1  15
TORSDOF 3
ENDMDL
MODEL 7
REMARK VINA RESULT:      -8.4      4.108      6.364
REMARK  3 active torsions:
REMARK  status: ('A' for Active; 'I' for Inactive)
REMARK    1  A    between atoms: C_5  and  N_6 
REMARK       I    between atoms: N_6  and  C_7 
REMARK    2  A    between atoms: C_7  and  C_8 
REMARK    3  A    between atoms: C_8  and  C_9 
ROOT
HETATM    1  C   UNL     1       7.035  26.402  56.157  1.00  0.00     0.286 C 
HETATM    2  N   UNL     1       5.997  25.769  55.236  1.00  0.00    -0.056 N 
HETATM    3  H   UNL     1       5.203  25.509  55.862  1.00  0.00     0.278 HD
HETATM    4  H   UNL     1       5.617  26.457  54.576  1.00  0.00     0.278 HD
HETATM    5  C   UNL     1       6.443  24.517  54.535  1.00  0.00     0.209 C 
HETATM    6  C   UNL     1       7.009  23.515  55.571  1.00  0.00     0.115 C 
HETATM    7  N   UNL     1       7.975  24.123  56.485  1.00  0.00    -0.353 N 
HETATM    8  C   UNL     1       7.806  25.378  57.016  1.00  0.00     0.249 C 
HETATM    9  O   UNL     1       8.350  25.672  58.074  1.00  0.00    -0.271 OA
HETATM   10  C   UNL     1       7.435  24.867  53.422  1.00  0.00     0.035 C 
HETATM   11  C   UNL     1       7.974  23.606  52.754  1.00  0.00     0.002 C 
HETATM   12  C   UNL     1       8.600  22.659  53.775  1.00  0.00     0.002 C 
HETATM   13  C   UNL     1       7.611  22.287  54.879  1.00  0.00     0.027 C 
HETATM   14  H   UNL     1       8.467  23.504  57.127  1.00  0.00     0.163 HD
ENDROOT
BRANCH   1  15
HETATM   15  C   UNL     1       6.424  27.512  57.029  1.00  0.00     0.146 C 
BRANCH  15  16
HETATM   16  C   UNL     1       6.261  28.794  56.256  1.00  0.00     0.224 C 
HETATM   17  N   UNL     1       6.763  29.981  56.678  1.00  0.00    -0.327 N 
HETATM   18  H   UNL     1       6.536  30.726  56.024  1.00  0.00     0.169 HD
HETATM   19  O   UNL     1       5.709  28.746  55.147  1.00  0.00    -0.273 OA
BRANCH  17  20
HETATM   20  C   UNL     1       7.500  30.402  57.804  1.00  0.00     0.034 A 
HETATM   21  C   UNL     1       8.828  30.090  58.084  1.00  0.00     0.030 A 
HETATM   22  C   UNL     1       9.441  30.557  59.257  1.00  0.00     0.009 A 
HETATM   23  C   UNL     1       8.746  31.362  60.160  1.00  0.00    -0.062 A 
HETATM   24  C   UNL     1       9.387  31.831  61.433  1.00  0.00     0.048 C 
HETATM   25  C   UNL     1       7.419  31.687  59.881  1.00  0.00     0.009 A 
HETATM   26  C   UNL     1       6.807  31.214  58.715  1.00  0.00     0.030 A 
ENDBRANCH  17  20
ENDBRANCH  15  16
ENDBRANCH   1  15
TORSDOF 3
ENDMDL
MODEL 8
REMARK VINA RESULT:      -8.4      9.007     11.486
REMARK  3 active torsions:
REMARK  status: ('A' for Active; 'I' for Inactive)
REMARK    1  A    between atoms: C_5  and  N_6 
REMARK       I    between atoms: N_6  and  C_7 
REMARK    2  A    between atoms: C_7  and  C_8 
REMARK    3  A    between atoms: C_8  and  C_9 
ROOT
HETATM    1  C   UNL     1       4.615  26.902  52.074  1.00  0.00     0.286 C 
HETATM    2  N   UNL     1       5.657  26.708  50.977  1.00  0.00    -0.056 N 
HETATM    3  H   UNL     1       6.466  27.300  51.264  1.00  0.00     0.278 HD
HETATM    4  H   UNL     1       6.008  25.743  50.964  1.00  0.00     0.278 HD
HETATM    5  C   UNL     1       5.235  27.159  49.607  1.00  0.00     0.209 C 
HETATM    6  C   UNL     1       4.712  28.616  49.679  1.00  0.00     0.115 C 
HETATM    7  N   UNL     1       3.743  28.821  50.753  1.00  0.00    -0.353 N 
HETATM    8  C   UNL     1       3.885  28.260  51.999  1.00  0.00     0.249 C 
HETATM    9  O   UNL     1       3.348  28.781  52.969  1.00  0.00    -0.271 OA
HETATM   10  C   UNL     1       4.219  26.175  49.022  1.00  0.00     0.035 C 
HETATM   11  C   UNL     1       3.705  26.659  47.670  1.00  0.00     0.002 C 
HETATM   12  C   UNL     1       3.119  28.066  47.767  1.00  0.00     0.002 C 
HETATM   13  C   UNL     1       4.134  29.061  48.330  1.00  0.00     0.027 C 
HETATM   14  H   UNL     1       3.277  29.727  50.799  1.00  0.00     0.163 HD
ENDROOT
BRANCH   1  15
HETATM   15  C   UNL     1       5.208  26.666  53.472  1.00  0.00     0.146 C 
BRANCH  15  16
HETATM   16  C   UNL     1       6.664  27.046  53.527  1.00  0.00     0.224 C 
HETATM   17  N   UNL     1       7.657  26.146  53.733  1.00  0.00    -0.327 N 
HETATM   18  H   UNL     1       8.566  26.601  53.748  1.00  0.00     0.169 HD
HETATM   19  O   UNL     1       6.973  28.225  53.297  1.00  0.00    -0.273 OA
BRANCH  17  20
HETATM   20  C   UNL     1       7.704  24.751  53.940  1.00  0.00     0.034 A 
HETATM   21  C   UNL     1       7.584  24.096  55.164  1.00  0.00     0.030 A 
HETATM   22  C   UNL     1       7.670  22.697  55.237  1.00  0.00     0.009 A 
HETATM   23  C   UNL     1       7.856  21.927  54.089  1.00  0.00    -0.062 A 
HETATM   24  C   UNL     1       7.987  20.434  54.169  1.00  0.00     0.048 C 
HETATM   25  C   UNL     1       7.965  22.576  52.860  1.00  0.00     0.009 A 
HETATM   26  C   UNL     1       7.887  23.971  52.789  1.00  0.00     0.030 A 
ENDBRANCH  17  20
ENDBRANCH  15  16
ENDBRANCH   1  15
TORSDOF 3
ENDMDL
MODEL 9
REMARK VINA RESULT:      -8.3      6.817      9.175
REMARK  3 active torsions:
REMARK  status: ('A' for Active; 'I' for Inactive)
REMARK    1  A    between atoms: C_5  and  N_6 
REMARK       I    between atoms: N_6  and  C_7 
REMARK    2  A    between atoms: C_7  and  C_8 
REMARK    3  A    between atoms: C_8  and  C_9 
ROOT
HETATM    1  C   UNL     1       6.836  24.412  56.354  1.00  0.00     0.286 C 
HETATM    2  N   UNL     1       8.297  24.002  56.504  1.00  0.00    -0.056 N 
HETATM    3  H   UNL     1       8.844  24.828  56.176  1.00  0.00     0.278 HD
HETATM    4  H   UNL     1       8.549  23.876  57.491  1.00  0.00     0.278 HD
HETATM    5  C   UNL     1       8.720  22.825  55.671  1.00  0.00     0.209 C 
HETATM    6  C   UNL     1       8.316  23.062  54.194  1.00  0.00     0.115 C 
HETATM    7  N   UNL     1       6.928  23.494  54.045  1.00  0.00    -0.353 N 
HETATM    8  C   UNL     1       6.335  24.395  54.895  1.00  0.00     0.249 C 
HETATM    9  O   UNL     1       5.380  25.061  54.511  1.00  0.00    -0.271 OA
HETATM   10  C   UNL     1       8.144  21.535  56.260  1.00  0.00     0.035 C 
HETATM   11  C   UNL     1       8.482  20.334  55.381  1.00  0.00     0.002 C 
HETATM   12  C   UNL     1       8.009  20.545  53.945  1.00  0.00     0.002 C 
HETATM   13  C   UNL     1       8.597  21.821  53.340  1.00  0.00     0.027 C 
HETATM   14  H   UNL     1       6.559  23.570  53.097  1.00  0.00     0.163 HD
ENDROOT
BRANCH   1  15
HETATM   15  C   UNL     1       6.550  25.765  57.025  1.00  0.00     0.146 C 
BRANCH  15  16
HETATM   16  C   UNL     1       7.656  26.755  56.766  1.00  0.00     0.224 C 
HETATM   17  N   UNL     1       7.559  27.750  55.850  1.00  0.00    -0.327 N 
HETATM   18  H   UNL     1       8.413  28.301  55.818  1.00  0.00     0.169 HD
HETATM   19  O   UNL     1       8.670  26.703  57.479  1.00  0.00    -0.273 OA
BRANCH  17  20
HETATM   20  C   UNL     1       6.564  28.169  54.943  1.00  0.00     0.034 A 
HETATM   21  C   UNL     1       5.333  28.732  55.272  1.00  0.00     0.030 A 
HETATM   22  C   UNL     1       4.418  29.087  54.270  1.00  0.00     0.009 A 
HETATM   23  C   UNL     1       4.724  28.908  52.920  1.00  0.00    -0.062 A 
HETATM   24  C   UNL     1       3.733  29.252  51.847  1.00  0.00     0.048 C 
HETATM   25  C   UNL     1       5.959  28.356  52.583  1.00  0.00     0.009 A 
HETATM   26  C   UNL     1       6.867  27.994  53.584  1.00  0.00     0.030 A 
ENDBRANCH  17  20
ENDBRANCH  15  16
ENDBRANCH   1  15
TORSDOF 3
ENDMDL
MODEL 10
REMARK VINA RESULT:      -8.3      2.057      7.715
REMARK  3 active torsions:
REMARK  status: ('A' for Active; 'I' for Inactive)
REMARK    1  A    between atoms: C_5  and  N_6 
REMARK       I    between atoms: N_6  and  C_7 
REMARK    2  A    between atoms: C_7  and  C_8 
REMARK    3  A    between atoms: C_8  and  C_9 
ROOT
HETATM    1  C   UNL     1       7.410  31.812  59.959  1.00  0.00     0.286 C 
HETATM    2  N   UNL     1       7.628  30.873  61.142  1.00  0.00    -0.056 N 
HETATM    3  H   UNL     1       7.028  30.044  60.942  1.00  0.00     0.278 HD
HETATM    4  H   UNL     1       8.592  30.521  61.164  1.00  0.00     0.278 HD
HETATM    5  C   UNL     1       7.209  31.420  62.477  1.00  0.00     0.209 C 
HETATM    6  C   UNL     1       5.753  31.940  62.391  1.00  0.00     0.115 C 
HETATM    7  N   UNL     1       5.524  32.808  61.238  1.00  0.00    -0.353 N 
HETATM    8  C   UNL     1       6.056  32.551  59.998  1.00  0.00     0.249 C 
HETATM    9  O   UNL     1       5.514  33.000  58.995  1.00  0.00    -0.271 OA
HETATM   10  C   UNL     1       8.208  32.481  62.944  1.00  0.00     0.035 C 
HETATM   11  C   UNL     1       7.757  33.118  64.255  1.00  0.00     0.002 C 
HETATM   12  C   UNL     1       6.350  33.698  64.136  1.00  0.00     0.002 C 
HETATM   13  C   UNL     1       5.340  32.640  63.691  1.00  0.00     0.027 C 
HETATM   14  H   UNL     1       4.619  33.272  61.171  1.00  0.00     0.163 HD
ENDROOT
BRANCH   1  15
HETATM   15  C   UNL     1       7.614  31.093  58.615  1.00  0.00     0.146 C 
BRANCH  15  16
HETATM   16  C   UNL     1       9.052  30.693  58.414  1.00  0.00     0.224 C 
HETATM   17  N   UNL     1       9.427  29.642  57.643  1.00  0.00    -0.327 N 
HETATM   18  H   UNL     1      10.437  29.530  57.646  1.00  0.00     0.169 HD
HETATM   19  O   UNL     1       9.935  31.405  58.914  1.00  0.00    -0.273 OA
BRANCH  17  20
HETATM   20  C   UNL     1       8.738  28.684  56.870  1.00  0.00     0.034 A 
HETATM   21  C   UNL     1       8.297  27.436  57.306  1.00  0.00     0.030 A 
HETATM   22  C   UNL     1       7.640  26.563  56.426  1.00  0.00     0.009 A 
HETATM   23  C   UNL     1       7.392  26.928  55.102  1.00  0.00    -0.062 A 
HETATM   24  C   UNL     1       6.724  25.982  54.149  1.00  0.00     0.048 C 
HETATM   25  C   UNL     1       7.821  28.180  54.663  1.00  0.00     0.009 A 
HETATM   26  C   UNL     1       8.483  29.046  55.539  1.00  0.00     0.030 A 
ENDBRANCH  17  20
ENDBRANCH  15  16
ENDBRANCH   1  15
TORSDOF 3
ENDMDL
