MODEL 1
REMARK VINA RESULT:     -10.0      0.000      0.000
REMARK  6 active torsions:
REMARK  status: ('A' for Active; 'I' for Inactive)
REMARK    1  A    between atoms: C_2  and  C_3 
REMARK       I    between atoms: C_3  and  N_4 
REMARK    2  A    between atoms: N_4  and  C_5 
REMARK    3  A    between atoms: C_8  and  N_9 
REMARK       I    between atoms: N_9  and  C_10 
REMARK    4  A    between atoms: C_10  and  C_11 
REMARK    5  A    between atoms: C_16  and  C_17 
REMARK    6  A    between atoms: C_23  and  C_24 
ROOT
HETATM    1  C   UNL     1       6.628  31.396  58.793  1.00  0.00     0.148 A 
HETATM    2  N   UNL     1       7.830  30.788  58.678  1.00  0.00    -0.165 NA
HETATM    3  N   UNL     1       7.743  30.122  57.510  1.00  0.00    -0.240 N 
HETATM    4  C   UNL     1       6.529  30.262  56.890  1.00  0.00     0.123 A 
HETATM    5  N   UNL     1       6.254  29.645  55.719  1.00  0.00    -0.364 N 
HETATM    6  C   UNL     1       7.105  28.554  55.237  1.00  0.00     0.143 C 
HETATM    7  C   UNL     1       8.572  28.876  55.559  1.00  0.00     0.068 C 
HETATM    8  C   UNL     1       8.776  29.208  57.052  1.00  0.00     0.221 C 
HETATM    9  C   UNL     1       5.785  31.085  57.691  1.00  0.00     0.089 A 
HETATM   10  H   UNL     1       5.292  29.606  55.384  1.00  0.00     0.162 HD
ENDROOT
BRANCH   1  11
HETATM   11  C   UNL     1       6.284  32.260  59.936  1.00  0.00     0.276 C 
HETATM   12  N   UNL     1       6.770  31.764  61.132  1.00  0.00    -0.322 N 
HETATM   13  H   UNL     1       7.314  30.910  61.026  1.00  0.00     0.169 HD
HETATM   14  O   UNL     1       5.659  33.304  59.777  1.00  0.00    -0.266 OA
BRANCH  12  15
HETATM   15  C   UNL     1       6.638  32.318  62.416  1.00  0.00     0.035 A 
HETATM   16  C   UNL     1       5.418  32.475  63.071  1.00  0.00     0.032 A 
HETATM   17  C   UNL     1       5.360  33.030  64.359  1.00  0.00     0.032 A 
HETATM   18  C   UNL     1       6.521  33.440  65.011  1.00  0.00     0.034 A 
HETATM   19  C   UNL     1       7.747  33.284  64.352  1.00  0.00     0.032 A 
HETATM   20  C   UNL     1       7.805  32.724  63.069  1.00  0.00     0.032 A 
BRANCH  18  21
HETATM   21  N   UNL     1       6.547  33.997  66.307  1.00  0.00    -0.327 N 
HETATM   22  C   UNL     1       5.468  34.265  67.130  1.00  0.00     0.221 C 
HETATM   23  O   UNL     1       4.286  34.064  66.871  1.00  0.00    -0.273 OA
HETATM   24  H   UNL     1       7.464  34.227  66.666  1.00  0.00     0.169 HD
BRANCH  22  25
HETATM   25  C   UNL     1       5.867  34.810  68.493  1.00  0.00     0.098 C 
HETATM   26  C   UNL     1       7.358  34.739  68.765  1.00  0.00     0.014 C 
ENDBRANCH  22  25
ENDBRANCH  18  21
ENDBRANCH  12  15
ENDBRANCH   1  11
BRANCH   8  27
HETATM   27  C   UNL     1      10.167  29.764  57.263  1.00  0.00     0.409 C 
HETATM   28  F   UNL     1      10.338  30.971  56.678  1.00  0.00    -0.169 F 
HETATM   29  F   UNL     1      10.506  29.876  58.566  1.00  0.00    -0.169 F 
HETATM   30  F   UNL     1      11.086  28.930  56.706  1.00  0.00    -0.169 F 
ENDBRANCH   8  27
BRANCH   6  31
HETATM   31  C   UNL     1       6.714  27.193  55.720  1.00  0.00     0.075 A 
HETATM   32  O   UNL     1       7.555  26.170  55.387  1.00  0.00    -0.325 OA
HETATM   33  C   UNL     1       7.015  25.030  55.888  1.00  0.00     0.142 A 
HETATM   34  C   UNL     1       5.841  25.303  56.549  1.00  0.00     0.027 A 
HETATM   35  C   UNL     1       5.644  26.700  56.443  1.00  0.00     0.037 A 
ENDBRANCH   6  31
TORSDOF 6
ENDMDL
MODEL 2
REMARK VINA RESULT:      -9.5      2.534      3.211
REMARK  6 active torsions:
REMARK  status: ('A' for Active; 'I' for Inactive)
REMARK    1  A    between atoms: C_2  and  C_3 
REMARK       I    between atoms: C_3  and  N_4 
REMARK    2  A    between atoms: N_4  and  C_5 
REMARK    3  A    between atoms: C_8  and  N_9 
REMARK       I    between atoms: N_9  and  C_10 
REMARK    4  A    between atoms: C_10  and  C_11 
REMARK    5  A    between atoms: C_16  and  C_17 
REMARK    6  A    between atoms: C_23  and  C_24 
ROOT
HETATM    1  C   UNL     1       8.353  29.631  58.045  1.00  0.00     0.148 A 
HETATM    2  N   UNL     1       7.900  28.358  58.092  1.00  0.00    -0.165 NA
HETATM    3  N   UNL     1       7.844  27.990  56.797  1.00  0.00    -0.240 N 
HETATM    4  C   UNL     1       8.219  28.982  55.929  1.00  0.00     0.123 A 
HETATM    5  N   UNL     1       8.203  28.799  54.591  1.00  0.00    -0.364 N 
HETATM    6  C   UNL     1       7.480  27.667  54.005  1.00  0.00     0.143 C 
HETATM    7  C   UNL     1       7.659  26.434  54.903  1.00  0.00     0.068 C 
HETATM    8  C   UNL     1       7.272  26.724  56.367  1.00  0.00     0.221 C 
HETATM    9  C   UNL     1       8.561  30.057  56.705  1.00  0.00     0.089 A 
HETATM   10  H   UNL     1       8.295  29.603  53.970  1.00  0.00     0.162 HD
ENDROOT
BRANCH   1  11
HETATM   11  C   UNL     1       8.584  30.434  59.260  1.00  0.00     0.276 C 
HETATM   12  N   UNL     1       7.402  30.826  59.861  1.00  0.00    -0.322 N 
HETATM   13  H   UNL     1       6.571  30.470  59.393  1.00  0.00     0.169 HD
HETATM   14  O   UNL     1       9.721  30.669  59.658  1.00  0.00    -0.266 OA
BRANCH  12  15
HETATM   15  C   UNL     1       7.237  31.592  61.027  1.00  0.00     0.035 A 
HETATM   16  C   UNL     1       6.448  32.738  61.097  1.00  0.00     0.032 A 
HETATM   17  C   UNL     1       6.321  33.451  62.298  1.00  0.00     0.032 A 
HETATM   18  C   UNL     1       6.985  33.032  63.449  1.00  0.00     0.034 A 
HETATM   19  C   UNL     1       7.780  31.881  63.379  1.00  0.00     0.032 A 
HETATM   20  C   UNL     1       7.901  31.166  62.181  1.00  0.00     0.032 A 
BRANCH  18  21
HETATM   21  N   UNL     1       6.901  33.688  64.696  1.00  0.00    -0.327 N 
HETATM   22  C   UNL     1       5.811  33.742  65.546  1.00  0.00     0.221 C 
HETATM   23  O   UNL     1       4.714  33.226  65.361  1.00  0.00    -0.273 OA
HETATM   24  H   UNL     1       7.736  34.174  64.991  1.00  0.00     0.169 HD
BRANCH  22  25
HETATM   25  C   UNL     1       6.092  34.487  66.842  1.00  0.00     0.098 C 
HETATM   26  C   UNL     1       5.075  34.212  67.935  1.00  0.00     0.014 C 
ENDBRANCH  22  25
ENDBRANCH  18  21
ENDBRANCH  12  15
ENDBRANCH   1  11
BRANCH   8  27
HETATM   27  C   UNL     1       7.707  25.573  57.247  1.00  0.00     0.409 C 
HETATM   28  F   UNL     1       9.051  25.477  57.349  1.00  0.00    -0.169 F 
HETATM   29  F   UNL     1       7.193  25.628  58.494  1.00  0.00    -0.169 F 
HETATM   30  F   UNL     1       7.275  24.398  56.714  1.00  0.00    -0.169 F 
ENDBRANCH   8  27
BRANCH   6  31
HETATM   31  C   UNL     1       6.039  27.932  53.701  1.00  0.00     0.075 A 
HETATM   32  O   UNL     1       5.493  27.204  52.683  1.00  0.00    -0.325 OA
HETATM   33  C   UNL     1       4.204  27.608  52.549  1.00  0.00     0.142 A 
HETATM   34  C   UNL     1       3.906  28.580  53.474  1.00  0.00     0.027 A 
HETATM   35  C   UNL     1       5.090  28.791  54.220  1.00  0.00     0.037 A 
ENDBRANCH   6  31
TORSDOF 6
ENDMDL
MODEL 3
REMARK VINA RESULT:      -9.4      7.461     13.431
REMARK  6 active torsions:
REMARK  status: ('A' for Active; 'I' for Inactive)
REMARK    1  A    between atoms: C_2  and  C_3 
REMARK       I    between atoms: C_3  and  N_4 
REMARK    2  A    between atoms: N_4  and  C_5 
REMARK    3  A    between atoms: C_8  and  N_9 
REMARK       I    between atoms: N_9  and  C_10 
REMARK    4  A    between atoms: C_10  and  C_11 
REMARK    5  A    between atoms: C_16  and  C_17 
REMARK    6  A    between atoms: C_23  and  C_24 
ROOT
HETATM    1  C   UNL     1       5.024  27.332  51.784  1.00  0.00     0.148 A 
HETATM    2  N   UNL     1       6.132  26.576  51.958  1.00  0.00    -0.165 NA
HETATM    3  N   UNL     1       6.137  26.313  53.280  1.00  0.00    -0.240 N 
HETATM    4  C   UNL     1       5.093  26.890  53.956  1.00  0.00     0.123 A 
HETATM    5  N   UNL     1       4.951  26.753  55.293  1.00  0.00    -0.364 N 
HETATM    6  C   UNL     1       6.066  26.270  56.113  1.00  0.00     0.143 C 
HETATM    7  C   UNL     1       6.818  25.171  55.348  1.00  0.00     0.068 C 
HETATM    8  C   UNL     1       7.240  25.634  53.938  1.00  0.00     0.221 C 
HETATM    9  C   UNL     1       4.351  27.552  53.016  1.00  0.00     0.089 A 
HETATM   10  H   UNL     1       4.289  27.346  55.793  1.00  0.00     0.162 HD
ENDROOT
BRANCH   1  11
HETATM   11  C   UNL     1       4.613  27.840  50.463  1.00  0.00     0.276 C 
HETATM   12  N   UNL     1       3.247  27.749  50.269  1.00  0.00    -0.322 N 
HETATM   13  H   UNL     1       2.746  27.382  51.075  1.00  0.00     0.169 HD
HETATM   14  O   UNL     1       5.434  28.307  49.680  1.00  0.00    -0.266 OA
BRANCH  12  15
HETATM   15  C   UNL     1       2.506  28.136  49.140  1.00  0.00     0.035 A 
HETATM   16  C   UNL     1       2.004  29.421  48.946  1.00  0.00     0.032 A 
HETATM   17  C   UNL     1       1.278  29.742  47.788  1.00  0.00     0.032 A 
HETATM   18  C   UNL     1       1.039  28.781  46.808  1.00  0.00     0.034 A 
HETATM   19  C   UNL     1       1.541  27.488  47.004  1.00  0.00     0.032 A 
HETATM   20  C   UNL     1       2.272  27.171  48.157  1.00  0.00     0.032 A 
BRANCH  18  21
HETATM   21  N   UNL     1       0.327  29.026  45.615  1.00  0.00    -0.327 N 
HETATM   22  C   UNL     1      -0.980  28.679  45.328  1.00  0.00     0.221 C 
HETATM   23  O   UNL     1      -1.758  28.088  46.071  1.00  0.00    -0.273 OA
HETATM   24  H   UNL     1       0.842  29.507  44.890  1.00  0.00     0.169 HD
BRANCH  22  25
HETATM   25  C   UNL     1      -1.448  29.156  43.961  1.00  0.00     0.098 C 
HETATM   26  C   UNL     1      -1.313  28.107  42.872  1.00  0.00     0.014 C 
ENDBRANCH  22  25
ENDBRANCH  18  21
ENDBRANCH  12  15
ENDBRANCH   1  11
BRANCH   8  27
HETATM   27  C   UNL     1       7.739  24.448  53.142  1.00  0.00     0.409 C 
HETATM   28  F   UNL     1       6.735  23.641  52.730  1.00  0.00    -0.169 F 
HETATM   29  F   UNL     1       8.468  24.798  52.060  1.00  0.00    -0.169 F 
HETATM   30  F   UNL     1       8.557  23.685  53.915  1.00  0.00    -0.169 F 
ENDBRANCH   8  27
BRANCH   6  31
HETATM   31  C   UNL     1       6.990  27.339  56.606  1.00  0.00     0.075 A 
HETATM   32  O   UNL     1       6.501  28.614  56.588  1.00  0.00    -0.325 OA
HETATM   33  C   UNL     1       7.489  29.428  57.041  1.00  0.00     0.142 A 
HETATM   34  C   UNL     1       8.607  28.695  57.361  1.00  0.00     0.027 A 
HETATM   35  C   UNL     1       8.287  27.344  57.081  1.00  0.00     0.037 A 
ENDBRANCH   6  31
TORSDOF 6
ENDMDL
MODEL 4
REMARK VINA RESULT:      -9.3      3.003     10.290
REMARK  6 active torsions:
REMARK  status: ('A' for Active; 'I' for Inactive)
REMARK    1  A    between atoms: C_2  and  C_3 
REMARK       I    between atoms: C_3  and  N_4 
REMARK    2  A    between atoms: N_4  and  C_5 
REMARK    3  A    between atoms: C_8  and  N_9 
REMARK       I    between atoms: N_9  and  C_10 
REMARK    4  A    between atoms: C_10  and  C_11 
REMARK    5  A    between atoms: C_16  and  C_17 
REMARK    6  A    between atoms: C_23  and  C_24 
ROOT
HETATM    1  C   UNL     1       5.599  32.066  59.198  1.00  0.00     0.148 A 
HETATM    2  N   UNL     1       6.638  32.213  60.051  1.00  0.00    -0.165 NA
HETATM    3  N   UNL     1       6.096  32.851  61.108  1.00  0.00    -0.240 N 
HETATM    4  C   UNL     1       4.765  33.136  60.951  1.00  0.00     0.123 A 
HETATM    5  N   UNL     1       4.063  33.793  61.901  1.00  0.00    -0.364 N 
HETATM    6  C   UNL     1       4.757  34.511  62.974  1.00  0.00     0.143 C 
HETATM    7  C   UNL     1       5.985  33.701  63.412  1.00  0.00     0.068 C 
HETATM    8  C   UNL     1       6.895  33.340  62.220  1.00  0.00     0.221 C 
HETATM    9  C   UNL     1       4.410  32.636  59.727  1.00  0.00     0.089 A 
HETATM   10  H   UNL     1       3.138  34.163  61.679  1.00  0.00     0.162 HD
ENDROOT
BRANCH   1  11
HETATM   11  C   UNL     1       5.737  31.393  57.894  1.00  0.00     0.276 C 
HETATM   12  N   UNL     1       6.256  30.117  58.015  1.00  0.00    -0.322 N 
HETATM   13  H   UNL     1       6.424  29.837  58.979  1.00  0.00     0.169 HD
HETATM   14  O   UNL     1       5.386  31.945  56.856  1.00  0.00    -0.266 OA
BRANCH  12  15
HETATM   15  C   UNL     1       6.520  29.190  56.993  1.00  0.00     0.035 A 
HETATM   16  C   UNL     1       7.635  29.252  56.159  1.00  0.00     0.032 A 
HETATM   17  C   UNL     1       7.842  28.286  55.162  1.00  0.00     0.032 A 
HETATM   18  C   UNL     1       6.934  27.245  54.980  1.00  0.00     0.034 A 
HETATM   19  C   UNL     1       5.812  27.184  55.816  1.00  0.00     0.032 A 
HETATM   20  C   UNL     1       5.610  28.145  56.816  1.00  0.00     0.032 A 
BRANCH  18  21
HETATM   21  N   UNL     1       7.075  26.231  54.009  1.00  0.00    -0.327 N 
HETATM   22  C   UNL     1       7.615  24.970  54.181  1.00  0.00     0.221 C 
HETATM   23  O   UNL     1       8.073  24.508  55.222  1.00  0.00    -0.273 OA
HETATM   24  H   UNL     1       6.745  26.465  53.082  1.00  0.00     0.169 HD
BRANCH  22  25
HETATM   25  C   UNL     1       7.552  24.108  52.929  1.00  0.00     0.098 C 
HETATM   26  C   UNL     1       8.010  22.678  53.151  1.00  0.00     0.014 C 
ENDBRANCH  22  25
ENDBRANCH  18  21
ENDBRANCH  12  15
ENDBRANCH   1  11
BRANCH   8  27
HETATM   27  C   UNL     1       7.937  32.335  62.660  1.00  0.00     0.409 C 
HETATM   28  F   UNL     1       7.461  31.070  62.682  1.00  0.00    -0.169 F 
HETATM   29  F   UNL     1       9.052  32.353  61.900  1.00  0.00    -0.169 F 
HETATM   30  F   UNL     1       8.341  32.618  63.928  1.00  0.00    -0.169 F 
ENDBRANCH   8  27
BRANCH   6  31
HETATM   31  C   UNL     1       5.109  35.930  62.653  1.00  0.00     0.075 A 
HETATM   32  O   UNL     1       4.565  36.443  61.510  1.00  0.00    -0.325 OA
HETATM   33  C   UNL     1       5.023  37.714  61.385  1.00  0.00     0.142 A 
HETATM   34  C   UNL     1       5.847  38.035  62.437  1.00  0.00     0.027 A 
HETATM   35  C   UNL     1       5.904  36.884  63.259  1.00  0.00     0.037 A 
ENDBRANCH   6  31
TORSDOF 6
ENDMDL
MODEL 5
REMARK VINA RESULT:      -8.9      4.534      6.287
REMARK  6 active torsions:
REMARK  status: ('A' for Active; 'I' for Inactive)
REMARK    1  A    between atoms: C_2  and  C_3 
REMARK       I    between atoms: C_3  and  N_4 
REMARK    2  A    between atoms: N_4  and  C_5 
REMARK    3  A    between atoms: C_8  and  N_9 
REMARK       I    between atoms: N_9  and  C_10 
REMARK    4  A    between atoms: C_10  and  C_11 
REMARK    5  A    between atoms: C_16  and  C_17 
REMARK    6  A    between atoms: C_23  and  C_24 
ROOT
HETATM    1  C   UNL     1       5.709  28.355  55.047  1.00  0.00     0.148 A 
HETATM    2  N   UNL     1       5.260  27.166  54.585  1.00  0.00    -0.165 NA
HETATM    3  N   UNL     1       5.243  27.327  53.247  1.00  0.00    -0.240 N 
HETATM    4  C   UNL     1       5.639  28.575  52.841  1.00  0.00     0.123 A 
HETATM    5  N   UNL     1       5.662  28.924  51.536  1.00  0.00    -0.364 N 
HETATM    6  C   UNL     1       4.961  28.111  50.538  1.00  0.00     0.143 C 
HETATM    7  C   UNL     1       5.119  26.626  50.894  1.00  0.00     0.068 C 
HETATM    8  C   UNL     1       4.690  26.330  52.345  1.00  0.00     0.221 C 
HETATM    9  C   UNL     1       5.953  29.264  53.982  1.00  0.00     0.089 A 
HETATM   10  H   UNL     1       5.768  29.905  51.277  1.00  0.00     0.162 HD
ENDROOT
BRANCH   1  11
HETATM   11  C   UNL     1       5.901  28.624  56.483  1.00  0.00     0.276 C 
HETATM   12  N   UNL     1       6.700  29.730  56.706  1.00  0.00    -0.322 N 
HETATM   13  H   UNL     1       6.994  30.198  55.852  1.00  0.00     0.169 HD
HETATM   14  O   UNL     1       5.363  27.925  57.336  1.00  0.00    -0.266 OA
BRANCH  12  15
HETATM   15  C   UNL     1       7.092  30.279  57.938  1.00  0.00     0.035 A 
HETATM   16  C   UNL     1       8.144  29.785  58.708  1.00  0.00     0.032 A 
HETATM   17  C   UNL     1       8.488  30.389  59.927  1.00  0.00     0.032 A 
HETATM   18  C   UNL     1       7.782  31.494  60.399  1.00  0.00     0.034 A 
HETATM   19  C   UNL     1       6.724  31.989  59.627  1.00  0.00     0.032 A 
HETATM   20  C   UNL     1       6.386  31.390  58.406  1.00  0.00     0.032 A 
BRANCH  18  21
HETATM   21  N   UNL     1       8.071  32.162  61.608  1.00  0.00    -0.327 N 
HETATM   22  C   UNL     1       7.312  32.175  62.764  1.00  0.00     0.221 C 
HETATM   23  O   UNL     1       6.242  31.602  62.941  1.00  0.00    -0.273 OA
HETATM   24  H   UNL     1       8.931  32.693  61.619  1.00  0.00     0.169 HD
BRANCH  22  25
HETATM   25  C   UNL     1       7.957  32.951  63.902  1.00  0.00     0.098 C 
HETATM   26  C   UNL     1       6.969  33.424  64.953  1.00  0.00     0.014 C 
ENDBRANCH  22  25
ENDBRANCH  18  21
ENDBRANCH  12  15
ENDBRANCH   1  11
BRANCH   8  27
HETATM   27  C   UNL     1       5.104  24.925  52.723  1.00  0.00     0.409 C 
HETATM   28  F   UNL     1       6.446  24.764  52.725  1.00  0.00    -0.169 F 
HETATM   29  F   UNL     1       4.631  24.532  53.925  1.00  0.00    -0.169 F 
HETATM   30  F   UNL     1       4.609  24.040  51.816  1.00  0.00    -0.169 F 
ENDBRANCH   8  27
BRANCH   6  31
HETATM   31  C   UNL     1       3.528  28.483  50.320  1.00  0.00     0.075 A 
HETATM   32  O   UNL     1       2.943  27.993  49.188  1.00  0.00    -0.325 OA
HETATM   33  C   UNL     1       1.669  28.461  49.161  1.00  0.00     0.142 A 
HETATM   34  C   UNL     1       1.419  29.240  50.266  1.00  0.00     0.027 A 
HETATM   35  C   UNL     1       2.618  29.255  51.018  1.00  0.00     0.037 A 
ENDBRANCH   6  31
TORSDOF 6
ENDMDL
MODEL 6
REMARK VINA RESULT:      -8.8      4.027     10.348
REMARK  6 active torsions:
REMARK  status: ('A' for Active; 'I' for Inactive)
REMARK    1  A    between atoms: C_2  and  C_3 
REMARK       I    between atoms: C_3  and  N_4 
REMARK    2  A    between atoms: N_4  and  C_5 
REMARK    3  A    between atoms: C_8  and  N_9 
REMARK       I    between atoms: N_9  and  C_10 
REMARK    4  A    between atoms: C_10  and  C_11 
REMARK    5  A    between atoms: C_16  and  C_17 
REMARK    6  A    between atoms: C_23  and  C_24 
ROOT
HETATM    1  C   UNL     1       6.256  29.773  57.244  1.00  0.00     0.148 A 
HETATM    2  N   UNL     1       7.021  30.603  57.989  1.00  0.00    -0.165 NA
HETATM    3  N   UNL     1       6.124  31.380  58.626  1.00  0.00    -0.240 N 
HETATM    4  C   UNL     1       4.823  31.096  58.300  1.00  0.00     0.123 A 
HETATM    5  N   UNL     1       3.791  31.791  58.826  1.00  0.00    -0.364 N 
HETATM    6  C   UNL     1       4.023  33.072  59.498  1.00  0.00     0.143 C 
HETATM    7  C   UNL     1       5.327  32.990  60.305  1.00  0.00     0.068 C 
HETATM    8  C   UNL     1       6.514  32.520  59.440  1.00  0.00     0.221 C 
HETATM    9  C   UNL     1       4.873  30.056  57.411  1.00  0.00     0.089 A 
HETATM   10  H   UNL     1       2.859  31.693  58.422  1.00  0.00     0.162 HD
ENDROOT
BRANCH   1  11
HETATM   11  C   UNL     1       6.833  28.726  56.383  1.00  0.00     0.276 C 
HETATM   12  N   UNL     1       6.379  27.463  56.718  1.00  0.00    -0.322 N 
HETATM   13  H   UNL     1       5.699  27.463  57.475  1.00  0.00     0.169 HD
HETATM   14  O   UNL     1       7.601  29.009  55.469  1.00  0.00    -0.266 OA
BRANCH  12  15
HETATM   15  C   UNL     1       6.711  26.237  56.117  1.00  0.00     0.035 A 
HETATM   16  C   UNL     1       5.988  25.664  55.072  1.00  0.00     0.032 A 
HETATM   17  C   UNL     1       6.381  24.439  54.513  1.00  0.00     0.032 A 
HETATM   18  C   UNL     1       7.501  23.764  54.992  1.00  0.00     0.034 A 
HETATM   19  C   UNL     1       8.227  24.337  56.044  1.00  0.00     0.032 A 
HETATM   20  C   UNL     1       7.838  25.565  56.597  1.00  0.00     0.032 A 
BRANCH  18  21
HETATM   21  N   UNL     1       7.966  22.535  54.478  1.00  0.00    -0.327 N 
HETATM   22  C   UNL     1       8.010  21.314  55.127  1.00  0.00     0.221 C 
HETATM   23  O   UNL     1       7.650  21.086  56.277  1.00  0.00    -0.273 OA
HETATM   24  H   UNL     1       8.308  22.560  53.527  1.00  0.00     0.169 HD
BRANCH  22  25
HETATM   25  C   UNL     1       8.516  20.180  54.249  1.00  0.00     0.098 C 
HETATM   26  C   UNL     1       8.340  20.435  52.762  1.00  0.00     0.014 C 
ENDBRANCH  22  25
ENDBRANCH  18  21
ENDBRANCH  12  15
ENDBRANCH   1  11
BRANCH   8  27
HETATM   27  C   UNL     1       7.699  32.210  60.327  1.00  0.00     0.409 C 
HETATM   28  F   UNL     1       8.877  32.304  59.671  1.00  0.00    -0.169 F 
HETATM   29  F   UNL     1       7.766  32.993  61.425  1.00  0.00    -0.169 F 
HETATM   30  F   UNL     1       7.611  30.931  60.782  1.00  0.00    -0.169 F 
ENDBRANCH   8  27
BRANCH   6  31
HETATM   31  C   UNL     1       3.999  34.266  58.596  1.00  0.00     0.075 A 
HETATM   32  O   UNL     1       3.245  35.324  59.017  1.00  0.00    -0.325 OA
HETATM   33  C   UNL     1       3.330  36.282  58.059  1.00  0.00     0.142 A 
HETATM   34  C   UNL     1       4.138  35.862  57.029  1.00  0.00     0.027 A 
HETATM   35  C   UNL     1       4.573  34.560  57.374  1.00  0.00     0.037 A 
ENDBRANCH   6  31
TORSDOF 6
ENDMDL
MODEL 7
REMARK VINA RESULT:      -8.5      3.548     10.354
REMARK  6 active torsions:
REMARK  status: ('A' for Active; 'I' for Inactive)
REMARK    1  A    between atoms: C_2  and  C_3 
REMARK       I    between atoms: C_3  and  N_4 
REMARK    2  A    between atoms: N_4  and  C_5 
REMARK    3  A    between atoms: C_8  and  N_9 
REMARK       I    between atoms: N_9  and  C_10 
REMARK    4  A    between atoms: C_10  and  C_11 
REMARK    5  A    between atoms: C_16  and  C_17 
REMARK    6  A    between atoms: C_23  and  C_24 
ROOT
HETATM    1  C   UNL     1       4.737  30.835  58.238  1.00  0.00     0.148 A 
HETATM    2  N   UNL     1       5.765  31.461  58.855  1.00  0.00    -0.165 NA
HETATM    3  N   UNL     1       5.168  32.172  59.831  1.00  0.00    -0.240 N 
HETATM    4  C   UNL     1       3.803  32.044  59.845  1.00  0.00     0.123 A 
HETATM    5  N   UNL     1       3.037  32.704  60.742  1.00  0.00    -0.364 N 
HETATM    6  C   UNL     1       3.590  33.823  61.509  1.00  0.00     0.143 C 
HETATM    7  C   UNL     1       5.042  33.505  61.893  1.00  0.00     0.068 C 
HETATM    8  C   UNL     1       5.893  33.116  60.666  1.00  0.00     0.221 C 
HETATM    9  C   UNL     1       3.492  31.180  58.830  1.00  0.00     0.089 A 
HETATM   10  H   UNL     1       2.027  32.747  60.608  1.00  0.00     0.162 HD
ENDROOT
BRANCH   1  11
HETATM   11  C   UNL     1       4.936  29.922  57.099  1.00  0.00     0.276 C 
HETATM   12  N   UNL     1       5.550  28.741  57.474  1.00  0.00    -0.322 N 
HETATM   13  H   UNL     1       5.731  28.678  58.474  1.00  0.00     0.169 HD
HETATM   14  O   UNL     1       4.552  30.221  55.972  1.00  0.00    -0.266 OA
BRANCH  12  15
HETATM   15  C   UNL     1       5.893  27.648  56.662  1.00  0.00     0.035 A 
HETATM   16  C   UNL     1       5.153  26.468  56.597  1.00  0.00     0.032 A 
HETATM   17  C   UNL     1       5.549  25.417  55.756  1.00  0.00     0.032 A 
HETATM   18  C   UNL     1       6.694  25.527  54.969  1.00  0.00     0.034 A 
HETATM   19  C   UNL     1       7.438  26.711  55.036  1.00  0.00     0.032 A 
HETATM   20  C   UNL     1       7.038  27.763  55.870  1.00  0.00     0.032 A 
BRANCH  18  21
HETATM   21  N   UNL     1       7.152  24.521  54.092  1.00  0.00    -0.327 N 
HETATM   22  C   UNL     1       7.394  23.192  54.389  1.00  0.00     0.221 C 
HETATM   23  O   UNL     1       7.252  22.651  55.481  1.00  0.00    -0.273 OA
HETATM   24  H   UNL     1       7.325  24.816  53.141  1.00  0.00     0.169 HD
BRANCH  22  25
HETATM   25  C   UNL     1       7.824  22.370  53.184  1.00  0.00     0.098 C 
HETATM   26  C   UNL     1       8.029  20.898  53.491  1.00  0.00     0.014 C 
ENDBRANCH  22  25
ENDBRANCH  18  21
ENDBRANCH  12  15
ENDBRANCH   1  11
BRANCH   8  27
HETATM   27  C   UNL     1       7.226  32.567  61.124  1.00  0.00     0.409 C 
HETATM   28  F   UNL     1       7.168  31.252  61.431  1.00  0.00    -0.169 F 
HETATM   29  F   UNL     1       8.216  32.746  60.224  1.00  0.00    -0.169 F 
HETATM   30  F   UNL     1       7.625  33.211  62.254  1.00  0.00    -0.169 F 
ENDBRANCH   8  27
BRANCH   6  31
HETATM   31  C   UNL     1       3.468  35.159  60.846  1.00  0.00     0.075 A 
HETATM   32  O   UNL     1       4.050  36.210  61.495  1.00  0.00    -0.325 OA
HETATM   33  C   UNL     1       3.807  37.322  60.755  1.00  0.00     0.142 A 
HETATM   34  C   UNL     1       3.083  37.003  59.631  1.00  0.00     0.027 A 
HETATM   35  C   UNL     1       2.863  35.606  59.686  1.00  0.00     0.037 A 
ENDBRANCH   6  31
TORSDOF 6
ENDMDL
MODEL 8
REMARK VINA RESULT:      -8.5      3.615     10.557
REMARK  6 active torsions:
REMARK  status: ('A' for Active; 'I' for Inactive)
REMARK    1  A    between atoms: C_2  and  C_3 
REMARK       I    between atoms: C_3  and  N_4 
REMARK    2  A    between atoms: N_4  and  C_5 
REMARK    3  A    between atoms: C_8  and  N_9 
REMARK       I    between atoms: N_9  and  C_10 
REMARK    4  A    between atoms: C_10  and  C_11 
REMARK    5  A    between atoms: C_16  and  C_17 
REMARK    6  A    between atoms: C_23  and  C_24 
ROOT
HETATM    1  C   UNL     1       5.548  32.663  60.056  1.00  0.00     0.148 A 
HETATM    2  N   UNL     1       6.439  32.787  61.065  1.00  0.00    -0.165 NA
HETATM    3  N   UNL     1       5.779  33.515  61.988  1.00  0.00    -0.240 N 
HETATM    4  C   UNL     1       4.517  33.879  61.597  1.00  0.00     0.123 A 
HETATM    5  N   UNL     1       3.719  34.632  62.387  1.00  0.00    -0.364 N 
HETATM    6  C   UNL     1       4.277  35.358  63.530  1.00  0.00     0.143 C 
HETATM    7  C   UNL     1       5.353  34.493  64.203  1.00  0.00     0.068 C 
HETATM    8  C   UNL     1       6.418  34.009  63.197  1.00  0.00     0.221 C 
HETATM    9  C   UNL     1       4.333  33.339  60.353  1.00  0.00     0.089 A 
HETATM   10  H   UNL     1       2.874  35.049  61.998  1.00  0.00     0.162 HD
ENDROOT
BRANCH   1  11
HETATM   11  C   UNL     1       5.848  31.914  58.823  1.00  0.00     0.276 C 
HETATM   12  N   UNL     1       4.990  30.846  58.637  1.00  0.00    -0.322 N 
HETATM   13  H   UNL     1       4.272  30.772  59.355  1.00  0.00     0.169 HD
HETATM   14  O   UNL     1       6.753  32.266  58.072  1.00  0.00    -0.266 OA
BRANCH  12  15
HETATM   15  C   UNL     1       4.977  29.921  57.579  1.00  0.00     0.035 A 
HETATM   16  C   UNL     1       5.829  28.822  57.500  1.00  0.00     0.032 A 
HETATM   17  C   UNL     1       5.756  27.932  56.417  1.00  0.00     0.032 A 
HETATM   18  C   UNL     1       4.831  28.129  55.395  1.00  0.00     0.034 A 
HETATM   19  C   UNL     1       3.975  29.235  55.473  1.00  0.00     0.032 A 
HETATM   20  C   UNL     1       4.045  30.120  56.557  1.00  0.00     0.032 A 
BRANCH  18  21
HETATM   21  N   UNL     1       4.688  27.276  54.280  1.00  0.00    -0.327 N 
HETATM   22  C   UNL     1       5.425  27.291  53.110  1.00  0.00     0.221 C 
HETATM   23  O   UNL     1       6.342  28.058  52.834  1.00  0.00    -0.273 OA
HETATM   24  H   UNL     1       3.958  26.582  54.351  1.00  0.00     0.169 HD
BRANCH  22  25
HETATM   25  C   UNL     1       5.042  26.184  52.139  1.00  0.00     0.098 C 
HETATM   26  C   UNL     1       4.815  24.840  52.807  1.00  0.00     0.014 C 
ENDBRANCH  22  25
ENDBRANCH  18  21
ENDBRANCH  12  15
ENDBRANCH   1  11
BRANCH   8  27
HETATM   27  C   UNL     1       7.295  32.963  63.849  1.00  0.00     0.409 C 
HETATM   28  F   UNL     1       8.554  32.963  63.358  1.00  0.00    -0.169 F 
HETATM   29  F   UNL     1       7.367  33.085  65.192  1.00  0.00    -0.169 F 
HETATM   30  F   UNL     1       6.787  31.723  63.611  1.00  0.00    -0.169 F 
ENDBRANCH   8  27
BRANCH   6  31
HETATM   31  C   UNL     1       4.782  36.731  63.215  1.00  0.00     0.075 A 
HETATM   32  O   UNL     1       5.512  37.345  64.193  1.00  0.00    -0.325 OA
HETATM   33  C   UNL     1       5.848  38.575  63.728  1.00  0.00     0.142 A 
HETATM   34  C   UNL     1       5.355  38.762  62.459  1.00  0.00     0.027 A 
HETATM   35  C   UNL     1       4.666  37.571  62.124  1.00  0.00     0.037 A 
ENDBRANCH   6  31
TORSDOF 6
ENDMDL
MODEL 9
REMARK VINA RESULT:      -8.4     10.648     12.956
REMARK  6 active torsions:
REMARK  status: ('A' for Active; 'I' for Inactive)
REMARK    1  A    between atoms: C_2  and  C_3 
REMARK       I    between atoms: C_3  and  N_4 
REMARK    2  A    between atoms: N_4  and  C_5 
REMARK    3  A    between atoms: C_8  and  N_9 
REMARK       I    between atoms: N_9  and  C_10 
REMARK    4  A    between atoms: C_10  and  C_11 
REMARK    5  A    between atoms: C_16  and  C_17 
REMARK    6  A    between atoms: C_23  and  C_24 
ROOT
HETATM    1  C   UNL     1       3.427  28.608  50.416  1.00  0.00     0.148 A 
HETATM    2  N   UNL     1       4.026  28.825  49.223  1.00  0.00    -0.165 NA
HETATM    3  N   UNL     1       3.088  29.476  48.507  1.00  0.00    -0.240 N 
HETATM    4  C   UNL     1       1.911  29.659  49.186  1.00  0.00     0.123 A 
HETATM    5  N   UNL     1       0.851  30.273  48.616  1.00  0.00    -0.364 N 
HETATM    6  C   UNL     1       0.797  30.468  47.164  1.00  0.00     0.143 C 
HETATM    7  C   UNL     1       2.201  30.819  46.649  1.00  0.00     0.068 C 
HETATM    8  C   UNL     1       3.257  29.788  47.097  1.00  0.00     0.221 C 
HETATM    9  C   UNL     1       2.099  29.114  50.427  1.00  0.00     0.089 A 
HETATM   10  H   UNL     1      -0.063  30.222  49.065  1.00  0.00     0.162 HD
ENDROOT
BRANCH   1  11
HETATM   11  C   UNL     1       4.109  27.925  51.530  1.00  0.00     0.276 C 
HETATM   12  N   UNL     1       4.812  26.811  51.110  1.00  0.00    -0.322 N 
HETATM   13  H   UNL     1       4.776  26.664  50.104  1.00  0.00     0.169 HD
HETATM   14  O   UNL     1       4.045  28.362  52.675  1.00  0.00    -0.266 OA
BRANCH  12  15
HETATM   15  C   UNL     1       5.577  25.927  51.889  1.00  0.00     0.035 A 
HETATM   16  C   UNL     1       6.891  25.569  51.592  1.00  0.00     0.032 A 
HETATM   17  C   UNL     1       7.599  24.685  52.419  1.00  0.00     0.032 A 
HETATM   18  C   UNL     1       7.004  24.141  53.556  1.00  0.00     0.034 A 
HETATM   19  C   UNL     1       5.683  24.498  53.854  1.00  0.00     0.032 A 
HETATM   20  C   UNL     1       4.979  25.386  53.031  1.00  0.00     0.032 A 
BRANCH  18  21
HETATM   21  N   UNL     1       7.652  23.254  54.442  1.00  0.00    -0.327 N 
HETATM   22  C   UNL     1       7.971  21.927  54.221  1.00  0.00     0.221 C 
HETATM   23  O   UNL     1       7.741  21.281  53.203  1.00  0.00    -0.273 OA
HETATM   24  H   UNL     1       7.904  23.641  55.341  1.00  0.00     0.169 HD
BRANCH  22  25
HETATM   25  C   UNL     1       8.726  21.285  55.374  1.00  0.00     0.098 C 
HETATM   26  C   UNL     1       7.862  20.393  56.247  1.00  0.00     0.014 C 
ENDBRANCH  22  25
ENDBRANCH  18  21
ENDBRANCH  12  15
ENDBRANCH   1  11
BRANCH   8  27
HETATM   27  C   UNL     1       4.642  30.311  46.790  1.00  0.00     0.409 C 
HETATM   28  F   UNL     1       4.688  31.006  45.631  1.00  0.00    -0.169 F 
HETATM   29  F   UNL     1       5.149  31.091  47.768  1.00  0.00    -0.169 F 
HETATM   30  F   UNL     1       5.507  29.271  46.652  1.00  0.00    -0.169 F 
ENDBRANCH   8  27
BRANCH   6  31
HETATM   31  C   UNL     1       0.191  29.332  46.401  1.00  0.00     0.075 A 
HETATM   32  O   UNL     1      -0.506  29.666  45.276  1.00  0.00    -0.325 OA
HETATM   33  C   UNL     1      -0.993  28.513  44.750  1.00  0.00     0.142 A 
HETATM   34  C   UNL     1      -0.612  27.437  45.516  1.00  0.00     0.027 A 
HETATM   35  C   UNL     1       0.154  27.963  46.583  1.00  0.00     0.037 A 
ENDBRANCH   6  31
TORSDOF 6
ENDMDL
MODEL 10
REMARK VINA RESULT:      -8.2      7.115     13.053
REMARK  6 active torsions:
REMARK  status: ('A' for Active; 'I' for Inactive)
REMARK    1  A    between atoms: C_2  and  C_3 
REMARK       I    between atoms: C_3  and  N_4 
REMARK    2  A    between atoms: N_4  and  C_5 
REMARK    3  A    between atoms: C_8  and  N_9 
REMARK       I    between atoms: N_9  and  C_10 
REMARK    4  A    between atoms: C_10  and  C_11 
REMARK    5  A    between atoms: C_16  and  C_17 
REMARK    6  A    between atoms: C_23  and  C_24 
ROOT
HETATM    1  C   UNL     1       5.085  26.726  51.655  1.00  0.00     0.148 A 
HETATM    2  N   UNL     1       6.180  25.976  51.915  1.00  0.00    -0.165 NA
HETATM    3  N   UNL     1       6.259  25.981  53.261  1.00  0.00    -0.240 N 
HETATM    4  C   UNL     1       5.277  26.722  53.864  1.00  0.00     0.123 A 
HETATM    5  N   UNL     1       5.214  26.859  55.207  1.00  0.00    -0.364 N 
HETATM    6  C   UNL     1       6.364  26.505  56.044  1.00  0.00     0.143 C 
HETATM    7  C   UNL     1       7.035  25.247  55.475  1.00  0.00     0.068 C 
HETATM    8  C   UNL     1       7.382  25.402  53.980  1.00  0.00     0.221 C 
HETATM    9  C   UNL     1       4.496  27.214  52.853  1.00  0.00     0.089 A 
HETATM   10  H   UNL     1       4.602  27.566  55.614  1.00  0.00     0.162 HD
ENDROOT
BRANCH   1  11
HETATM   11  C   UNL     1       4.607  26.978  50.284  1.00  0.00     0.276 C 
HETATM   12  N   UNL     1       4.150  28.273  50.118  1.00  0.00    -0.322 N 
HETATM   13  H   UNL     1       4.250  28.849  50.952  1.00  0.00     0.169 HD
HETATM   14  O   UNL     1       4.662  26.106  49.423  1.00  0.00    -0.266 OA
BRANCH  12  15
HETATM   15  C   UNL     1       3.628  28.864  48.956  1.00  0.00     0.035 A 
HETATM   16  C   UNL     1       2.289  28.778  48.576  1.00  0.00     0.032 A 
HETATM   17  C   UNL     1       1.833  29.401  47.404  1.00  0.00     0.032 A 
HETATM   18  C   UNL     1       2.710  30.116  46.590  1.00  0.00     0.034 A 
HETATM   19  C   UNL     1       4.055  30.200  46.970  1.00  0.00     0.032 A 
HETATM   20  C   UNL     1       4.508  29.584  48.144  1.00  0.00     0.032 A 
BRANCH  18  21
HETATM   21  N   UNL     1       2.328  30.777  45.403  1.00  0.00    -0.327 N 
HETATM   22  C   UNL     1       1.658  31.982  45.290  1.00  0.00     0.221 C 
HETATM   23  O   UNL     1       1.274  32.693  46.212  1.00  0.00    -0.273 OA
HETATM   24  H   UNL     1       2.572  30.306  44.543  1.00  0.00     0.169 HD
BRANCH  22  25
HETATM   25  C   UNL     1       1.463  32.432  43.850  1.00  0.00     0.098 C 
HETATM   26  C   UNL     1       2.702  32.270  42.987  1.00  0.00     0.014 C 
ENDBRANCH  22  25
ENDBRANCH  18  21
ENDBRANCH  12  15
ENDBRANCH   1  11
BRANCH   8  27
HETATM   27  C   UNL     1       7.796  24.063  53.411  1.00  0.00     0.409 C 
HETATM   28  F   UNL     1       6.751  23.220  53.257  1.00  0.00    -0.169 F 
HETATM   29  F   UNL     1       8.437  24.159  52.227  1.00  0.00    -0.169 F 
HETATM   30  F   UNL     1       8.665  23.451  54.260  1.00  0.00    -0.169 F 
ENDBRANCH   8  27
BRANCH   6  31
HETATM   31  C   UNL     1       7.347  27.612  56.261  1.00  0.00     0.075 A 
HETATM   32  O   UNL     1       7.957  27.646  57.482  1.00  0.00    -0.325 OA
HETATM   33  C   UNL     1       8.779  28.726  57.488  1.00  0.00     0.142 A 
HETATM   34  C   UNL     1       8.716  29.386  56.283  1.00  0.00     0.027 A 
HETATM   35  C   UNL     1       7.792  28.667  55.488  1.00  0.00     0.037 A 
ENDBRANCH   6  31
TORSDOF 6
ENDMDL
