MODEL 1
REMARK VINA RESULT:      -9.0      0.000      0.000
REMARK  7 active torsions:
REMARK  status: ('A' for Active; 'I' for Inactive)
REMARK    1  A    between atoms: O_2  and  C_3 
REMARK    2  A    between atoms: C_6  and  C_7 
REMARK    3  A    between atoms: C_7  and  C_8 
REMARK    4  A    between atoms: C_8  and  C_9 
REMARK    5  A    between atoms: C_9  and  O_10 
REMARK    6  A    between atoms: N_13  and  C_14 
REMARK    7  A    between atoms: C_14  and  N_15 
ROOT
HETATM    1  C   UNL     1       5.918  27.523  54.258  1.00  0.00     0.175 C 
HETATM    2  C   UNL     1       6.305  28.376  55.517  1.00  0.00     0.265 C 
HETATM    3  O   UNL     1       6.241  29.582  55.710  1.00  0.00    -0.269 OA
HETATM    4  N   UNL     1       6.784  27.495  56.497  1.00  0.00    -0.289 N 
HETATM    5  C   UNL     1       7.138  26.278  55.898  1.00  0.00     0.049 A 
HETATM    6  C   UNL     1       6.711  26.266  54.560  1.00  0.00     0.014 A 
HETATM    7  C   UNL     1       7.839  25.217  56.445  1.00  0.00     0.032 A 
HETATM    8  C   UNL     1       8.112  24.121  55.620  1.00  0.00     0.021 A 
HETATM    9  C   UNL     1       7.684  24.106  54.283  1.00  0.00     0.011 A 
HETATM   10 BR   UNL     1       8.071  22.605  53.201  1.00  0.00    -0.051 Br
HETATM   11  C   UNL     1       6.971  25.177  53.740  1.00  0.00     0.032 A 
ENDROOT
BRANCH   1  12
HETATM   12  C   UNL     1       6.279  28.231  52.951  1.00  0.00     0.137 C 
BRANCH  12  13
HETATM   13  C   UNL     1       5.048  28.741  52.211  1.00  0.00     0.163 C 
HETATM   14  O   UNL     1       4.309  29.608  52.670  1.00  0.00    -0.292 OA
BRANCH  13  15
HETATM   15  C   UNL     1       4.731  28.183  50.860  1.00  0.00     0.010 A 
HETATM   16  C   UNL     1       4.293  28.975  49.793  1.00  0.00     0.018 A 
HETATM   17  C   UNL     1       4.011  28.392  48.547  1.00  0.00     0.037 A 
HETATM   18  C   UNL     1       4.163  27.018  48.361  1.00  0.00     0.068 A 
HETATM   19  C   UNL     1       4.593  26.229  49.426  1.00  0.00     0.037 A 
HETATM   20  C   UNL     1       4.878  26.803  50.666  1.00  0.00     0.018 A 
BRANCH  18  21
HETATM   21  O   UNL     1       3.923  26.329  47.205  1.00  0.00    -0.356 OA
HETATM   22  C   UNL     1       2.976  25.269  47.263  1.00  0.00     0.210 C 
ENDBRANCH  18  21
ENDBRANCH  13  15
ENDBRANCH  12  13
ENDBRANCH   1  12
BRANCH   1  23
HETATM   23  O   UNL     1       4.552  27.124  54.244  1.00  0.00    -0.375 OA
HETATM   24  H   UNL     1       4.321  26.734  53.385  1.00  0.00     0.211 HD
ENDBRANCH   1  23
BRANCH   4  25
HETATM   25  C   UNL     1       7.298  27.952  57.757  1.00  0.00     0.367 C 
BRANCH  25  26
HETATM   26  N   UNL     1       8.266  29.081  57.571  1.00  0.00    -0.055 N 
HETATM   27  H   UNL     1       7.792  29.688  56.870  1.00  0.00     0.281 HD
HETATM   28  C   UNL     1       8.455  29.946  58.789  1.00  0.00     0.237 C 
HETATM   29  C   UNL     1       9.246  31.187  58.396  1.00  0.00     0.028 C 
HETATM   30  C   UNL     1      10.576  30.826  57.741  1.00  0.00     0.003 C 
HETATM   31  C   UNL     1      10.378  29.869  56.570  1.00  0.00     0.028 C 
HETATM   32  C   UNL     1       9.567  28.643  56.968  1.00  0.00     0.237 C 
ENDBRANCH  25  26
ENDBRANCH   4  25
TORSDOF 7
ENDMDL
MODEL 2
REMARK VINA RESULT:      -8.9      3.996      8.282
REMARK  7 active torsions:
REMARK  status: ('A' for Active; 'I' for Inactive)
REMARK    1  A    between atoms: O_2  and  C_3 
REMARK    2  A    between atoms: C_6  and  C_7 
REMARK    3  A    between atoms: C_7  and  C_8 
REMARK    4  A    between atoms: C_8  and  C_9 
REMARK    5  A    between atoms: C_9  and  O_10 
REMARK    6  A    between atoms: N_13  and  C_14 
REMARK    7  A    between atoms: C_14  and  N_15 
ROOT
HETATM    1  C   UNL     1       5.041  26.715  53.051  1.00  0.00     0.175 C 
HETATM    2  C   UNL     1       5.065  26.976  51.504  1.00  0.00     0.265 C 
HETATM    3  O   UNL     1       5.670  26.400  50.610  1.00  0.00    -0.269 OA
HETATM    4  N   UNL     1       4.222  28.065  51.242  1.00  0.00    -0.289 N 
HETATM    5  C   UNL     1       3.999  28.778  52.429  1.00  0.00     0.049 A 
HETATM    6  C   UNL     1       4.519  28.061  53.518  1.00  0.00     0.014 A 
HETATM    7  C   UNL     1       3.410  30.020  52.593  1.00  0.00     0.032 A 
HETATM    8  C   UNL     1       3.346  30.546  53.888  1.00  0.00     0.021 A 
HETATM    9  C   UNL     1       3.862  29.829  54.979  1.00  0.00     0.011 A 
HETATM   10 BR   UNL     1       3.754  30.573  56.714  1.00  0.00    -0.051 Br
HETATM   11  C   UNL     1       4.449  28.574  54.806  1.00  0.00     0.032 A 
ENDROOT
BRANCH   1  12
HETATM   12  C   UNL     1       6.416  26.320  53.590  1.00  0.00     0.137 C 
BRANCH  12  13
HETATM   13  C   UNL     1       6.327  25.254  54.676  1.00  0.00     0.163 C 
HETATM   14  O   UNL     1       5.756  25.445  55.747  1.00  0.00    -0.292 OA
BRANCH  13  15
HETATM   15  C   UNL     1       6.939  23.912  54.428  1.00  0.00     0.010 A 
HETATM   16  C   UNL     1       7.232  23.435  53.146  1.00  0.00     0.018 A 
HETATM   17  C   UNL     1       7.807  22.165  52.977  1.00  0.00     0.037 A 
HETATM   18  C   UNL     1       8.089  21.366  54.086  1.00  0.00     0.068 A 
HETATM   19  C   UNL     1       7.790  21.840  55.362  1.00  0.00     0.037 A 
HETATM   20  C   UNL     1       7.222  23.103  55.536  1.00  0.00     0.018 A 
BRANCH  18  21
HETATM   21  O   UNL     1       8.644  20.117  54.060  1.00  0.00    -0.356 OA
HETATM   22  C   UNL     1       9.112  19.586  55.293  1.00  0.00     0.210 C 
ENDBRANCH  18  21
ENDBRANCH  13  15
ENDBRANCH  12  13
ENDBRANCH   1  12
BRANCH   1  23
HETATM   23  O   UNL     1       4.060  25.762  53.448  1.00  0.00    -0.375 OA
HETATM   24  H   UNL     1       3.604  25.402  52.671  1.00  0.00     0.211 HD
ENDBRANCH   1  23
BRANCH   4  25
HETATM   25  C   UNL     1       4.070  28.622  49.928  1.00  0.00     0.367 C 
BRANCH  25  26
HETATM   26  N   UNL     1       3.185  27.764  49.075  1.00  0.00    -0.055 N 
HETATM   27  H   UNL     1       3.003  26.935  49.678  1.00  0.00     0.281 HD
HETATM   28  C   UNL     1       1.832  28.357  48.786  1.00  0.00     0.237 C 
HETATM   29  C   UNL     1       0.953  27.293  48.143  1.00  0.00     0.028 C 
HETATM   30  C   UNL     1       1.597  26.709  46.889  1.00  0.00     0.003 C 
HETATM   31  C   UNL     1       3.008  26.203  47.173  1.00  0.00     0.028 C 
HETATM   32  C   UNL     1       3.871  27.266  47.837  1.00  0.00     0.237 C 
ENDBRANCH  25  26
ENDBRANCH   4  25
TORSDOF 7
ENDMDL
MODEL 3
REMARK VINA RESULT:      -8.7      1.948      3.066
REMARK  7 active torsions:
REMARK  status: ('A' for Active; 'I' for Inactive)
REMARK    1  A    between atoms: O_2  and  C_3 
REMARK    2  A    between atoms: C_6  and  C_7 
REMARK    3  A    between atoms: C_7  and  C_8 
REMARK    4  A    between atoms: C_8  and  C_9 
REMARK    5  A    between atoms: C_9  and  O_10 
REMARK    6  A    between atoms: N_13  and  C_14 
REMARK    7  A    between atoms: C_14  and  N_15 
ROOT
HETATM    1  C   UNL     1       5.615  25.539  52.977  1.00  0.00     0.175 C 
HETATM    2  C   UNL     1       5.424  26.528  54.181  1.00  0.00     0.265 C 
HETATM    3  O   UNL     1       5.141  27.718  54.194  1.00  0.00    -0.269 OA
HETATM    4  N   UNL     1       5.641  25.808  55.363  1.00  0.00    -0.289 N 
HETATM    5  C   UNL     1       6.337  24.626  55.069  1.00  0.00     0.049 A 
HETATM    6  C   UNL     1       6.409  24.452  53.678  1.00  0.00     0.014 A 
HETATM    7  C   UNL     1       6.934  23.735  55.944  1.00  0.00     0.032 A 
HETATM    8  C   UNL     1       7.619  22.644  55.397  1.00  0.00     0.021 A 
HETATM    9  C   UNL     1       7.690  22.466  54.006  1.00  0.00     0.011 A 
HETATM   10 BR   UNL     1       8.622  20.978  53.306  1.00  0.00    -0.051 Br
HETATM   11  C   UNL     1       7.079  23.367  53.131  1.00  0.00     0.032 A 
ENDROOT
BRANCH   1  12
HETATM   12  C   UNL     1       6.314  26.204  51.791  1.00  0.00     0.137 C 
BRANCH  12  13
HETATM   13  C   UNL     1       5.340  26.573  50.679  1.00  0.00     0.163 C 
HETATM   14  O   UNL     1       4.571  25.758  50.173  1.00  0.00    -0.292 OA
BRANCH  13  15
HETATM   15  C   UNL     1       5.297  27.986  50.190  1.00  0.00     0.010 A 
HETATM   16  C   UNL     1       5.536  29.086  51.021  1.00  0.00     0.018 A 
HETATM   17  C   UNL     1       5.481  30.389  50.503  1.00  0.00     0.037 A 
HETATM   18  C   UNL     1       5.186  30.601  49.156  1.00  0.00     0.068 A 
HETATM   19  C   UNL     1       4.941  29.505  48.331  1.00  0.00     0.037 A 
HETATM   20  C   UNL     1       4.998  28.206  48.840  1.00  0.00     0.018 A 
BRANCH  18  21
HETATM   21  O   UNL     1       5.101  31.813  48.530  1.00  0.00    -0.356 OA
HETATM   22  C   UNL     1       5.990  32.834  48.963  1.00  0.00     0.210 C 
ENDBRANCH  18  21
ENDBRANCH  13  15
ENDBRANCH  12  13
ENDBRANCH   1  12
BRANCH   1  23
HETATM   23  O   UNL     1       4.404  24.921  52.556  1.00  0.00    -0.375 OA
HETATM   24  H   UNL     1       4.509  23.957  52.523  1.00  0.00     0.211 HD
ENDBRANCH   1  23
BRANCH   4  25
HETATM   25  C   UNL     1       5.619  26.428  56.658  1.00  0.00     0.367 C 
BRANCH  25  26
HETATM   26  N   UNL     1       6.599  27.560  56.733  1.00  0.00    -0.055 N 
HETATM   27  H   UNL     1       6.745  27.815  55.735  1.00  0.00     0.281 HD
HETATM   28  C   UNL     1       6.064  28.803  57.393  1.00  0.00     0.237 C 
HETATM   29  C   UNL     1       7.050  29.943  57.174  1.00  0.00     0.028 C 
HETATM   30  C   UNL     1       8.446  29.586  57.678  1.00  0.00     0.003 C 
HETATM   31  C   UNL     1       8.935  28.272  57.079  1.00  0.00     0.028 C 
HETATM   32  C   UNL     1       7.931  27.146  57.283  1.00  0.00     0.237 C 
ENDBRANCH  25  26
ENDBRANCH   4  25
TORSDOF 7
ENDMDL
MODEL 4
REMARK VINA RESULT:      -8.4      1.795      2.659
REMARK  7 active torsions:
REMARK  status: ('A' for Active; 'I' for Inactive)
REMARK    1  A    between atoms: O_2  and  C_3 
REMARK    2  A    between atoms: C_6  and  C_7 
REMARK    3  A    between atoms: C_7  and  C_8 
REMARK    4  A    between atoms: C_8  and  C_9 
REMARK    5  A    between atoms: C_9  and  O_10 
REMARK    6  A    between atoms: N_13  and  C_14 
REMARK    7  A    between atoms: C_14  and  N_15 
ROOT
HETATM    1  C   UNL     1       6.424  25.712  54.066  1.00  0.00     0.175 C 
HETATM    2  C   UNL     1       7.016  27.037  54.665  1.00  0.00     0.265 C 
HETATM    3  O   UNL     1       7.103  28.157  54.181  1.00  0.00    -0.269 OA
HETATM    4  N   UNL     1       7.483  26.750  55.954  1.00  0.00    -0.289 N 
HETATM    5  C   UNL     1       7.645  25.364  56.095  1.00  0.00     0.049 A 
HETATM    6  C   UNL     1       7.099  24.708  54.981  1.00  0.00     0.014 A 
HETATM    7  C   UNL     1       8.272  24.667  57.113  1.00  0.00     0.032 A 
HETATM    8  C   UNL     1       8.347  23.274  57.000  1.00  0.00     0.021 A 
HETATM    9  C   UNL     1       7.799  22.615  55.887  1.00  0.00     0.011 A 
HETATM   10 BR   UNL     1       7.918  20.732  55.772  1.00  0.00    -0.051 Br
HETATM   11  C   UNL     1       7.161  23.326  54.869  1.00  0.00     0.032 A 
ENDROOT
BRANCH   1  12
HETATM   12  C   UNL     1       6.739  25.562  52.577  1.00  0.00     0.137 C 
BRANCH  12  13
HETATM   13  C   UNL     1       5.478  25.508  51.722  1.00  0.00     0.163 C 
HETATM   14  O   UNL     1       4.665  24.590  51.796  1.00  0.00    -0.292 OA
BRANCH  13  15
HETATM   15  C   UNL     1       5.201  26.624  50.766  1.00  0.00     0.010 A 
HETATM   16  C   UNL     1       5.480  27.964  51.059  1.00  0.00     0.018 A 
HETATM   17  C   UNL     1       5.197  28.967  50.119  1.00  0.00     0.037 A 
HETATM   18  C   UNL     1       4.634  28.640  48.885  1.00  0.00     0.068 A 
HETATM   19  C   UNL     1       4.352  27.306  48.597  1.00  0.00     0.037 A 
HETATM   20  C   UNL     1       4.634  26.303  49.526  1.00  0.00     0.018 A 
BRANCH  18  21
HETATM   21  O   UNL     1       4.311  29.516  47.887  1.00  0.00    -0.356 OA
HETATM   22  C   UNL     1       3.124  29.255  47.150  1.00  0.00     0.210 C 
ENDBRANCH  18  21
ENDBRANCH  13  15
ENDBRANCH  12  13
ENDBRANCH   1  12
BRANCH   1  23
HETATM   23  O   UNL     1       5.026  25.564  54.294  1.00  0.00    -0.375 OA
HETATM   24  H   UNL     1       4.553  26.369  54.029  1.00  0.00     0.211 HD
ENDBRANCH   1  23
BRANCH   4  25
HETATM   25  C   UNL     1       8.157  27.725  56.763  1.00  0.00     0.367 C 
BRANCH  25  26
HETATM   26  N   UNL     1       7.272  28.902  57.045  1.00  0.00    -0.055 N 
HETATM   27  H   UNL     1       7.231  29.394  56.129  1.00  0.00     0.281 HD
HETATM   28  C   UNL     1       5.847  28.545  57.375  1.00  0.00     0.237 C 
HETATM   29  C   UNL     1       5.008  29.816  57.382  1.00  0.00     0.028 C 
HETATM   30  C   UNL     1       5.570  30.859  58.343  1.00  0.00     0.003 C 
HETATM   31  C   UNL     1       7.043  31.138  58.062  1.00  0.00     0.028 C 
HETATM   32  C   UNL     1       7.869  29.859  58.034  1.00  0.00     0.237 C 
ENDBRANCH  25  26
ENDBRANCH   4  25
TORSDOF 7
ENDMDL
MODEL 5
REMARK VINA RESULT:      -8.2      3.465      7.310
REMARK  7 active torsions:
REMARK  status: ('A' for Active; 'I' for Inactive)
REMARK    1  A    between atoms: O_2  and  C_3 
REMARK    2  A    between atoms: C_6  and  C_7 
REMARK    3  A    between atoms: C_7  and  C_8 
REMARK    4  A    between atoms: C_8  and  C_9 
REMARK    5  A    between atoms: C_9  and  O_10 
REMARK    6  A    between atoms: N_13  and  C_14 
REMARK    7  A    between atoms: C_14  and  N_15 
ROOT
HETATM    1  C   UNL     1       5.552  27.124  55.263  1.00  0.00     0.175 C 
HETATM    2  C   UNL     1       4.874  27.152  53.848  1.00  0.00     0.265 C 
HETATM    3  O   UNL     1       5.003  26.401  52.891  1.00  0.00    -0.269 OA
HETATM    4  N   UNL     1       4.013  28.257  53.809  1.00  0.00    -0.289 N 
HETATM    5  C   UNL     1       4.358  29.153  54.832  1.00  0.00     0.049 A 
HETATM    6  C   UNL     1       5.310  28.563  55.679  1.00  0.00     0.014 A 
HETATM    7  C   UNL     1       3.918  30.451  55.028  1.00  0.00     0.032 A 
HETATM    8  C   UNL     1       4.452  31.165  56.106  1.00  0.00     0.021 A 
HETATM    9  C   UNL     1       5.402  30.575  56.956  1.00  0.00     0.011 A 
HETATM   10 BR   UNL     1       6.098  31.573  58.403  1.00  0.00    -0.051 Br
HETATM   11  C   UNL     1       5.835  29.263  56.755  1.00  0.00     0.032 A 
ENDROOT
BRANCH   1  12
HETATM   12  C   UNL     1       7.018  26.698  55.190  1.00  0.00     0.137 C 
BRANCH  12  13
HETATM   13  C   UNL     1       7.370  25.652  56.242  1.00  0.00     0.163 C 
HETATM   14  O   UNL     1       7.390  25.902  57.445  1.00  0.00    -0.292 OA
BRANCH  13  15
HETATM   15  C   UNL     1       7.685  24.258  55.803  1.00  0.00     0.010 A 
HETATM   16  C   UNL     1       8.169  23.276  56.674  1.00  0.00     0.018 A 
HETATM   17  C   UNL     1       8.446  21.984  56.202  1.00  0.00     0.037 A 
HETATM   18  C   UNL     1       8.243  21.665  54.858  1.00  0.00     0.068 A 
HETATM   19  C   UNL     1       7.766  22.646  53.990  1.00  0.00     0.037 A 
HETATM   20  C   UNL     1       7.486  23.932  54.455  1.00  0.00     0.018 A 
BRANCH  18  21
HETATM   21  O   UNL     1       8.472  20.452  54.273  1.00  0.00    -0.356 OA
HETATM   22  C   UNL     1       8.317  20.369  52.862  1.00  0.00     0.210 C 
ENDBRANCH  18  21
ENDBRANCH  13  15
ENDBRANCH  12  13
ENDBRANCH   1  12
BRANCH   1  23
HETATM   23  O   UNL     1       4.851  26.325  56.210  1.00  0.00    -0.375 OA
HETATM   24  H   UNL     1       5.473  25.903  56.824  1.00  0.00     0.211 HD
ENDBRANCH   1  23
BRANCH   4  25
HETATM   25  C   UNL     1       3.286  28.625  52.628  1.00  0.00     0.367 C 
BRANCH  25  26
HETATM   26  N   UNL     1       4.214  28.914  51.487  1.00  0.00    -0.055 N 
HETATM   27  H   UNL     1       5.102  28.455  51.780  1.00  0.00     0.281 HD
HETATM   28  C   UNL     1       3.829  28.255  50.189  1.00  0.00     0.237 C 
HETATM   29  C   UNL     1       4.974  28.411  49.197  1.00  0.00     0.028 C 
HETATM   30  C   UNL     1       5.357  29.875  49.001  1.00  0.00     0.003 C 
HETATM   31  C   UNL     1       5.646  30.558  50.333  1.00  0.00     0.028 C 
HETATM   32  C   UNL     1       4.506  30.376  51.325  1.00  0.00     0.237 C 
ENDBRANCH  25  26
ENDBRANCH   4  25
TORSDOF 7
ENDMDL
MODEL 6
REMARK VINA RESULT:      -8.1      2.420      7.758
REMARK  7 active torsions:
REMARK  status: ('A' for Active; 'I' for Inactive)
REMARK    1  A    between atoms: O_2  and  C_3 
REMARK    2  A    between atoms: C_6  and  C_7 
REMARK    3  A    between atoms: C_7  and  C_8 
REMARK    4  A    between atoms: C_8  and  C_9 
REMARK    5  A    between atoms: C_9  and  O_10 
REMARK    6  A    between atoms: N_13  and  C_14 
REMARK    7  A    between atoms: C_14  and  N_15 
ROOT
HETATM    1  C   UNL     1       6.798  26.965  54.984  1.00  0.00     0.175 C 
HETATM    2  C   UNL     1       5.550  27.320  54.101  1.00  0.00     0.265 C 
HETATM    3  O   UNL     1       4.674  28.157  54.263  1.00  0.00    -0.269 OA
HETATM    4  N   UNL     1       5.562  26.469  52.987  1.00  0.00    -0.289 N 
HETATM    5  C   UNL     1       6.393  25.370  53.247  1.00  0.00     0.049 A 
HETATM    6  C   UNL     1       7.094  25.578  54.445  1.00  0.00     0.014 A 
HETATM    7  C   UNL     1       6.530  24.199  52.521  1.00  0.00     0.032 A 
HETATM    8  C   UNL     1       7.397  23.220  53.019  1.00  0.00     0.021 A 
HETATM    9  C   UNL     1       8.101  23.428  54.215  1.00  0.00     0.011 A 
HETATM   10 BR   UNL     1       9.265  22.082  54.853  1.00  0.00    -0.051 Br
HETATM   11  C   UNL     1       7.963  24.615  54.938  1.00  0.00     0.032 A 
ENDROOT
BRANCH   1  12
HETATM   12  C   UNL     1       6.484  27.037  56.479  1.00  0.00     0.137 C 
BRANCH  12  13
HETATM   13  C   UNL     1       7.570  27.764  57.264  1.00  0.00     0.163 C 
HETATM   14  O   UNL     1       8.686  27.286  57.450  1.00  0.00    -0.292 OA
BRANCH  13  15
HETATM   15  C   UNL     1       7.280  29.123  57.817  1.00  0.00     0.010 A 
HETATM   16  C   UNL     1       8.103  29.755  58.755  1.00  0.00     0.018 A 
HETATM   17  C   UNL     1       7.778  31.032  59.236  1.00  0.00     0.037 A 
HETATM   18  C   UNL     1       6.629  31.685  58.786  1.00  0.00     0.068 A 
HETATM   19  C   UNL     1       5.806  31.052  57.856  1.00  0.00     0.037 A 
HETATM   20  C   UNL     1       6.127  29.782  57.371  1.00  0.00     0.018 A 
BRANCH  18  21
HETATM   21  O   UNL     1       6.200  32.923  59.173  1.00  0.00    -0.356 OA
HETATM   22  C   UNL     1       5.538  33.020  60.428  1.00  0.00     0.210 C 
ENDBRANCH  18  21
ENDBRANCH  13  15
ENDBRANCH  12  13
ENDBRANCH   1  12
BRANCH   1  23
HETATM   23  O   UNL     1       7.946  27.751  54.681  1.00  0.00    -0.375 OA
HETATM   24  H   UNL     1       8.436  27.362  53.938  1.00  0.00     0.211 HD
ENDBRANCH   1  23
BRANCH   4  25
HETATM   25  C   UNL     1       4.515  26.472  52.005  1.00  0.00     0.367 C 
BRANCH  25  26
HETATM   26  N   UNL     1       5.004  27.005  50.692  1.00  0.00    -0.055 N 
HETATM   27  H   UNL     1       5.996  26.692  50.662  1.00  0.00     0.281 HD
HETATM   28  C   UNL     1       4.350  26.385  49.486  1.00  0.00     0.237 C 
HETATM   29  C   UNL     1       5.107  26.815  48.237  1.00  0.00     0.028 C 
HETATM   30  C   UNL     1       5.190  28.334  48.121  1.00  0.00     0.003 C 
HETATM   31  C   UNL     1       5.761  28.959  49.390  1.00  0.00     0.028 C 
HETATM   32  C   UNL     1       5.012  28.504  50.634  1.00  0.00     0.237 C 
ENDBRANCH  25  26
ENDBRANCH   4  25
TORSDOF 7
ENDMDL
MODEL 7
REMARK VINA RESULT:      -8.1      2.615      4.927
REMARK  7 active torsions:
REMARK  status: ('A' for Active; 'I' for Inactive)
REMARK    1  A    between atoms: O_2  and  C_3 
REMARK    2  A    between atoms: C_6  and  C_7 
REMARK    3  A    between atoms: C_7  and  C_8 
REMARK    4  A    between atoms: C_8  and  C_9 
REMARK    5  A    between atoms: C_9  and  O_10 
REMARK    6  A    between atoms: N_13  and  C_14 
REMARK    7  A    between atoms: C_14  and  N_15 
ROOT
HETATM    1  C   UNL     1       5.862  27.107  54.028  1.00  0.00     0.175 C 
HETATM    2  C   UNL     1       5.897  25.565  54.318  1.00  0.00     0.265 C 
HETATM    3  O   UNL     1       5.364  24.633  53.730  1.00  0.00    -0.269 OA
HETATM    4  N   UNL     1       6.694  25.362  55.453  1.00  0.00    -0.289 N 
HETATM    5  C   UNL     1       6.826  26.571  56.152  1.00  0.00     0.049 A 
HETATM    6  C   UNL     1       6.293  27.621  55.389  1.00  0.00     0.014 A 
HETATM    7  C   UNL     1       7.343  26.784  57.419  1.00  0.00     0.032 A 
HETATM    8  C   UNL     1       7.320  28.090  57.921  1.00  0.00     0.021 A 
HETATM    9  C   UNL     1       6.790  29.142  57.158  1.00  0.00     0.011 A 
HETATM   10 BR   UNL     1       6.779  30.893  57.872  1.00  0.00    -0.051 Br
HETATM   11  C   UNL     1       6.277  28.920  55.879  1.00  0.00     0.032 A 
ENDROOT
BRANCH   1  12
HETATM   12  C   UNL     1       4.485  27.572  53.554  1.00  0.00     0.137 C 
BRANCH  12  13
HETATM   13  C   UNL     1       4.574  28.552  52.390  1.00  0.00     0.163 C 
HETATM   14  O   UNL     1       4.886  29.732  52.539  1.00  0.00    -0.292 OA
BRANCH  13  15
HETATM   15  C   UNL     1       4.295  28.062  51.005  1.00  0.00     0.010 A 
HETATM   16  C   UNL     1       3.549  28.795  50.074  1.00  0.00     0.018 A 
HETATM   17  C   UNL     1       3.321  28.281  48.789  1.00  0.00     0.037 A 
HETATM   18  C   UNL     1       3.832  27.034  48.426  1.00  0.00     0.068 A 
HETATM   19  C   UNL     1       4.569  26.302  49.356  1.00  0.00     0.037 A 
HETATM   20  C   UNL     1       4.802  26.810  50.635  1.00  0.00     0.018 A 
BRANCH  18  21
HETATM   21  O   UNL     1       3.681  26.422  47.213  1.00  0.00    -0.356 OA
HETATM   22  C   UNL     1       2.879  25.249  47.170  1.00  0.00     0.210 C 
ENDBRANCH  18  21
ENDBRANCH  13  15
ENDBRANCH  12  13
ENDBRANCH   1  12
BRANCH   1  23
HETATM   23  O   UNL     1       6.870  27.533  53.117  1.00  0.00    -0.375 OA
HETATM   24  H   UNL     1       6.469  27.835  52.286  1.00  0.00     0.211 HD
ENDBRANCH   1  23
BRANCH   4  25
HETATM   25  C   UNL     1       6.880  24.067  56.042  1.00  0.00     0.367 C 
BRANCH  25  26
HETATM   26  N   UNL     1       7.292  23.057  55.014  1.00  0.00    -0.055 N 
HETATM   27  H   UNL     1       6.444  22.965  54.417  1.00  0.00     0.281 HD
HETATM   28  C   UNL     1       8.387  23.520  54.090  1.00  0.00     0.237 C 
HETATM   29  C   UNL     1       8.527  22.520  52.950  1.00  0.00     0.028 C 
HETATM   30  C   UNL     1       8.777  21.106  53.465  1.00  0.00     0.003 C 
HETATM   31  C   UNL     1       7.716  20.687  54.477  1.00  0.00     0.028 C 
HETATM   32  C   UNL     1       7.568  21.704  55.600  1.00  0.00     0.237 C 
ENDBRANCH  25  26
ENDBRANCH   4  25
TORSDOF 7
ENDMDL
MODEL 8
REMARK VINA RESULT:      -7.9      4.796      9.726
REMARK  7 active torsions:
REMARK  status: ('A' for Active; 'I' for Inactive)
REMARK    1  A    between atoms: O_2  and  C_3 
REMARK    2  A    between atoms: C_6  and  C_7 
REMARK    3  A    between atoms: C_7  and  C_8 
REMARK    4  A    between atoms: C_8  and  C_9 
REMARK    5  A    between atoms: C_9  and  O_10 
REMARK    6  A    between atoms: N_13  and  C_14 
REMARK    7  A    between atoms: C_14  and  N_15 
ROOT
HETATM    1  C   UNL     1       5.421  31.496  57.987  1.00  0.00     0.175 C 
HETATM    2  C   UNL     1       5.429  30.402  56.862  1.00  0.00     0.265 C 
HETATM    3  O   UNL     1       4.508  29.915  56.220  1.00  0.00    -0.269 OA
HETATM    4  N   UNL     1       6.759  30.006  56.662  1.00  0.00    -0.289 N 
HETATM    5  C   UNL     1       7.531  30.387  57.769  1.00  0.00     0.049 A 
HETATM    6  C   UNL     1       6.772  31.211  58.616  1.00  0.00     0.014 A 
HETATM    7  C   UNL     1       8.827  30.020  58.086  1.00  0.00     0.032 A 
HETATM    8  C   UNL     1       9.366  30.499  59.285  1.00  0.00     0.021 A 
HETATM    9  C   UNL     1       8.610  31.326  60.132  1.00  0.00     0.011 A 
HETATM   10 BR   UNL     1       9.375  31.954  61.742  1.00  0.00    -0.051 Br
HETATM   11  C   UNL     1       7.305  31.697  59.801  1.00  0.00     0.032 A 
ENDROOT
BRANCH   1  12
HETATM   12  C   UNL     1       4.217  31.354  58.919  1.00  0.00     0.137 C 
BRANCH  12  13
HETATM   13  C   UNL     1       3.775  32.691  59.501  1.00  0.00     0.163 C 
HETATM   14  O   UNL     1       2.928  33.401  58.963  1.00  0.00    -0.292 OA
BRANCH  13  15
HETATM   15  C   UNL     1       4.375  33.156  60.790  1.00  0.00     0.010 A 
HETATM   16  C   UNL     1       4.916  34.436  60.960  1.00  0.00     0.018 A 
HETATM   17  C   UNL     1       5.465  34.814  62.195  1.00  0.00     0.037 A 
HETATM   18  C   UNL     1       5.479  33.918  63.265  1.00  0.00     0.068 A 
HETATM   19  C   UNL     1       4.945  32.642  63.092  1.00  0.00     0.037 A 
HETATM   20  C   UNL     1       4.395  32.261  61.867  1.00  0.00     0.018 A 
BRANCH  18  21
HETATM   21  O   UNL     1       5.982  34.159  64.512  1.00  0.00    -0.356 OA
HETATM   22  C   UNL     1       7.147  33.440  64.896  1.00  0.00     0.210 C 
ENDBRANCH  18  21
ENDBRANCH  13  15
ENDBRANCH  12  13
ENDBRANCH   1  12
BRANCH   1  23
HETATM   23  O   UNL     1       5.502  32.825  57.483  1.00  0.00    -0.375 OA
HETATM   24  H   UNL     1       4.628  33.248  57.499  1.00  0.00     0.211 HD
ENDBRANCH   1  23
BRANCH   4  25
HETATM   25  C   UNL     1       7.121  28.959  55.750  1.00  0.00     0.367 C 
BRANCH  25  26
HETATM   26  N   UNL     1       6.790  27.610  56.314  1.00  0.00    -0.055 N 
HETATM   27  H   UNL     1       6.243  27.837  57.170  1.00  0.00     0.281 HD
HETATM   28  C   UNL     1       5.870  26.784  55.455  1.00  0.00     0.237 C 
HETATM   29  C   UNL     1       5.411  25.568  56.248  1.00  0.00     0.028 C 
HETATM   30  C   UNL     1       6.592  24.752  56.765  1.00  0.00     0.003 C 
HETATM   31  C   UNL     1       7.569  25.622  57.549  1.00  0.00     0.028 C 
HETATM   32  C   UNL     1       8.003  26.846  56.756  1.00  0.00     0.237 C 
ENDBRANCH  25  26
ENDBRANCH   4  25
TORSDOF 7
ENDMDL
MODEL 9
REMARK VINA RESULT:      -7.8      1.408      2.152
REMARK  7 active torsions:
REMARK  status: ('A' for Active; 'I' for Inactive)
REMARK    1  A    between atoms: O_2  and  C_3 
REMARK    2  A    between atoms: C_6  and  C_7 
REMARK    3  A    between atoms: C_7  and  C_8 
REMARK    4  A    between atoms: C_8  and  C_9 
REMARK    5  A    between atoms: C_9  and  O_10 
REMARK    6  A    between atoms: N_13  and  C_14 
REMARK    7  A    between atoms: C_14  and  N_15 
ROOT
HETATM    1  C   UNL     1       5.948  26.367  54.143  1.00  0.00     0.175 C 
HETATM    2  C   UNL     1       5.957  27.731  54.919  1.00  0.00     0.265 C 
HETATM    3  O   UNL     1       5.642  28.856  54.553  1.00  0.00    -0.269 OA
HETATM    4  N   UNL     1       6.421  27.480  56.218  1.00  0.00    -0.289 N 
HETATM    5  C   UNL     1       7.087  26.247  56.245  1.00  0.00     0.049 A 
HETATM    6  C   UNL     1       6.898  25.578  55.025  1.00  0.00     0.014 A 
HETATM    7  C   UNL     1       7.871  25.711  57.253  1.00  0.00     0.032 A 
HETATM    8  C   UNL     1       8.475  24.470  57.019  1.00  0.00     0.021 A 
HETATM    9  C   UNL     1       8.284  23.798  55.800  1.00  0.00     0.011 A 
HETATM   10 BR   UNL     1       9.115  22.123  55.524  1.00  0.00    -0.051 Br
HETATM   11  C   UNL     1       7.487  24.343  54.792  1.00  0.00     0.032 A 
ENDROOT
BRANCH   1  12
HETATM   12  C   UNL     1       6.384  26.530  52.687  1.00  0.00     0.137 C 
BRANCH  12  13
HETATM   13  C   UNL     1       5.357  25.973  51.710  1.00  0.00     0.163 C 
HETATM   14  O   UNL     1       4.985  24.802  51.735  1.00  0.00    -0.292 OA
BRANCH  13  15
HETATM   15  C   UNL     1       4.755  26.886  50.689  1.00  0.00     0.010 A 
HETATM   16  C   UNL     1       4.623  26.537  49.340  1.00  0.00     0.018 A 
HETATM   17  C   UNL     1       4.049  27.438  48.429  1.00  0.00     0.037 A 
HETATM   18  C   UNL     1       3.608  28.690  48.859  1.00  0.00     0.068 A 
HETATM   19  C   UNL     1       3.746  29.038  50.201  1.00  0.00     0.037 A 
HETATM   20  C   UNL     1       4.313  28.145  51.112  1.00  0.00     0.018 A 
BRANCH  18  21
HETATM   21  O   UNL     1       3.036  29.655  48.078  1.00  0.00    -0.356 OA
HETATM   22  C   UNL     1       2.338  29.224  46.916  1.00  0.00     0.210 C 
ENDBRANCH  18  21
ENDBRANCH  13  15
ENDBRANCH  12  13
ENDBRANCH   1  12
BRANCH   1  23
HETATM   23  O   UNL     1       4.701  25.685  54.213  1.00  0.00    -0.375 OA
HETATM   24  H   UNL     1       4.015  26.270  54.576  1.00  0.00     0.211 HD
ENDBRANCH   1  23
BRANCH   4  25
HETATM   25  C   UNL     1       6.626  28.528  57.178  1.00  0.00     0.367 C 
BRANCH  25  26
HETATM   26  N   UNL     1       8.069  28.927  57.245  1.00  0.00    -0.055 N 
HETATM   27  H   UNL     1       8.549  28.042  57.513  1.00  0.00     0.281 HD
HETATM   28  C   UNL     1       8.668  29.325  55.923  1.00  0.00     0.237 C 
HETATM   29  C   UNL     1      10.177  29.452  56.081  1.00  0.00     0.028 C 
HETATM   30  C   UNL     1      10.549  30.430  57.191  1.00  0.00     0.003 C 
HETATM   31  C   UNL     1       9.855  30.074  58.502  1.00  0.00     0.028 C 
HETATM   32  C   UNL     1       8.350  29.926  58.328  1.00  0.00     0.237 C 
ENDBRANCH  25  26
ENDBRANCH   4  25
TORSDOF 7
ENDMDL
MODEL 10
REMARK VINA RESULT:      -7.8      2.417      7.901
REMARK  7 active torsions:
REMARK  status: ('A' for Active; 'I' for Inactive)
REMARK    1  A    between atoms: O_2  and  C_3 
REMARK    2  A    between atoms: C_6  and  C_7 
REMARK    3  A    between atoms: C_7  and  C_8 
REMARK    4  A    between atoms: C_8  and  C_9 
REMARK    5  A    between atoms: C_9  and  O_10 
REMARK    6  A    between atoms: N_13  and  C_14 
REMARK    7  A    between atoms: C_14  and  N_15 
ROOT
HETATM    1  C   UNL     1       5.746  27.651  53.915  1.00  0.00     0.175 C 
HETATM    2  C   UNL     1       4.804  27.491  52.670  1.00  0.00     0.265 C 
HETATM    3  O   UNL     1       3.811  28.124  52.339  1.00  0.00    -0.269 OA
HETATM    4  N   UNL     1       5.287  26.422  51.904  1.00  0.00    -0.289 N 
HETATM    5  C   UNL     1       6.141  25.633  52.689  1.00  0.00     0.049 A 
HETATM    6  C   UNL     1       6.391  26.277  53.911  1.00  0.00     0.014 A 
HETATM    7  C   UNL     1       6.665  24.383  52.407  1.00  0.00     0.032 A 
HETATM    8  C   UNL     1       7.460  23.774  53.384  1.00  0.00     0.021 A 
HETATM    9  C   UNL     1       7.714  24.418  54.606  1.00  0.00     0.011 A 
HETATM   10 BR   UNL     1       8.796  23.563  55.899  1.00  0.00    -0.051 Br
HETATM   11  C   UNL     1       7.187  25.682  54.879  1.00  0.00     0.032 A 
ENDROOT
BRANCH   1  12
HETATM   12  C   UNL     1       4.969  28.009  55.182  1.00  0.00     0.137 C 
BRANCH  12  13
HETATM   13  C   UNL     1       5.253  29.431  55.652  1.00  0.00     0.163 C 
HETATM   14  O   UNL     1       4.706  30.415  55.157  1.00  0.00    -0.292 OA
BRANCH  13  15
HETATM   15  C   UNL     1       6.219  29.646  56.773  1.00  0.00     0.010 A 
HETATM   16  C   UNL     1       7.160  28.686  57.162  1.00  0.00     0.018 A 
HETATM   17  C   UNL     1       8.040  28.948  58.223  1.00  0.00     0.037 A 
HETATM   18  C   UNL     1       7.985  30.165  58.902  1.00  0.00     0.068 A 
HETATM   19  C   UNL     1       7.043  31.118  58.518  1.00  0.00     0.037 A 
HETATM   20  C   UNL     1       6.167  30.865  57.461  1.00  0.00     0.018 A 
BRANCH  18  21
HETATM   21  O   UNL     1       8.780  30.542  59.948  1.00  0.00    -0.356 OA
HETATM   22  C   UNL     1       9.104  31.923  60.055  1.00  0.00     0.210 C 
ENDBRANCH  18  21
ENDBRANCH  13  15
ENDBRANCH  12  13
ENDBRANCH   1  12
BRANCH   1  23
HETATM   23  O   UNL     1       6.807  28.576  53.706  1.00  0.00    -0.375 OA
HETATM   24  H   UNL     1       6.897  29.166  54.472  1.00  0.00     0.211 HD
ENDBRANCH   1  23
BRANCH   4  25
HETATM   25  C   UNL     1       4.615  25.952  50.726  1.00  0.00     0.367 C 
BRANCH  25  26
HETATM   26  N   UNL     1       4.226  27.091  49.832  1.00  0.00    -0.055 N 
HETATM   27  H   UNL     1       3.735  27.744  50.478  1.00  0.00     0.281 HD
HETATM   28  C   UNL     1       5.388  27.871  49.278  1.00  0.00     0.237 C 
HETATM   29  C   UNL     1       4.862  29.136  48.611  1.00  0.00     0.028 C 
HETATM   30  C   UNL     1       3.825  28.820  47.538  1.00  0.00     0.003 C 
HETATM   31  C   UNL     1       2.704  27.943  48.089  1.00  0.00     0.028 C 
HETATM   32  C   UNL     1       3.242  26.694  48.772  1.00  0.00     0.237 C 
ENDBRANCH  25  26
ENDBRANCH   4  25
TORSDOF 7
ENDMDL
