MODEL 1
REMARK VINA RESULT:      -8.9      0.000      0.000
REMARK  3 active torsions:
REMARK  status: ('A' for Active; 'I' for Inactive)
REMARK    1  A    between atoms: C_3  and  N_4 
REMARK       I    between atoms: N_4  and  C_5 
REMARK    2  A    between atoms: C_5  and  C_6 
REMARK    3  A    between atoms: C_6  and  C_7 
ROOT
HETATM    1  C   UNL     1       7.345  27.213  56.614  1.00  0.00     0.286 C 
HETATM    2  N   UNL     1       6.418  27.425  55.417  1.00  0.00    -0.056 N 
HETATM    3  H   UNL     1       6.848  28.127  54.803  1.00  0.00     0.278 HD
HETATM    4  H   UNL     1       6.432  26.540  54.867  1.00  0.00     0.278 HD
HETATM    5  C   UNL     1       5.010  27.819  55.781  1.00  0.00     0.209 C 
HETATM    6  C   UNL     1       5.053  29.080  56.686  1.00  0.00     0.115 C 
HETATM    7  N   UNL     1       6.005  28.942  57.788  1.00  0.00    -0.353 N 
HETATM    8  C   UNL     1       7.221  28.318  57.672  1.00  0.00     0.249 C 
HETATM    9  O   UNL     1       8.118  28.553  58.473  1.00  0.00    -0.271 OA
HETATM   10  C   UNL     1       4.195  28.031  54.503  1.00  0.00     0.035 C 
HETATM   11  C   UNL     1       4.533  29.326  53.766  1.00  0.00     0.002 C 
HETATM   12  C   UNL     1       4.461  30.532  54.695  1.00  0.00     0.002 C 
HETATM   13  C   UNL     1       5.378  30.357  55.898  1.00  0.00     0.027 C 
HETATM   14  H   UNL     1       5.983  29.644  58.527  1.00  0.00     0.163 HD
ENDROOT
BRANCH   1  15
HETATM   15  C   UNL     1       7.085  25.874  57.315  1.00  0.00     0.146 C 
BRANCH  15  16
HETATM   16  C   UNL     1       7.855  24.749  56.670  1.00  0.00     0.224 C 
HETATM   17  N   UNL     1       7.091  24.048  55.765  1.00  0.00    -0.327 N 
HETATM   18  H   UNL     1       6.228  24.494  55.468  1.00  0.00     0.169 HD
HETATM   19  O   UNL     1       9.052  24.633  56.915  1.00  0.00    -0.273 OA
BRANCH  17  20
HETATM   20  C   UNL     1       7.448  22.924  54.983  1.00  0.00     0.040 A 
HETATM   21  C   UNL     1       7.692  22.909  53.599  1.00  0.00    -0.035 A 
HETATM   22  C   UNL     1       7.714  24.121  52.713  1.00  0.00     0.050 C 
HETATM   23  C   UNL     1       7.998  21.676  52.981  1.00  0.00     0.009 A 
HETATM   24  C   UNL     1       8.119  20.499  53.716  1.00  0.00     0.001 A 
HETATM   25  C   UNL     1       7.943  20.530  55.091  1.00  0.00     0.002 A 
HETATM   26  C   UNL     1       7.618  21.733  55.717  1.00  0.00     0.030 A 
ENDBRANCH  17  20
ENDBRANCH  15  16
ENDBRANCH   1  15
TORSDOF 3
ENDMDL
MODEL 2
REMARK VINA RESULT:      -8.7      2.641      7.338
REMARK  3 active torsions:
REMARK  status: ('A' for Active; 'I' for Inactive)
REMARK    1  A    between atoms: C_3  and  N_4 
REMARK       I    between atoms: N_4  and  C_5 
REMARK    2  A    between atoms: C_5  and  C_6 
REMARK    3  A    between atoms: C_6  and  C_7 
ROOT
HETATM    1  C   UNL     1       7.538  26.485  55.061  1.00  0.00     0.286 C 
HETATM    2  N   UNL     1       7.985  25.063  55.401  1.00  0.00    -0.056 N 
HETATM    3  H   UNL     1       8.833  24.859  54.859  1.00  0.00     0.278 HD
HETATM    4  H   UNL     1       8.296  25.076  56.395  1.00  0.00     0.278 HD
HETATM    5  C   UNL     1       6.935  24.008  55.172  1.00  0.00     0.209 C 
HETATM    6  C   UNL     1       6.431  24.101  53.706  1.00  0.00     0.115 C 
HETATM    7  N   UNL     1       6.086  25.470  53.322  1.00  0.00    -0.353 N 
HETATM    8  C   UNL     1       6.792  26.576  53.723  1.00  0.00     0.249 C 
HETATM    9  O   UNL     1       6.712  27.625  53.095  1.00  0.00    -0.271 OA
HETATM   10  C   UNL     1       7.510  22.632  55.516  1.00  0.00     0.035 C 
HETATM   11  C   UNL     1       8.494  22.100  54.476  1.00  0.00     0.002 C 
HETATM   12  C   UNL     1       7.897  22.133  53.074  1.00  0.00     0.002 C 
HETATM   13  C   UNL     1       7.445  23.538  52.700  1.00  0.00     0.027 C 
HETATM   14  H   UNL     1       5.592  25.607  52.441  1.00  0.00     0.163 HD
ENDROOT
BRANCH   1  15
HETATM   15  C   UNL     1       6.621  27.075  56.139  1.00  0.00     0.146 C 
BRANCH  15  16
HETATM   16  C   UNL     1       7.411  27.742  57.238  1.00  0.00     0.224 C 
HETATM   17  N   UNL     1       7.483  29.106  57.073  1.00  0.00    -0.327 N 
HETATM   18  H   UNL     1       6.828  29.511  56.411  1.00  0.00     0.169 HD
HETATM   19  O   UNL     1       7.804  27.063  58.182  1.00  0.00    -0.273 OA
BRANCH  17  20
HETATM   20  C   UNL     1       8.145  30.065  57.875  1.00  0.00     0.040 A 
HETATM   21  C   UNL     1       9.519  30.360  57.868  1.00  0.00    -0.035 A 
HETATM   22  C   UNL     1      10.524  29.768  56.921  1.00  0.00     0.050 C 
HETATM   23  C   UNL     1      10.008  31.326  58.775  1.00  0.00     0.009 A 
HETATM   24  C   UNL     1       9.156  32.026  59.626  1.00  0.00     0.001 A 
HETATM   25  C   UNL     1       7.792  31.781  59.584  1.00  0.00     0.002 A 
HETATM   26  C   UNL     1       7.293  30.814  58.711  1.00  0.00     0.030 A 
ENDBRANCH  17  20
ENDBRANCH  15  16
ENDBRANCH   1  15
TORSDOF 3
ENDMDL
MODEL 3
REMARK VINA RESULT:      -8.7      2.173      3.455
REMARK  3 active torsions:
REMARK  status: ('A' for Active; 'I' for Inactive)
REMARK    1  A    between atoms: C_3  and  N_4 
REMARK       I    between atoms: N_4  and  C_5 
REMARK    2  A    between atoms: C_5  and  C_6 
REMARK    3  A    between atoms: C_6  and  C_7 
ROOT
HETATM    1  C   UNL     1       7.366  27.002  56.231  1.00  0.00     0.286 C 
HETATM    2  N   UNL     1       8.684  27.741  56.459  1.00  0.00    -0.056 N 
HETATM    3  H   UNL     1       8.947  27.626  57.445  1.00  0.00     0.278 HD
HETATM    4  H   UNL     1       9.414  27.225  55.923  1.00  0.00     0.278 HD
HETATM    5  C   UNL     1       8.656  29.198  56.078  1.00  0.00     0.209 C 
HETATM    6  C   UNL     1       7.487  29.896  56.823  1.00  0.00     0.115 C 
HETATM    7  N   UNL     1       6.230  29.159  56.702  1.00  0.00    -0.353 N 
HETATM    8  C   UNL     1       6.144  27.789  56.723  1.00  0.00     0.249 C 
HETATM    9  O   UNL     1       5.085  27.237  56.999  1.00  0.00    -0.271 OA
HETATM   10  C   UNL     1      10.016  29.831  56.380  1.00  0.00     0.035 C 
HETATM   11  C   UNL     1      10.267  30.065  57.869  1.00  0.00     0.002 C 
HETATM   12  C   UNL     1       9.123  30.839  58.513  1.00  0.00     0.002 C 
HETATM   13  C   UNL     1       7.792  30.126  58.310  1.00  0.00     0.027 C 
HETATM   14  H   UNL     1       5.375  29.619  57.013  1.00  0.00     0.163 HD
ENDROOT
BRANCH   1  15
HETATM   15  C   UNL     1       7.137  26.674  54.751  1.00  0.00     0.146 C 
BRANCH  15  16
HETATM   16  C   UNL     1       6.825  25.212  54.546  1.00  0.00     0.224 C 
HETATM   17  N   UNL     1       7.946  24.422  54.643  1.00  0.00    -0.327 N 
HETATM   18  H   UNL     1       8.763  24.855  55.063  1.00  0.00     0.169 HD
HETATM   19  O   UNL     1       5.652  24.868  54.425  1.00  0.00    -0.273 OA
BRANCH  17  20
HETATM   20  C   UNL     1       8.062  23.020  54.493  1.00  0.00     0.040 A 
HETATM   21  C   UNL     1       8.264  22.080  55.517  1.00  0.00    -0.035 A 
HETATM   22  C   UNL     1       8.295  22.396  56.985  1.00  0.00     0.050 C 
HETATM   23  C   UNL     1       8.397  20.718  55.168  1.00  0.00     0.009 A 
HETATM   24  C   UNL     1       8.274  20.285  53.850  1.00  0.00     0.001 A 
HETATM   25  C   UNL     1       8.007  21.207  52.849  1.00  0.00     0.002 A 
HETATM   26  C   UNL     1       7.896  22.560  53.171  1.00  0.00     0.030 A 
ENDBRANCH  17  20
ENDBRANCH  15  16
ENDBRANCH   1  15
TORSDOF 3
ENDMDL
MODEL 4
REMARK VINA RESULT:      -8.7      2.352      7.478
REMARK  3 active torsions:
REMARK  status: ('A' for Active; 'I' for Inactive)
REMARK    1  A    between atoms: C_3  and  N_4 
REMARK       I    between atoms: N_4  and  C_5 
REMARK    2  A    between atoms: C_5  and  C_6 
REMARK    3  A    between atoms: C_6  and  C_7 
ROOT
HETATM    1  C   UNL     1       8.300  24.908  55.212  1.00  0.00     0.286 C 
HETATM    2  N   UNL     1       8.573  23.519  55.786  1.00  0.00    -0.056 N 
HETATM    3  H   UNL     1       9.485  23.203  55.435  1.00  0.00     0.278 HD
HETATM    4  H   UNL     1       8.706  23.639  56.812  1.00  0.00     0.278 HD
HETATM    5  C   UNL     1       7.503  22.501  55.490  1.00  0.00     0.209 C 
HETATM    6  C   UNL     1       7.271  22.437  53.956  1.00  0.00     0.115 C 
HETATM    7  N   UNL     1       7.102  23.764  53.363  1.00  0.00    -0.353 N 
HETATM    8  C   UNL     1       7.809  24.872  53.758  1.00  0.00     0.249 C 
HETATM    9  O   UNL     1       7.919  25.837  53.011  1.00  0.00    -0.271 OA
HETATM   10  C   UNL     1       7.904  21.150  56.087  1.00  0.00     0.035 C 
HETATM   11  C   UNL     1       9.012  20.440  55.311  1.00  0.00     0.002 C 
HETATM   12  C   UNL     1       8.673  20.329  53.829  1.00  0.00     0.002 C 
HETATM   13  C   UNL     1       8.400  21.700  53.222  1.00  0.00     0.027 C 
HETATM   14  H   UNL     1       6.781  23.816  52.397  1.00  0.00     0.163 HD
ENDROOT
BRANCH   1  15
HETATM   15  C   UNL     1       7.257  25.677  56.031  1.00  0.00     0.146 C 
BRANCH  15  16
HETATM   16  C   UNL     1       7.904  26.624  57.010  1.00  0.00     0.224 C 
HETATM   17  N   UNL     1       8.237  27.826  56.429  1.00  0.00    -0.327 N 
HETATM   18  H   UNL     1       7.811  28.020  55.528  1.00  0.00     0.169 HD
HETATM   19  O   UNL     1       7.974  26.299  58.192  1.00  0.00    -0.273 OA
BRANCH  17  20
HETATM   20  C   UNL     1       8.872  28.949  57.010  1.00  0.00     0.040 A 
HETATM   21  C   UNL     1       8.260  29.957  57.773  1.00  0.00    -0.035 A 
HETATM   22  C   UNL     1       6.818  29.966  58.194  1.00  0.00     0.050 C 
HETATM   23  C   UNL     1       9.053  31.029  58.238  1.00  0.00     0.009 A 
HETATM   24  C   UNL     1      10.427  31.075  58.009  1.00  0.00     0.001 A 
HETATM   25  C   UNL     1      11.039  30.045  57.313  1.00  0.00     0.002 A 
HETATM   26  C   UNL     1      10.268  28.989  56.826  1.00  0.00     0.030 A 
ENDBRANCH  17  20
ENDBRANCH  15  16
ENDBRANCH   1  15
TORSDOF 3
ENDMDL
MODEL 5
REMARK VINA RESULT:      -8.6      4.091      5.304
REMARK  3 active torsions:
REMARK  status: ('A' for Active; 'I' for Inactive)
REMARK    1  A    between atoms: C_3  and  N_4 
REMARK       I    between atoms: N_4  and  C_5 
REMARK    2  A    between atoms: C_5  and  C_6 
REMARK    3  A    between atoms: C_6  and  C_7 
ROOT
HETATM    1  C   UNL     1       5.512  27.116  51.563  1.00  0.00     0.286 C 
HETATM    2  N   UNL     1       5.757  27.018  50.058  1.00  0.00    -0.056 N 
HETATM    3  H   UNL     1       6.267  27.859  49.763  1.00  0.00     0.278 HD
HETATM    4  H   UNL     1       6.427  26.232  49.914  1.00  0.00     0.278 HD
HETATM    5  C   UNL     1       4.510  26.830  49.234  1.00  0.00     0.209 C 
HETATM    6  C   UNL     1       3.507  27.968  49.564  1.00  0.00     0.115 C 
HETATM    7  N   UNL     1       3.324  28.149  51.004  1.00  0.00    -0.353 N 
HETATM    8  C   UNL     1       4.340  28.040  51.921  1.00  0.00     0.249 C 
HETATM    9  O   UNL     1       4.236  28.558  53.026  1.00  0.00    -0.271 OA
HETATM   10  C   UNL     1       4.883  26.778  47.750  1.00  0.00     0.035 C 
HETATM   11  C   UNL     1       5.255  28.138  47.162  1.00  0.00     0.002 C 
HETATM   12  C   UNL     1       4.179  29.181  47.443  1.00  0.00     0.002 C 
HETATM   13  C   UNL     1       3.913  29.309  48.937  1.00  0.00     0.027 C 
HETATM   14  H   UNL     1       2.566  28.754  51.316  1.00  0.00     0.163 HD
ENDROOT
BRANCH   1  15
HETATM   15  C   UNL     1       5.227  25.747  52.192  1.00  0.00     0.146 C 
BRANCH  15  16
HETATM   16  C   UNL     1       6.501  25.001  52.503  1.00  0.00     0.224 C 
HETATM   17  N   UNL     1       6.323  24.054  53.484  1.00  0.00    -0.327 N 
HETATM   18  H   UNL     1       5.362  23.807  53.698  1.00  0.00     0.169 HD
HETATM   19  O   UNL     1       7.497  25.218  51.818  1.00  0.00    -0.273 OA
BRANCH  17  20
HETATM   20  C   UNL     1       7.275  23.177  54.057  1.00  0.00     0.040 A 
HETATM   21  C   UNL     1       7.793  23.237  55.362  1.00  0.00    -0.035 A 
HETATM   22  C   UNL     1       7.344  24.199  56.425  1.00  0.00     0.050 C 
HETATM   23  C   UNL     1       8.773  22.295  55.744  1.00  0.00     0.009 A 
HETATM   24  C   UNL     1       9.189  21.282  54.882  1.00  0.00     0.001 A 
HETATM   25  C   UNL     1       8.628  21.185  53.619  1.00  0.00     0.002 A 
HETATM   26  C   UNL     1       7.675  22.121  53.215  1.00  0.00     0.030 A 
ENDBRANCH  17  20
ENDBRANCH  15  16
ENDBRANCH   1  15
TORSDOF 3
ENDMDL
MODEL 6
REMARK VINA RESULT:      -8.6      4.196      7.404
REMARK  3 active torsions:
REMARK  status: ('A' for Active; 'I' for Inactive)
REMARK    1  A    between atoms: C_3  and  N_4 
REMARK       I    between atoms: N_4  and  C_5 
REMARK    2  A    between atoms: C_5  and  C_6 
REMARK    3  A    between atoms: C_6  and  C_7 
ROOT
HETATM    1  C   UNL     1       6.148  24.795  53.302  1.00  0.00     0.286 C 
HETATM    2  N   UNL     1       6.637  23.383  52.980  1.00  0.00    -0.056 N 
HETATM    3  H   UNL     1       6.014  22.716  53.451  1.00  0.00     0.278 HD
HETATM    4  H   UNL     1       6.473  23.234  51.962  1.00  0.00     0.278 HD
HETATM    5  C   UNL     1       8.075  23.123  53.345  1.00  0.00     0.209 C 
HETATM    6  C   UNL     1       8.289  23.460  54.845  1.00  0.00     0.115 C 
HETATM    7  N   UNL     1       7.744  24.770  55.204  1.00  0.00    -0.353 N 
HETATM    8  C   UNL     1       6.572  25.273  54.697  1.00  0.00     0.249 C 
HETATM    9  O   UNL     1       5.973  26.164  55.288  1.00  0.00    -0.271 OA
HETATM   10  C   UNL     1       8.433  21.674  53.004  1.00  0.00     0.035 C 
HETATM   11  C   UNL     1       7.841  20.651  53.972  1.00  0.00     0.002 C 
HETATM   12  C   UNL     1       8.171  20.995  55.419  1.00  0.00     0.002 C 
HETATM   13  C   UNL     1       7.693  22.396  55.777  1.00  0.00     0.027 C 
HETATM   14  H   UNL     1       7.981  25.149  56.120  1.00  0.00     0.163 HD
ENDROOT
BRANCH   1  15
HETATM   15  C   UNL     1       6.657  25.827  52.288  1.00  0.00     0.146 C 
BRANCH  15  16
HETATM   16  C   UNL     1       5.520  26.482  51.542  1.00  0.00     0.224 C 
HETATM   17  N   UNL     1       5.520  26.157  50.206  1.00  0.00    -0.327 N 
HETATM   18  H   UNL     1       6.097  25.366  49.938  1.00  0.00     0.169 HD
HETATM   19  O   UNL     1       4.685  27.120  52.177  1.00  0.00    -0.273 OA
BRANCH  17  20
HETATM   20  C   UNL     1       4.636  26.586  49.187  1.00  0.00     0.040 A 
HETATM   21  C   UNL     1       4.586  27.863  48.603  1.00  0.00    -0.035 A 
HETATM   22  C   UNL     1       5.543  28.983  48.893  1.00  0.00     0.050 C 
HETATM   23  C   UNL     1       3.601  28.119  47.623  1.00  0.00     0.009 A 
HETATM   24  C   UNL     1       2.727  27.126  47.188  1.00  0.00     0.001 A 
HETATM   25  C   UNL     1       2.823  25.849  47.718  1.00  0.00     0.002 A 
HETATM   26  C   UNL     1       3.773  25.582  48.704  1.00  0.00     0.030 A 
ENDBRANCH  17  20
ENDBRANCH  15  16
ENDBRANCH   1  15
TORSDOF 3
ENDMDL
MODEL 7
REMARK VINA RESULT:      -8.5      1.762      2.460
REMARK  3 active torsions:
REMARK  status: ('A' for Active; 'I' for Inactive)
REMARK    1  A    between atoms: C_3  and  N_4 
REMARK       I    between atoms: N_4  and  C_5 
REMARK    2  A    between atoms: C_5  and  C_6 
REMARK    3  A    between atoms: C_6  and  C_7 
ROOT
HETATM    1  C   UNL     1       6.588  26.877  55.450  1.00  0.00     0.286 C 
HETATM    2  N   UNL     1       6.586  26.329  54.023  1.00  0.00    -0.056 N 
HETATM    3  H   UNL     1       7.049  27.017  53.417  1.00  0.00     0.278 HD
HETATM    4  H   UNL     1       7.216  25.499  54.019  1.00  0.00     0.278 HD
HETATM    5  C   UNL     1       5.220  25.979  53.491  1.00  0.00     0.209 C 
HETATM    6  C   UNL     1       4.294  27.218  53.616  1.00  0.00     0.115 C 
HETATM    7  N   UNL     1       4.348  27.823  54.947  1.00  0.00    -0.353 N 
HETATM    8  C   UNL     1       5.497  27.929  55.690  1.00  0.00     0.249 C 
HETATM    9  O   UNL     1       5.579  28.753  56.593  1.00  0.00    -0.271 OA
HETATM   10  C   UNL     1       5.348  25.474  52.052  1.00  0.00     0.035 C 
HETATM   11  C   UNL     1       5.631  26.579  51.036  1.00  0.00     0.002 C 
HETATM   12  C   UNL     1       4.625  27.718  51.154  1.00  0.00     0.002 C 
HETATM   13  C   UNL     1       4.604  28.292  52.564  1.00  0.00     0.027 C 
HETATM   14  H   UNL     1       3.655  28.534  55.176  1.00  0.00     0.163 HD
ENDROOT
BRANCH   1  15
HETATM   15  C   UNL     1       6.397  25.770  56.493  1.00  0.00     0.146 C 
BRANCH  15  16
HETATM   16  C   UNL     1       7.417  24.670  56.332  1.00  0.00     0.224 C 
HETATM   17  N   UNL     1       6.954  23.642  55.544  1.00  0.00    -0.327 N 
HETATM   18  H   UNL     1       6.126  23.841  54.991  1.00  0.00     0.169 HD
HETATM   19  O   UNL     1       8.541  24.831  56.801  1.00  0.00    -0.273 OA
BRANCH  17  20
HETATM   20  C   UNL     1       7.603  22.438  55.182  1.00  0.00     0.040 A 
HETATM   21  C   UNL     1       8.029  22.068  53.895  1.00  0.00    -0.035 A 
HETATM   22  C   UNL     1       7.958  22.945  52.678  1.00  0.00     0.050 C 
HETATM   23  C   UNL     1       8.625  20.800  53.719  1.00  0.00     0.009 A 
HETATM   24  C   UNL     1       8.849  19.942  54.793  1.00  0.00     0.001 A 
HETATM   25  C   UNL     1       8.488  20.337  56.072  1.00  0.00     0.002 A 
HETATM   26  C   UNL     1       7.877  21.576  56.263  1.00  0.00     0.030 A 
ENDBRANCH  17  20
ENDBRANCH  15  16
ENDBRANCH   1  15
TORSDOF 3
ENDMDL
MODEL 8
REMARK VINA RESULT:      -8.2      2.205      3.455
REMARK  3 active torsions:
REMARK  status: ('A' for Active; 'I' for Inactive)
REMARK    1  A    between atoms: C_3  and  N_4 
REMARK       I    between atoms: N_4  and  C_5 
REMARK    2  A    between atoms: C_5  and  C_6 
REMARK    3  A    between atoms: C_6  and  C_7 
ROOT
HETATM    1  C   UNL     1       5.347  26.473  54.155  1.00  0.00     0.286 C 
HETATM    2  N   UNL     1       6.342  26.522  55.313  1.00  0.00    -0.056 N 
HETATM    3  H   UNL     1       5.810  26.504  56.191  1.00  0.00     0.278 HD
HETATM    4  H   UNL     1       6.866  25.621  55.297  1.00  0.00     0.278 HD
HETATM    5  C   UNL     1       7.282  27.699  55.279  1.00  0.00     0.209 C 
HETATM    6  C   UNL     1       6.452  29.009  55.198  1.00  0.00     0.115 C 
HETATM    7  N   UNL     1       5.425  28.955  54.158  1.00  0.00    -0.353 N 
HETATM    8  C   UNL     1       4.692  27.831  53.868  1.00  0.00     0.249 C 
HETATM    9  O   UNL     1       3.618  27.924  53.285  1.00  0.00    -0.271 OA
HETATM   10  C   UNL     1       8.202  27.653  56.501  1.00  0.00     0.035 C 
HETATM   11  C   UNL     1       7.511  28.044  57.806  1.00  0.00     0.002 C 
HETATM   12  C   UNL     1       6.798  29.385  57.681  1.00  0.00     0.002 C 
HETATM   13  C   UNL     1       5.793  29.370  56.536  1.00  0.00     0.027 C 
HETATM   14  H   UNL     1       4.944  29.820  53.918  1.00  0.00     0.163 HD
ENDROOT
BRANCH   1  15
HETATM   15  C   UNL     1       5.999  25.993  52.853  1.00  0.00     0.146 C 
BRANCH  15  16
HETATM   16  C   UNL     1       7.141  25.044  53.119  1.00  0.00     0.224 C 
HETATM   17  N   UNL     1       6.708  23.835  53.612  1.00  0.00    -0.327 N 
HETATM   18  H   UNL     1       5.717  23.640  53.512  1.00  0.00     0.169 HD
HETATM   19  O   UNL     1       8.277  25.376  52.789  1.00  0.00    -0.273 OA
BRANCH  17  20
HETATM   20  C   UNL     1       7.472  22.708  53.998  1.00  0.00     0.040 A 
HETATM   21  C   UNL     1       8.058  22.482  55.255  1.00  0.00    -0.035 A 
HETATM   22  C   UNL     1       7.890  23.367  56.457  1.00  0.00     0.050 C 
HETATM   23  C   UNL     1       8.825  21.311  55.442  1.00  0.00     0.009 A 
HETATM   24  C   UNL     1       8.960  20.357  54.436  1.00  0.00     0.001 A 
HETATM   25  C   UNL     1       8.325  20.550  53.219  1.00  0.00     0.002 A 
HETATM   26  C   UNL     1       7.583  21.712  53.007  1.00  0.00     0.030 A 
ENDBRANCH  17  20
ENDBRANCH  15  16
ENDBRANCH   1  15
TORSDOF 3
ENDMDL
MODEL 9
REMARK VINA RESULT:      -8.2      1.892      7.361
REMARK  3 active torsions:
REMARK  status: ('A' for Active; 'I' for Inactive)
REMARK    1  A    between atoms: C_3  and  N_4 
REMARK       I    between atoms: N_4  and  C_5 
REMARK    2  A    between atoms: C_5  and  C_6 
REMARK    3  A    between atoms: C_6  and  C_7 
ROOT
HETATM    1  C   UNL     1       8.038  24.353  55.855  1.00  0.00     0.286 C 
HETATM    2  N   UNL     1       8.363  22.867  55.998  1.00  0.00    -0.056 N 
HETATM    3  H   UNL     1       9.317  22.715  55.649  1.00  0.00     0.278 HD
HETATM    4  H   UNL     1       8.414  22.668  57.020  1.00  0.00     0.278 HD
HETATM    5  C   UNL     1       7.388  21.946  55.311  1.00  0.00     0.209 C 
HETATM    6  C   UNL     1       7.272  22.353  53.817  1.00  0.00     0.115 C 
HETATM    7  N   UNL     1       7.055  23.789  53.645  1.00  0.00    -0.353 N 
HETATM    8  C   UNL     1       7.655  24.749  54.422  1.00  0.00     0.249 C 
HETATM    9  O   UNL     1       7.752  25.902  54.019  1.00  0.00    -0.271 OA
HETATM   10  C   UNL     1       7.837  20.495  55.499  1.00  0.00     0.035 C 
HETATM   11  C   UNL     1       9.043  20.109  54.645  1.00  0.00     0.002 C 
HETATM   12  C   UNL     1       8.819  20.450  53.176  1.00  0.00     0.002 C 
HETATM   13  C   UNL     1       8.497  21.928  52.996  1.00  0.00     0.027 C 
HETATM   14  H   UNL     1       6.801  24.125  52.717  1.00  0.00     0.163 HD
ENDROOT
BRANCH   1  15
HETATM   15  C   UNL     1       6.889  24.784  56.773  1.00  0.00     0.146 C 
BRANCH  15  16
HETATM   16  C   UNL     1       7.211  26.062  57.507  1.00  0.00     0.224 C 
HETATM   17  N   UNL     1       6.641  27.163  56.910  1.00  0.00    -0.327 N 
HETATM   18  H   UNL     1       5.909  26.974  56.232  1.00  0.00     0.169 HD
HETATM   19  O   UNL     1       7.826  25.997  58.568  1.00  0.00    -0.273 OA
BRANCH  17  20
HETATM   20  C   UNL     1       6.730  28.524  57.286  1.00  0.00     0.040 A 
HETATM   21  C   UNL     1       7.906  29.276  57.442  1.00  0.00    -0.035 A 
HETATM   22  C   UNL     1       9.292  28.785  57.136  1.00  0.00     0.050 C 
HETATM   23  C   UNL     1       7.798  30.619  57.867  1.00  0.00     0.009 A 
HETATM   24  C   UNL     1       6.560  31.223  58.075  1.00  0.00     0.001 A 
HETATM   25  C   UNL     1       5.399  30.498  57.855  1.00  0.00     0.002 A 
HETATM   26  C   UNL     1       5.486  29.163  57.458  1.00  0.00     0.030 A 
ENDBRANCH  17  20
ENDBRANCH  15  16
ENDBRANCH   1  15
TORSDOF 3
ENDMDL
MODEL 10
REMARK VINA RESULT:      -8.2      2.502      3.778
REMARK  3 active torsions:
REMARK  status: ('A' for Active; 'I' for Inactive)
REMARK    1  A    between atoms: C_3  and  N_4 
REMARK       I    between atoms: N_4  and  C_5 
REMARK    2  A    between atoms: C_5  and  C_6 
REMARK    3  A    between atoms: C_6  and  C_7 
ROOT
HETATM    1  C   UNL     1       6.459  28.545  57.403  1.00  0.00     0.286 C 
HETATM    2  N   UNL     1       7.615  28.897  58.339  1.00  0.00    -0.056 N 
HETATM    3  H   UNL     1       7.284  28.799  59.305  1.00  0.00     0.278 HD
HETATM    4  H   UNL     1       8.333  28.150  58.223  1.00  0.00     0.278 HD
HETATM    5  C   UNL     1       8.208  30.263  58.110  1.00  0.00     0.209 C 
HETATM    6  C   UNL     1       7.080  31.326  58.190  1.00  0.00     0.115 C 
HETATM    7  N   UNL     1       5.918  30.968  57.378  1.00  0.00    -0.353 N 
HETATM    8  C   UNL     1       5.445  29.686  57.247  1.00  0.00     0.249 C 
HETATM    9  O   UNL     1       4.291  29.484  56.889  1.00  0.00    -0.271 OA
HETATM   10  C   UNL     1       9.329  30.508  59.123  1.00  0.00     0.035 C 
HETATM   11  C   UNL     1       8.828  30.791  60.538  1.00  0.00     0.002 C 
HETATM   12  C   UNL     1       7.794  31.910  60.551  1.00  0.00     0.002 C 
HETATM   13  C   UNL     1       6.622  31.590  59.632  1.00  0.00     0.027 C 
HETATM   14  H   UNL     1       5.200  31.677  57.234  1.00  0.00     0.163 HD
ENDROOT
BRANCH   1  15
HETATM   15  C   UNL     1       6.947  28.167  56.000  1.00  0.00     0.146 C 
BRANCH  15  16
HETATM   16  C   UNL     1       6.563  26.753  55.638  1.00  0.00     0.224 C 
HETATM   17  N   UNL     1       7.633  26.029  55.166  1.00  0.00    -0.327 N 
HETATM   18  H   UNL     1       8.552  26.424  55.338  1.00  0.00     0.169 HD
HETATM   19  O   UNL     1       5.424  26.367  55.885  1.00  0.00    -0.273 OA
BRANCH  17  20
HETATM   20  C   UNL     1       7.668  24.689  54.711  1.00  0.00     0.040 A 
HETATM   21  C   UNL     1       7.723  24.258  53.375  1.00  0.00    -0.035 A 
HETATM   22  C   UNL     1       7.857  25.160  52.182  1.00  0.00     0.050 C 
HETATM   23  C   UNL     1       7.708  22.870  53.112  1.00  0.00     0.009 A 
HETATM   24  C   UNL     1       7.700  21.931  54.140  1.00  0.00     0.001 A 
HETATM   25  C   UNL     1       7.713  22.359  55.459  1.00  0.00     0.002 A 
HETATM   26  C   UNL     1       7.703  23.726  55.739  1.00  0.00     0.030 A 
ENDBRANCH  17  20
ENDBRANCH  15  16
ENDBRANCH   1  15
TORSDOF 3
ENDMDL
