MODEL 1
REMARK VINA RESULT:      -9.1      0.000      0.000
REMARK  5 active torsions:
REMARK  status: ('A' for Active; 'I' for Inactive)
REMARK    1  A    between atoms: C_8  and  C_9 
REMARK    2  A    between atoms: N_10  and  N_11 
REMARK       I    between atoms: N_11  and  C_12 
REMARK    3  A    between atoms: C_12  and  C_13 
REMARK    4  A    between atoms: C_13  and  N_14 
REMARK    5  A    between atoms: N_14  and  C_15 
ROOT
HETATM    1  N   UNL     1       7.191  27.716  56.411  1.00  0.00    -0.246 N 
HETATM    2  C   UNL     1       8.149  28.489  57.068  1.00  0.00     0.255 C 
HETATM    3  O   UNL     1       9.343  28.545  56.781  1.00  0.00    -0.270 OA
HETATM    4  H   UNL     1       6.316  27.528  56.892  1.00  0.00     0.192 HD
ENDROOT
BRANCH   1   5
HETATM    5  N   UNL     1       7.438  26.861  55.360  1.00  0.00    -0.184 NA
HETATM    6  C   UNL     1       7.401  25.586  55.593  1.00  0.00     0.152 C 
BRANCH   6   7
HETATM    7  C   UNL     1       7.628  24.645  54.513  1.00  0.00     0.011 A 
HETATM    8  C   UNL     1       7.729  23.221  54.628  1.00  0.00     0.004 A 
HETATM    9  C   UNL     1       7.645  22.312  55.705  1.00  0.00     0.014 A 
HETATM   10  C   UNL     1       7.961  22.712  53.349  1.00  0.00     0.043 A 
HETATM   11  C   UNL     1       7.801  20.941  55.468  1.00  0.00     0.001 A 
HETATM   12  C   UNL     1       8.035  20.467  54.180  1.00  0.00     0.002 A 
HETATM   13  C   UNL     1       8.118  21.344  53.094  1.00  0.00     0.030 A 
HETATM   14  N   UNL     1       7.992  23.785  52.487  1.00  0.00    -0.364 N 
HETATM   15  H   UNL     1       8.138  23.713  51.490  1.00  0.00     0.165 HD
HETATM   16  C   UNL     1       7.793  24.951  53.174  1.00  0.00     0.102 A 
ENDBRANCH   6   7
ENDBRANCH   1   5
BRANCH   2  17
HETATM   17  C   UNL     1       7.551  29.317  58.207  1.00  0.00     0.224 C 
BRANCH  17  18
HETATM   18  N   UNL     1       8.576  30.104  58.895  1.00  0.00    -0.381 N 
HETATM   19  H   UNL     1       9.526  29.752  58.831  1.00  0.00     0.160 HD
BRANCH  18  20
HETATM   20  C   UNL     1       8.276  30.768  60.082  1.00  0.00     0.028 A 
HETATM   21  C   UNL     1       9.075  30.528  61.209  1.00  0.00     0.030 A 
HETATM   22  C   UNL     1       8.870  31.217  62.411  1.00  0.00     0.021 A 
HETATM   23  C   UNL     1       7.870  32.181  62.490  1.00  0.00     0.011 A 
HETATM   24 BR   UNL     1       7.593  33.126  64.102  1.00  0.00    -0.051 Br
HETATM   25  C   UNL     1       7.084  32.462  61.378  1.00  0.00     0.021 A 
HETATM   26  C   UNL     1       7.296  31.765  60.182  1.00  0.00     0.030 A 
ENDBRANCH  18  20
ENDBRANCH  17  18
ENDBRANCH   2  17
TORSDOF 5
ENDMDL
MODEL 2
REMARK VINA RESULT:      -9.1      1.352      1.919
REMARK  5 active torsions:
REMARK  status: ('A' for Active; 'I' for Inactive)
REMARK    1  A    between atoms: C_8  and  C_9 
REMARK    2  A    between atoms: N_10  and  N_11 
REMARK       I    between atoms: N_11  and  C_12 
REMARK    3  A    between atoms: C_12  and  C_13 
REMARK    4  A    between atoms: C_13  and  N_14 
REMARK    5  A    between atoms: N_14  and  C_15 
ROOT
HETATM    1  N   UNL     1       7.489  27.718  57.830  1.00  0.00    -0.246 N 
HETATM    2  C   UNL     1       8.372  28.757  57.534  1.00  0.00     0.255 C 
HETATM    3  O   UNL     1       9.507  28.624  57.082  1.00  0.00    -0.270 OA
HETATM    4  H   UNL     1       6.707  27.916  58.447  1.00  0.00     0.192 HD
ENDROOT
BRANCH   1   5
HETATM    5  N   UNL     1       7.764  26.375  57.700  1.00  0.00    -0.184 NA
HETATM    6  C   UNL     1       7.668  25.847  56.519  1.00  0.00     0.152 C 
BRANCH   6   7
HETATM    7  C   UNL     1       7.972  24.443  56.325  1.00  0.00     0.011 A 
HETATM    8  C   UNL     1       7.932  23.723  55.087  1.00  0.00     0.004 A 
HETATM    9  C   UNL     1       7.628  24.074  53.754  1.00  0.00     0.014 A 
HETATM   10  C   UNL     1       8.285  22.400  55.359  1.00  0.00     0.043 A 
HETATM   11  C   UNL     1       7.681  23.098  52.752  1.00  0.00     0.001 A 
HETATM   12  C   UNL     1       8.032  21.786  53.059  1.00  0.00     0.002 A 
HETATM   13  C   UNL     1       8.343  21.411  54.370  1.00  0.00     0.030 A 
HETATM   14  N   UNL     1       8.537  22.320  56.710  1.00  0.00    -0.364 N 
HETATM   15  H   UNL     1       8.821  21.476  57.190  1.00  0.00     0.165 HD
HETATM   16  C   UNL     1       8.353  23.540  57.300  1.00  0.00     0.102 A 
ENDBRANCH   6   7
ENDBRANCH   1   5
BRANCH   2  17
HETATM   17  C   UNL     1       7.766  30.134  57.807  1.00  0.00     0.224 C 
BRANCH  17  18
HETATM   18  N   UNL     1       8.687  30.987  58.561  1.00  0.00    -0.381 N 
HETATM   19  H   UNL     1       9.676  30.814  58.414  1.00  0.00     0.160 HD
BRANCH  18  20
HETATM   20  C   UNL     1       8.353  31.427  59.839  1.00  0.00     0.028 A 
HETATM   21  C   UNL     1       9.322  31.356  60.851  1.00  0.00     0.030 A 
HETATM   22  C   UNL     1       9.072  31.848  62.138  1.00  0.00     0.021 A 
HETATM   23  C   UNL     1       7.848  32.444  62.422  1.00  0.00     0.011 A 
HETATM   24 BR   UNL     1       7.506  33.124  64.151  1.00  0.00    -0.051 Br
HETATM   25  C   UNL     1       6.882  32.557  61.429  1.00  0.00     0.021 A 
HETATM   26  C   UNL     1       7.141  32.060  60.146  1.00  0.00     0.030 A 
ENDBRANCH  18  20
ENDBRANCH  17  18
ENDBRANCH   2  17
TORSDOF 5
ENDMDL
MODEL 3
REMARK VINA RESULT:      -8.9      6.624      9.615
REMARK  5 active torsions:
REMARK  status: ('A' for Active; 'I' for Inactive)
REMARK    1  A    between atoms: C_8  and  C_9 
REMARK    2  A    between atoms: N_10  and  N_11 
REMARK       I    between atoms: N_11  and  C_12 
REMARK    3  A    between atoms: C_12  and  C_13 
REMARK    4  A    between atoms: C_13  and  N_14 
REMARK    5  A    between atoms: N_14  and  C_15 
ROOT
HETATM    1  N   UNL     1       6.136  26.388  53.032  1.00  0.00    -0.246 N 
HETATM    2  C   UNL     1       5.418  26.098  51.871  1.00  0.00     0.255 C 
HETATM    3  O   UNL     1       4.857  25.033  51.625  1.00  0.00    -0.270 OA
HETATM    4  H   UNL     1       6.781  27.173  53.012  1.00  0.00     0.192 HD
ENDROOT
BRANCH   1   5
HETATM    5  N   UNL     1       6.362  25.514  54.072  1.00  0.00    -0.184 NA
HETATM    6  C   UNL     1       7.579  25.116  54.278  1.00  0.00     0.152 C 
BRANCH   6   7
HETATM    7  C   UNL     1       7.871  24.217  55.376  1.00  0.00     0.011 A 
HETATM    8  C   UNL     1       8.000  22.792  55.302  1.00  0.00     0.004 A 
HETATM    9  C   UNL     1       7.909  21.848  54.256  1.00  0.00     0.014 A 
HETATM   10  C   UNL     1       8.271  22.327  56.591  1.00  0.00     0.043 A 
HETATM   11  C   UNL     1       8.086  20.488  54.534  1.00  0.00     0.001 A 
HETATM   12  C   UNL     1       8.353  20.058  55.831  1.00  0.00     0.002 A 
HETATM   13  C   UNL     1       8.452  20.971  56.886  1.00  0.00     0.030 A 
HETATM   14  N   UNL     1       8.315  23.428  57.415  1.00  0.00    -0.364 N 
HETATM   15  H   UNL     1       8.500  23.392  58.408  1.00  0.00     0.165 HD
HETATM   16  C   UNL     1       8.077  24.569  56.698  1.00  0.00     0.102 A 
ENDBRANCH   6   7
ENDBRANCH   1   5
BRANCH   2  17
HETATM   17  C   UNL     1       5.368  27.281  50.904  1.00  0.00     0.224 C 
BRANCH  17  18
HETATM   18  N   UNL     1       5.302  26.834  49.511  1.00  0.00    -0.381 N 
HETATM   19  H   UNL     1       6.141  26.972  48.957  1.00  0.00     0.160 HD
BRANCH  18  20
HETATM   20  C   UNL     1       4.109  26.924  48.798  1.00  0.00     0.028 A 
HETATM   21  C   UNL     1       3.291  28.048  48.989  1.00  0.00     0.030 A 
HETATM   22  C   UNL     1       2.116  28.231  48.251  1.00  0.00     0.021 A 
HETATM   23  C   UNL     1       1.755  27.296  47.287  1.00  0.00     0.011 A 
HETATM   24 BR   UNL     1       0.179  27.541  46.275  1.00  0.00    -0.051 Br
HETATM   25  C   UNL     1       2.564  26.190  47.053  1.00  0.00     0.021 A 
HETATM   26  C   UNL     1       3.736  26.014  47.799  1.00  0.00     0.030 A 
ENDBRANCH  18  20
ENDBRANCH  17  18
ENDBRANCH   2  17
TORSDOF 5
ENDMDL
MODEL 4
REMARK VINA RESULT:      -8.7      3.746     10.449
REMARK  5 active torsions:
REMARK  status: ('A' for Active; 'I' for Inactive)
REMARK    1  A    between atoms: C_8  and  C_9 
REMARK    2  A    between atoms: N_10  and  N_11 
REMARK       I    between atoms: N_11  and  C_12 
REMARK    3  A    between atoms: C_12  and  C_13 
REMARK    4  A    between atoms: C_13  and  N_14 
REMARK    5  A    between atoms: N_14  and  C_15 
ROOT
HETATM    1  N   UNL     1       8.074  28.749  57.344  1.00  0.00    -0.246 N 
HETATM    2  C   UNL     1       7.984  27.394  57.019  1.00  0.00     0.255 C 
HETATM    3  O   UNL     1       8.154  26.459  57.799  1.00  0.00    -0.270 OA
HETATM    4  H   UNL     1       8.193  29.415  56.586  1.00  0.00     0.192 HD
ENDROOT
BRANCH   1   5
HETATM    5  N   UNL     1       8.404  29.253  58.581  1.00  0.00    -0.184 NA
HETATM    6  C   UNL     1       7.811  30.338  58.973  1.00  0.00     0.152 C 
BRANCH   6   7
HETATM    7  C   UNL     1       8.105  30.895  60.279  1.00  0.00     0.011 A 
HETATM    8  C   UNL     1       7.338  31.880  60.980  1.00  0.00     0.004 A 
HETATM    9  C   UNL     1       6.147  32.585  60.698  1.00  0.00     0.014 A 
HETATM   10  C   UNL     1       7.986  32.134  62.190  1.00  0.00     0.043 A 
HETATM   11  C   UNL     1       5.656  33.512  61.624  1.00  0.00     0.001 A 
HETATM   12  C   UNL     1       6.330  33.743  62.821  1.00  0.00     0.002 A 
HETATM   13  C   UNL     1       7.508  33.057  63.128  1.00  0.00     0.030 A 
HETATM   14  N   UNL     1       9.101  31.327  62.228  1.00  0.00    -0.364 N 
HETATM   15  H   UNL     1       9.759  31.296  62.994  1.00  0.00     0.165 HD
HETATM   16  C   UNL     1       9.183  30.579  61.086  1.00  0.00     0.102 A 
ENDBRANCH   6   7
ENDBRANCH   1   5
BRANCH   2  17
HETATM   17  C   UNL     1       7.614  27.168  55.553  1.00  0.00     0.224 C 
BRANCH  17  18
HETATM   18  N   UNL     1       6.682  26.049  55.400  1.00  0.00    -0.381 N 
HETATM   19  H   UNL     1       5.975  25.956  56.121  1.00  0.00     0.160 HD
BRANCH  18  20
HETATM   20  C   UNL     1       7.109  24.848  54.839  1.00  0.00     0.028 A 
HETATM   21  C   UNL     1       7.189  23.712  55.659  1.00  0.00     0.030 A 
HETATM   22  C   UNL     1       7.542  22.460  55.141  1.00  0.00     0.021 A 
HETATM   23  C   UNL     1       7.797  22.325  53.780  1.00  0.00     0.011 A 
HETATM   24 BR   UNL     1       8.261  20.637  53.069  1.00  0.00    -0.051 Br
HETATM   25  C   UNL     1       7.693  23.427  52.940  1.00  0.00     0.021 A 
HETATM   26  C   UNL     1       7.342  24.675  53.468  1.00  0.00     0.030 A 
ENDBRANCH  18  20
ENDBRANCH  17  18
ENDBRANCH   2  17
TORSDOF 5
ENDMDL
MODEL 5
REMARK VINA RESULT:      -8.6      7.139     10.039
REMARK  5 active torsions:
REMARK  status: ('A' for Active; 'I' for Inactive)
REMARK    1  A    between atoms: C_8  and  C_9 
REMARK    2  A    between atoms: N_10  and  N_11 
REMARK       I    between atoms: N_11  and  C_12 
REMARK    3  A    between atoms: C_12  and  C_13 
REMARK    4  A    between atoms: C_13  and  N_14 
REMARK    5  A    between atoms: N_14  and  C_15 
ROOT
HETATM    1  N   UNL     1       4.941  25.601  51.196  1.00  0.00    -0.246 N 
HETATM    2  C   UNL     1       5.058  26.965  50.923  1.00  0.00     0.255 C 
HETATM    3  O   UNL     1       5.494  27.814  51.696  1.00  0.00    -0.270 OA
HETATM    4  H   UNL     1       4.322  25.048  50.611  1.00  0.00     0.192 HD
ENDROOT
BRANCH   1   5
HETATM    5  N   UNL     1       5.262  24.995  52.390  1.00  0.00    -0.184 NA
HETATM    6  C   UNL     1       6.457  24.510  52.523  1.00  0.00     0.152 C 
BRANCH   6   7
HETATM    7  C   UNL     1       6.851  23.886  53.771  1.00  0.00     0.011 A 
HETATM    8  C   UNL     1       7.472  22.604  53.926  1.00  0.00     0.004 A 
HETATM    9  C   UNL     1       7.891  21.598  53.029  1.00  0.00     0.014 A 
HETATM   10  C   UNL     1       7.665  22.394  55.293  1.00  0.00     0.043 A 
HETATM   11  C   UNL     1       8.476  20.427  53.525  1.00  0.00     0.001 A 
HETATM   12  C   UNL     1       8.650  20.248  54.895  1.00  0.00     0.002 A 
HETATM   13  C   UNL     1       8.249  21.229  55.807  1.00  0.00     0.030 A 
HETATM   14  N   UNL     1       7.187  23.508  55.944  1.00  0.00    -0.364 N 
HETATM   15  H   UNL     1       7.202  23.636  56.946  1.00  0.00     0.165 HD
HETATM   16  C   UNL     1       6.695  24.411  55.041  1.00  0.00     0.102 A 
ENDBRANCH   6   7
ENDBRANCH   1   5
BRANCH   2  17
HETATM   17  C   UNL     1       4.600  27.319  49.507  1.00  0.00     0.224 C 
BRANCH  17  18
HETATM   18  N   UNL     1       3.364  26.620  49.152  1.00  0.00    -0.381 N 
HETATM   19  H   UNL     1       3.450  25.626  48.966  1.00  0.00     0.160 HD
BRANCH  18  20
HETATM   20  C   UNL     1       2.373  27.268  48.418  1.00  0.00     0.028 A 
HETATM   21  C   UNL     1       2.096  28.613  48.701  1.00  0.00     0.030 A 
HETATM   22  C   UNL     1       1.162  29.341  47.952  1.00  0.00     0.021 A 
HETATM   23  C   UNL     1       0.508  28.731  46.887  1.00  0.00     0.011 A 
HETATM   24 BR   UNL     1      -0.743  29.706  45.862  1.00  0.00    -0.051 Br
HETATM   25  C   UNL     1       0.788  27.408  46.564  1.00  0.00     0.021 A 
HETATM   26  C   UNL     1       1.721  26.689  47.321  1.00  0.00     0.030 A 
ENDBRANCH  18  20
ENDBRANCH  17  18
ENDBRANCH   2  17
TORSDOF 5
ENDMDL
MODEL 6
REMARK VINA RESULT:      -8.5      3.949      9.902
REMARK  5 active torsions:
REMARK  status: ('A' for Active; 'I' for Inactive)
REMARK    1  A    between atoms: C_8  and  C_9 
REMARK    2  A    between atoms: N_10  and  N_11 
REMARK       I    between atoms: N_11  and  C_12 
REMARK    3  A    between atoms: C_12  and  C_13 
REMARK    4  A    between atoms: C_13  and  N_14 
REMARK    5  A    between atoms: N_14  and  C_15 
ROOT
HETATM    1  N   UNL     1       6.778  29.168  55.374  1.00  0.00    -0.246 N 
HETATM    2  C   UNL     1       5.822  28.503  54.604  1.00  0.00     0.255 C 
HETATM    3  O   UNL     1       4.608  28.688  54.654  1.00  0.00    -0.270 OA
HETATM    4  H   UNL     1       7.701  28.751  55.456  1.00  0.00     0.192 HD
ENDROOT
BRANCH   1   5
HETATM    5  N   UNL     1       6.509  30.110  56.341  1.00  0.00    -0.184 NA
HETATM    6  C   UNL     1       7.140  30.018  57.471  1.00  0.00     0.152 C 
BRANCH   6   7
HETATM    7  C   UNL     1       6.912  31.001  58.511  1.00  0.00     0.011 A 
HETATM    8  C   UNL     1       7.679  31.171  59.709  1.00  0.00     0.004 A 
HETATM    9  C   UNL     1       8.813  30.528  60.252  1.00  0.00     0.014 A 
HETATM   10  C   UNL     1       7.106  32.221  60.429  1.00  0.00     0.043 A 
HETATM   11  C   UNL     1       9.323  30.949  61.485  1.00  0.00     0.001 A 
HETATM   12  C   UNL     1       8.724  31.997  62.179  1.00  0.00     0.002 A 
HETATM   13  C   UNL     1       7.604  32.655  61.664  1.00  0.00     0.030 A 
HETATM   14  N   UNL     1       6.036  32.678  59.694  1.00  0.00    -0.364 N 
HETATM   15  H   UNL     1       5.435  33.442  59.972  1.00  0.00     0.165 HD
HETATM   16  C   UNL     1       5.909  31.953  58.540  1.00  0.00     0.102 A 
ENDBRANCH   6   7
ENDBRANCH   1   5
BRANCH   2  17
HETATM   17  C   UNL     1       6.449  27.502  53.632  1.00  0.00     0.224 C 
BRANCH  17  18
HETATM   18  N   UNL     1       7.469  26.683  54.288  1.00  0.00    -0.381 N 
HETATM   19  H   UNL     1       8.375  27.121  54.422  1.00  0.00     0.160 HD
BRANCH  18  20
HETATM   20  C   UNL     1       7.511  25.307  54.078  1.00  0.00     0.028 A 
HETATM   21  C   UNL     1       7.829  24.828  52.799  1.00  0.00     0.030 A 
HETATM   22  C   UNL     1       7.956  23.458  52.541  1.00  0.00     0.021 A 
HETATM   23  C   UNL     1       7.790  22.544  53.576  1.00  0.00     0.011 A 
HETATM   24 BR   UNL     1       7.973  20.694  53.243  1.00  0.00    -0.051 Br
HETATM   25  C   UNL     1       7.506  22.993  54.862  1.00  0.00     0.021 A 
HETATM   26  C   UNL     1       7.378  24.365  55.108  1.00  0.00     0.030 A 
ENDBRANCH  18  20
ENDBRANCH  17  18
ENDBRANCH   2  17
TORSDOF 5
ENDMDL
MODEL 7
REMARK VINA RESULT:      -8.5      6.200      8.068
REMARK  5 active torsions:
REMARK  status: ('A' for Active; 'I' for Inactive)
REMARK    1  A    between atoms: C_8  and  C_9 
REMARK    2  A    between atoms: N_10  and  N_11 
REMARK       I    between atoms: N_11  and  C_12 
REMARK    3  A    between atoms: C_12  and  C_13 
REMARK    4  A    between atoms: C_13  and  N_14 
REMARK    5  A    between atoms: N_14  and  C_15 
ROOT
HETATM    1  N   UNL     1       5.145  26.699  54.350  1.00  0.00    -0.246 N 
HETATM    2  C   UNL     1       5.584  28.024  54.352  1.00  0.00     0.255 C 
HETATM    3  O   UNL     1       6.572  28.449  54.947  1.00  0.00    -0.270 OA
HETATM    4  H   UNL     1       4.186  26.514  54.069  1.00  0.00     0.192 HD
ENDROOT
BRANCH   1   5
HETATM    5  N   UNL     1       5.728  25.663  55.045  1.00  0.00    -0.184 NA
HETATM    6  C   UNL     1       6.621  24.949  54.435  1.00  0.00     0.152 C 
BRANCH   6   7
HETATM    7  C   UNL     1       7.282  23.864  55.132  1.00  0.00     0.011 A 
HETATM    8  C   UNL     1       7.708  22.618  54.567  1.00  0.00     0.004 A 
HETATM    9  C   UNL     1       7.657  22.056  53.272  1.00  0.00     0.014 A 
HETATM   10  C   UNL     1       8.284  21.866  55.592  1.00  0.00     0.043 A 
HETATM   11  C   UNL     1       8.173  20.774  53.054  1.00  0.00     0.001 A 
HETATM   12  C   UNL     1       8.738  20.049  54.100  1.00  0.00     0.002 A 
HETATM   13  C   UNL     1       8.806  20.582  55.391  1.00  0.00     0.030 A 
HETATM   14  N   UNL     1       8.219  22.629  56.736  1.00  0.00    -0.364 N 
HETATM   15  H   UNL     1       8.569  22.337  57.639  1.00  0.00     0.165 HD
HETATM   16  C   UNL     1       7.620  23.830  56.473  1.00  0.00     0.102 A 
ENDBRANCH   6   7
ENDBRANCH   1   5
BRANCH   2  17
HETATM   17  C   UNL     1       4.705  28.932  53.491  1.00  0.00     0.224 C 
BRANCH  17  18
HETATM   18  N   UNL     1       5.286  29.140  52.163  1.00  0.00    -0.381 N 
HETATM   19  H   UNL     1       5.620  30.077  51.964  1.00  0.00     0.160 HD
BRANCH  18  20
HETATM   20  C   UNL     1       4.789  28.449  51.061  1.00  0.00     0.028 A 
HETATM   21  C   UNL     1       5.300  27.175  50.776  1.00  0.00     0.030 A 
HETATM   22  C   UNL     1       4.793  26.401  49.726  1.00  0.00     0.021 A 
HETATM   23  C   UNL     1       3.742  26.888  48.957  1.00  0.00     0.011 A 
HETATM   24 BR   UNL     1       3.041  25.847  47.545  1.00  0.00    -0.051 Br
HETATM   25  C   UNL     1       3.194  28.135  49.237  1.00  0.00     0.021 A 
HETATM   26  C   UNL     1       3.710  28.902  50.288  1.00  0.00     0.030 A 
ENDBRANCH  18  20
ENDBRANCH  17  18
ENDBRANCH   2  17
TORSDOF 5
ENDMDL
MODEL 8
REMARK VINA RESULT:      -8.4      1.974      3.171
REMARK  5 active torsions:
REMARK  status: ('A' for Active; 'I' for Inactive)
REMARK    1  A    between atoms: C_8  and  C_9 
REMARK    2  A    between atoms: N_10  and  N_11 
REMARK       I    between atoms: N_11  and  C_12 
REMARK    3  A    between atoms: C_12  and  C_13 
REMARK    4  A    between atoms: C_13  and  N_14 
REMARK    5  A    between atoms: N_14  and  C_15 
ROOT
HETATM    1  N   UNL     1       8.305  29.590  58.510  1.00  0.00    -0.246 N 
HETATM    2  C   UNL     1       7.558  30.683  58.952  1.00  0.00     0.255 C 
HETATM    3  O   UNL     1       6.495  31.065  58.468  1.00  0.00    -0.270 OA
HETATM    4  H   UNL     1       9.280  29.533  58.788  1.00  0.00     0.192 HD
ENDROOT
BRANCH   1   5
HETATM    5  N   UNL     1       7.989  28.788  57.436  1.00  0.00    -0.184 NA
HETATM    6  C   UNL     1       7.315  27.703  57.665  1.00  0.00     0.152 C 
BRANCH   6   7
HETATM    7  C   UNL     1       6.936  26.840  56.565  1.00  0.00     0.011 A 
HETATM    8  C   UNL     1       7.442  25.527  56.295  1.00  0.00     0.004 A 
HETATM    9  C   UNL     1       8.380  24.684  56.930  1.00  0.00     0.014 A 
HETATM   10  C   UNL     1       6.815  25.065  55.136  1.00  0.00     0.043 A 
HETATM   11  C   UNL     1       8.658  23.425  56.386  1.00  0.00     0.001 A 
HETATM   12  C   UNL     1       8.018  22.997  55.226  1.00  0.00     0.002 A 
HETATM   13  C   UNL     1       7.082  23.809  54.578  1.00  0.00     0.030 A 
HETATM   14  N   UNL     1       5.954  26.056  54.721  1.00  0.00    -0.364 N 
HETATM   15  H   UNL     1       5.361  25.993  53.905  1.00  0.00     0.165 HD
HETATM   16  C   UNL     1       6.017  27.126  55.571  1.00  0.00     0.102 A 
ENDBRANCH   6   7
ENDBRANCH   1   5
BRANCH   2  17
HETATM   17  C   UNL     1       8.192  31.374  60.159  1.00  0.00     0.224 C 
BRANCH  17  18
HETATM   18  N   UNL     1       7.674  30.839  61.419  1.00  0.00    -0.381 N 
HETATM   19  H   UNL     1       7.175  29.958  61.358  1.00  0.00     0.160 HD
BRANCH  18  20
HETATM   20  C   UNL     1       7.224  31.698  62.419  1.00  0.00     0.028 A 
HETATM   21  C   UNL     1       5.846  31.785  62.664  1.00  0.00     0.030 A 
HETATM   22  C   UNL     1       5.335  32.576  63.700  1.00  0.00     0.021 A 
HETATM   23  C   UNL     1       6.208  33.275  64.526  1.00  0.00     0.011 A 
HETATM   24 BR   UNL     1       5.531  34.334  65.936  1.00  0.00    -0.051 Br
HETATM   25  C   UNL     1       7.581  33.182  64.327  1.00  0.00     0.021 A 
HETATM   26  C   UNL     1       8.081  32.390  63.286  1.00  0.00     0.030 A 
ENDBRANCH  18  20
ENDBRANCH  17  18
ENDBRANCH   2  17
TORSDOF 5
ENDMDL
MODEL 9
REMARK VINA RESULT:      -8.2      3.775      9.076
REMARK  5 active torsions:
REMARK  status: ('A' for Active; 'I' for Inactive)
REMARK    1  A    between atoms: C_8  and  C_9 
REMARK    2  A    between atoms: N_10  and  N_11 
REMARK       I    between atoms: N_11  and  C_12 
REMARK    3  A    between atoms: C_12  and  C_13 
REMARK    4  A    between atoms: C_13  and  N_14 
REMARK    5  A    between atoms: N_14  and  C_15 
ROOT
HETATM    1  N   UNL     1       7.356  27.888  54.061  1.00  0.00    -0.246 N 
HETATM    2  C   UNL     1       5.984  28.072  53.883  1.00  0.00     0.255 C 
HETATM    3  O   UNL     1       5.335  29.037  54.282  1.00  0.00    -0.270 OA
HETATM    4  H   UNL     1       7.731  26.950  53.946  1.00  0.00     0.192 HD
ENDROOT
BRANCH   1   5
HETATM    5  N   UNL     1       8.194  28.738  54.746  1.00  0.00    -0.184 NA
HETATM    6  C   UNL     1       8.227  28.648  56.039  1.00  0.00     0.152 C 
BRANCH   6   7
HETATM    7  C   UNL     1       9.114  29.503  56.803  1.00  0.00     0.011 A 
HETATM    8  C   UNL     1       8.750  30.344  57.905  1.00  0.00     0.004 A 
HETATM    9  C   UNL     1       7.540  30.611  58.582  1.00  0.00     0.014 A 
HETATM   10  C   UNL     1       9.907  30.998  58.333  1.00  0.00     0.043 A 
HETATM   11  C   UNL     1       7.529  31.518  59.647  1.00  0.00     0.001 A 
HETATM   12  C   UNL     1       8.700  32.157  60.046  1.00  0.00     0.002 A 
HETATM   13  C   UNL     1       9.913  31.908  59.398  1.00  0.00     0.030 A 
HETATM   14  N   UNL     1      10.936  30.566  57.528  1.00  0.00    -0.364 N 
HETATM   15  H   UNL     1      11.896  30.871  57.614  1.00  0.00     0.165 HD
HETATM   16  C   UNL     1      10.473  29.669  56.606  1.00  0.00     0.102 A 
ENDBRANCH   6   7
ENDBRANCH   1   5
BRANCH   2  17
HETATM   17  C   UNL     1       5.339  26.934  53.092  1.00  0.00     0.224 C 
BRANCH  17  18
HETATM   18  N   UNL     1       5.067  25.774  53.943  1.00  0.00    -0.381 N 
HETATM   19  H   UNL     1       4.462  25.938  54.741  1.00  0.00     0.160 HD
BRANCH  18  20
HETATM   20  C   UNL     1       6.043  24.799  54.138  1.00  0.00     0.028 A 
HETATM   21  C   UNL     1       6.402  24.458  55.450  1.00  0.00     0.030 A 
HETATM   22  C   UNL     1       7.323  23.438  55.715  1.00  0.00     0.021 A 
HETATM   23  C   UNL     1       7.881  22.724  54.659  1.00  0.00     0.011 A 
HETATM   24 BR   UNL     1       9.115  21.336  55.005  1.00  0.00    -0.051 Br
HETATM   25  C   UNL     1       7.518  23.019  53.350  1.00  0.00     0.021 A 
HETATM   26  C   UNL     1       6.598  24.043  53.097  1.00  0.00     0.030 A 
ENDBRANCH  18  20
ENDBRANCH  17  18
ENDBRANCH   2  17
TORSDOF 5
ENDMDL
MODEL 10
REMARK VINA RESULT:      -8.0      6.747      9.835
REMARK  5 active torsions:
REMARK  status: ('A' for Active; 'I' for Inactive)
REMARK    1  A    between atoms: C_8  and  C_9 
REMARK    2  A    between atoms: N_10  and  N_11 
REMARK       I    between atoms: N_11  and  C_12 
REMARK    3  A    between atoms: C_12  and  C_13 
REMARK    4  A    between atoms: C_13  and  N_14 
REMARK    5  A    between atoms: N_14  and  C_15 
ROOT
HETATM    1  N   UNL     1       5.579  27.136  51.192  1.00  0.00    -0.246 N 
HETATM    2  C   UNL     1       5.594  26.529  52.449  1.00  0.00     0.255 C 
HETATM    3  O   UNL     1       4.673  25.880  52.940  1.00  0.00    -0.270 OA
HETATM    4  H   UNL     1       6.261  27.866  51.006  1.00  0.00     0.192 HD
ENDROOT
BRANCH   1   5
HETATM    5  N   UNL     1       4.516  27.135  50.317  1.00  0.00    -0.184 NA
HETATM    6  C   UNL     1       4.694  26.603  49.147  1.00  0.00     0.152 C 
BRANCH   6   7
HETATM    7  C   UNL     1       3.597  26.555  48.200  1.00  0.00     0.011 A 
HETATM    8  C   UNL     1       2.628  27.582  47.962  1.00  0.00     0.004 A 
HETATM    9  C   UNL     1       2.411  28.873  48.491  1.00  0.00     0.014 A 
HETATM   10  C   UNL     1       1.751  27.113  46.981  1.00  0.00     0.043 A 
HETATM   11  C   UNL     1       1.334  29.638  48.029  1.00  0.00     0.001 A 
HETATM   12  C   UNL     1       0.477  29.138  47.053  1.00  0.00     0.002 A 
HETATM   13  C   UNL     1       0.669  27.866  46.508  1.00  0.00     0.030 A 
HETATM   14  N   UNL     1       2.177  25.852  46.630  1.00  0.00    -0.364 N 
HETATM   15  H   UNL     1       1.731  25.271  45.933  1.00  0.00     0.165 HD
HETATM   16  C   UNL     1       3.284  25.506  47.355  1.00  0.00     0.102 A 
ENDBRANCH   6   7
ENDBRANCH   1   5
BRANCH   2  17
HETATM   17  C   UNL     1       6.922  26.731  53.180  1.00  0.00     0.224 C 
BRANCH  17  18
HETATM   18  N   UNL     1       7.863  25.646  52.894  1.00  0.00    -0.381 N 
HETATM   19  H   UNL     1       8.132  25.534  51.922  1.00  0.00     0.160 HD
BRANCH  18  20
HETATM   20  C   UNL     1       7.822  24.465  53.630  1.00  0.00     0.028 A 
HETATM   21  C   UNL     1       7.951  23.243  52.954  1.00  0.00     0.030 A 
HETATM   22  C   UNL     1       7.989  22.026  53.643  1.00  0.00     0.021 A 
HETATM   23  C   UNL     1       7.923  22.018  55.033  1.00  0.00     0.011 A 
HETATM   24 BR   UNL     1       7.987  20.382  55.974  1.00  0.00    -0.051 Br
HETATM   25  C   UNL     1       7.827  23.217  55.731  1.00  0.00     0.021 A 
HETATM   26  C   UNL     1       7.787  24.429  55.031  1.00  0.00     0.030 A 
ENDBRANCH  18  20
ENDBRANCH  17  18
ENDBRANCH   2  17
TORSDOF 5
ENDMDL
