MODEL 1
REMARK VINA RESULT:      -9.3      0.000      0.000
REMARK  6 active torsions:
REMARK  status: ('A' for Active; 'I' for Inactive)
REMARK    1  A    between atoms: C_2  and  O_3 
REMARK    2  A    between atoms: C_2  and  C_4 
REMARK    3  A    between atoms: C_7  and  N_8 
REMARK       I    between atoms: N_8  and  C_9 
REMARK    4  A    between atoms: C_9  and  C_10 
REMARK    5  A    between atoms: C_15  and  C_16 
REMARK    6  A    between atoms: C_22  and  C_23 
ROOT
HETATM    1  C   UNL     1       7.747  31.011  59.039  1.00  0.00     0.148 A 
HETATM    2  N   UNL     1       6.762  31.051  58.112  1.00  0.00    -0.165 NA
HETATM    3  N   UNL     1       7.072  30.034  57.283  1.00  0.00    -0.240 N 
HETATM    4  C   UNL     1       8.263  29.427  57.573  1.00  0.00     0.123 A 
HETATM    5  N   UNL     1       8.785  28.468  56.782  1.00  0.00    -0.364 N 
HETATM    6  C   UNL     1       8.040  27.885  55.666  1.00  0.00     0.143 C 
HETATM    7  C   UNL     1       7.034  28.904  55.102  1.00  0.00     0.068 C 
HETATM    8  C   UNL     1       6.221  29.659  56.170  1.00  0.00     0.221 C 
HETATM    9  C   UNL     1       8.707  30.007  58.729  1.00  0.00     0.089 A 
HETATM   10  H   UNL     1       9.600  27.935  57.081  1.00  0.00     0.162 HD
ENDROOT
BRANCH   1  11
HETATM   11  C   UNL     1       7.792  31.928  60.192  1.00  0.00     0.276 C 
HETATM   12  N   UNL     1       7.015  31.484  61.245  1.00  0.00    -0.322 N 
HETATM   13  H   UNL     1       6.522  30.617  61.049  1.00  0.00     0.169 HD
HETATM   14  O   UNL     1       8.442  32.967  60.150  1.00  0.00    -0.266 OA
BRANCH  12  15
HETATM   15  C   UNL     1       6.796  32.111  62.484  1.00  0.00     0.035 A 
HETATM   16  C   UNL     1       7.822  32.549  63.322  1.00  0.00     0.030 A 
HETATM   17  C   UNL     1       7.530  33.184  64.535  1.00  0.00     0.012 A 
HETATM   18  C   UNL     1       6.205  33.397  64.935  1.00  0.00    -0.030 A 
HETATM   19  C   UNL     1       5.178  32.957  64.089  1.00  0.00     0.012 A 
HETATM   20  C   UNL     1       5.471  32.310  62.882  1.00  0.00     0.030 A 
BRANCH  18  21
HETATM   21  C   UNL     1       5.914  34.135  66.224  1.00  0.00     0.147 C 
HETATM   22  C   UNL     1       5.021  35.357  66.054  1.00  0.00     0.044 C 
BRANCH  21  23
HETATM   23  O   UNL     1       7.142  34.547  66.820  1.00  0.00    -0.391 OA
HETATM   24  H   UNL     1       6.978  35.398  67.262  1.00  0.00     0.210 HD
ENDBRANCH  21  23
ENDBRANCH  18  21
ENDBRANCH  12  15
ENDBRANCH   1  11
BRANCH   8  25
HETATM   25  C   UNL     1       5.019  28.896  56.680  1.00  0.00     0.409 C 
HETATM   26  F   UNL     1       5.289  28.087  57.722  1.00  0.00    -0.169 F 
HETATM   27  F   UNL     1       4.023  29.729  57.065  1.00  0.00    -0.169 F 
HETATM   28  F   UNL     1       4.500  28.121  55.693  1.00  0.00    -0.169 F 
ENDBRANCH   8  25
BRANCH   6  29
HETATM   29  C   UNL     1       7.438  26.547  55.952  1.00  0.00     0.075 A 
HETATM   30  O   UNL     1       6.698  25.989  54.950  1.00  0.00    -0.325 OA
HETATM   31  C   UNL     1       6.282  24.774  55.392  1.00  0.00     0.142 A 
HETATM   32  C   UNL     1       6.746  24.539  56.665  1.00  0.00     0.027 A 
HETATM   33  C   UNL     1       7.498  25.681  57.026  1.00  0.00     0.037 A 
ENDBRANCH   6  29
TORSDOF 6
ENDMDL
MODEL 2
REMARK VINA RESULT:      -8.8      9.105     11.386
REMARK  6 active torsions:
REMARK  status: ('A' for Active; 'I' for Inactive)
REMARK    1  A    between atoms: C_2  and  O_3 
REMARK    2  A    between atoms: C_2  and  C_4 
REMARK    3  A    between atoms: C_7  and  N_8 
REMARK       I    between atoms: N_8  and  C_9 
REMARK    4  A    between atoms: C_9  and  C_10 
REMARK    5  A    between atoms: C_15  and  C_16 
REMARK    6  A    between atoms: C_22  and  C_23 
ROOT
HETATM    1  C   UNL     1       5.046  26.958  51.361  1.00  0.00     0.148 A 
HETATM    2  N   UNL     1       4.676  28.260  51.326  1.00  0.00    -0.165 NA
HETATM    3  N   UNL     1       4.264  28.432  50.054  1.00  0.00    -0.240 N 
HETATM    4  C   UNL     1       4.463  27.340  49.255  1.00  0.00     0.123 A 
HETATM    5  N   UNL     1       4.217  27.372  47.929  1.00  0.00    -0.364 N 
HETATM    6  C   UNL     1       3.557  28.508  47.285  1.00  0.00     0.143 C 
HETATM    7  C   UNL     1       3.844  29.806  48.061  1.00  0.00     0.068 C 
HETATM    8  C   UNL     1       3.697  29.684  49.589  1.00  0.00     0.221 C 
HETATM    9  C   UNL     1       4.929  26.353  50.079  1.00  0.00     0.089 A 
HETATM   10  H   UNL     1       4.242  26.518  47.375  1.00  0.00     0.162 HD
ENDROOT
BRANCH   1  11
HETATM   11  C   UNL     1       5.527  26.302  52.591  1.00  0.00     0.276 C 
HETATM   12  N   UNL     1       6.314  25.199  52.322  1.00  0.00    -0.322 N 
HETATM   13  H   UNL     1       6.414  25.003  51.330  1.00  0.00     0.169 HD
HETATM   14  O   UNL     1       5.206  26.721  53.698  1.00  0.00    -0.266 OA
BRANCH  12  15
HETATM   15  C   UNL     1       6.915  24.321  53.241  1.00  0.00     0.035 A 
HETATM   16  C   UNL     1       6.587  24.275  54.597  1.00  0.00     0.030 A 
HETATM   17  C   UNL     1       7.214  23.359  55.451  1.00  0.00     0.012 A 
HETATM   18  C   UNL     1       8.180  22.469  54.967  1.00  0.00    -0.030 A 
HETATM   19  C   UNL     1       8.506  22.519  53.605  1.00  0.00     0.012 A 
HETATM   20  C   UNL     1       7.888  23.443  52.754  1.00  0.00     0.030 A 
BRANCH  18  21
HETATM   21  C   UNL     1       8.804  21.452  55.898  1.00  0.00     0.147 C 
HETATM   22  C   UNL     1       8.485  20.006  55.544  1.00  0.00     0.044 C 
BRANCH  21  23
HETATM   23  O   UNL     1       8.367  21.702  57.232  1.00  0.00    -0.391 OA
HETATM   24  H   UNL     1       8.948  21.196  57.827  1.00  0.00     0.210 HD
ENDBRANCH  21  23
ENDBRANCH  18  21
ENDBRANCH  12  15
ENDBRANCH   1  11
BRANCH   8  25
HETATM   25  C   UNL     1       2.273  29.815  50.082  1.00  0.00     0.409 C 
HETATM   26  F   UNL     1       1.498  30.596  49.307  1.00  0.00    -0.169 F 
HETATM   27  F   UNL     1       1.663  28.610  50.177  1.00  0.00    -0.169 F 
HETATM   28  F   UNL     1       2.255  30.344  51.333  1.00  0.00    -0.169 F 
ENDBRANCH   8  25
BRANCH   6  29
HETATM   29  C   UNL     1       2.106  28.298  46.989  1.00  0.00     0.075 A 
HETATM   30  O   UNL     1       1.441  29.355  46.439  1.00  0.00    -0.325 OA
HETATM   31  C   UNL     1       0.165  28.947  46.212  1.00  0.00     0.142 A 
HETATM   32  C   UNL     1      -0.001  27.641  46.606  1.00  0.00     0.027 A 
HETATM   33  C   UNL     1       1.254  27.217  47.102  1.00  0.00     0.037 A 
ENDBRANCH   6  29
TORSDOF 6
ENDMDL
MODEL 3
REMARK VINA RESULT:      -8.8      2.018      2.795
REMARK  6 active torsions:
REMARK  status: ('A' for Active; 'I' for Inactive)
REMARK    1  A    between atoms: C_2  and  O_3 
REMARK    2  A    between atoms: C_2  and  C_4 
REMARK    3  A    between atoms: C_7  and  N_8 
REMARK       I    between atoms: N_8  and  C_9 
REMARK    4  A    between atoms: C_9  and  C_10 
REMARK    5  A    between atoms: C_15  and  C_16 
REMARK    6  A    between atoms: C_22  and  C_23 
ROOT
HETATM    1  C   UNL     1       7.719  29.512  57.276  1.00  0.00     0.148 A 
HETATM    2  N   UNL     1       6.487  28.960  57.173  1.00  0.00    -0.165 NA
HETATM    3  N   UNL     1       6.552  28.267  56.018  1.00  0.00    -0.240 N 
HETATM    4  C   UNL     1       7.720  28.447  55.329  1.00  0.00     0.123 A 
HETATM    5  N   UNL     1       7.911  27.924  54.101  1.00  0.00    -0.364 N 
HETATM    6  C   UNL     1       6.966  26.986  53.496  1.00  0.00     0.143 C 
HETATM    7  C   UNL     1       5.543  27.241  54.027  1.00  0.00     0.068 C 
HETATM    8  C   UNL     1       5.455  27.442  55.551  1.00  0.00     0.221 C 
HETATM    9  C   UNL     1       8.515  29.215  56.135  1.00  0.00     0.089 A 
HETATM   10  H   UNL     1       8.829  27.953  53.661  1.00  0.00     0.162 HD
ENDROOT
BRANCH   1  11
HETATM   11  C   UNL     1       8.128  30.332  58.431  1.00  0.00     0.276 C 
HETATM   12  N   UNL     1       7.057  30.681  59.231  1.00  0.00    -0.322 N 
HETATM   13  H   UNL     1       6.164  30.342  58.886  1.00  0.00     0.169 HD
HETATM   14  O   UNL     1       9.300  30.658  58.592  1.00  0.00    -0.266 OA
BRANCH  12  15
HETATM   15  C   UNL     1       7.067  31.475  60.391  1.00  0.00     0.035 A 
HETATM   16  C   UNL     1       7.878  31.220  61.498  1.00  0.00     0.030 A 
HETATM   17  C   UNL     1       7.849  32.067  62.613  1.00  0.00     0.012 A 
HETATM   18  C   UNL     1       7.010  33.187  62.644  1.00  0.00    -0.030 A 
HETATM   19  C   UNL     1       6.198  33.439  61.531  1.00  0.00     0.012 A 
HETATM   20  C   UNL     1       6.218  32.585  60.421  1.00  0.00     0.030 A 
BRANCH  18  21
HETATM   21  C   UNL     1       7.037  34.117  63.838  1.00  0.00     0.147 C 
HETATM   22  C   UNL     1       7.204  33.410  65.176  1.00  0.00     0.044 C 
BRANCH  21  23
HETATM   23  O   UNL     1       5.830  34.877  63.871  1.00  0.00    -0.391 OA
HETATM   24  H   UNL     1       5.928  35.544  64.572  1.00  0.00     0.210 HD
ENDBRANCH  21  23
ENDBRANCH  18  21
ENDBRANCH  12  15
ENDBRANCH   1  11
BRANCH   8  25
HETATM   25  C   UNL     1       5.416  26.151  56.339  1.00  0.00     0.409 C 
HETATM   26  F   UNL     1       5.144  25.064  55.591  1.00  0.00    -0.169 F 
HETATM   27  F   UNL     1       6.587  25.918  56.977  1.00  0.00    -0.169 F 
HETATM   28  F   UNL     1       4.467  26.220  57.308  1.00  0.00    -0.169 F 
ENDBRANCH   8  25
BRANCH   6  29
HETATM   29  C   UNL     1       7.380  25.552  53.568  1.00  0.00     0.075 A 
HETATM   30  O   UNL     1       8.105  25.184  54.664  1.00  0.00    -0.325 OA
HETATM   31  C   UNL     1       8.341  23.851  54.557  1.00  0.00     0.142 A 
HETATM   32  C   UNL     1       7.776  23.353  53.407  1.00  0.00     0.027 A 
HETATM   33  C   UNL     1       7.149  24.449  52.769  1.00  0.00     0.037 A 
ENDBRANCH   6  29
TORSDOF 6
ENDMDL
MODEL 4
REMARK VINA RESULT:      -8.7      9.201     11.438
REMARK  6 active torsions:
REMARK  status: ('A' for Active; 'I' for Inactive)
REMARK    1  A    between atoms: C_2  and  O_3 
REMARK    2  A    between atoms: C_2  and  C_4 
REMARK    3  A    between atoms: C_7  and  N_8 
REMARK       I    between atoms: N_8  and  C_9 
REMARK    4  A    between atoms: C_9  and  C_10 
REMARK    5  A    between atoms: C_15  and  C_16 
REMARK    6  A    between atoms: C_22  and  C_23 
ROOT
HETATM    1  C   UNL     1       5.537  27.401  51.723  1.00  0.00     0.148 A 
HETATM    2  N   UNL     1       4.789  26.740  50.809  1.00  0.00    -0.165 NA
HETATM    3  N   UNL     1       4.156  27.730  50.150  1.00  0.00    -0.240 N 
HETATM    4  C   UNL     1       4.376  28.974  50.675  1.00  0.00     0.123 A 
HETATM    5  N   UNL     1       3.733  30.066  50.214  1.00  0.00    -0.364 N 
HETATM    6  C   UNL     1       2.896  30.032  49.015  1.00  0.00     0.143 C 
HETATM    7  C   UNL     1       2.295  28.628  48.820  1.00  0.00     0.068 C 
HETATM    8  C   UNL     1       3.294  27.472  49.012  1.00  0.00     0.221 C 
HETATM    9  C   UNL     1       5.299  28.802  51.669  1.00  0.00     0.089 A 
HETATM   10  H   UNL     1       4.006  30.998  50.522  1.00  0.00     0.162 HD
ENDROOT
BRANCH   1  11
HETATM   11  C   UNL     1       6.450  26.710  52.653  1.00  0.00     0.276 C 
HETATM   12  N   UNL     1       6.221  25.349  52.696  1.00  0.00    -0.322 N 
HETATM   13  H   UNL     1       5.451  25.046  52.106  1.00  0.00     0.169 HD
HETATM   14  O   UNL     1       7.280  27.335  53.306  1.00  0.00    -0.266 OA
BRANCH  12  15
HETATM   15  C   UNL     1       6.875  24.386  53.486  1.00  0.00     0.035 A 
HETATM   16  C   UNL     1       6.670  24.242  54.859  1.00  0.00     0.030 A 
HETATM   17  C   UNL     1       7.343  23.247  55.579  1.00  0.00     0.012 A 
HETATM   18  C   UNL     1       8.232  22.375  54.942  1.00  0.00    -0.030 A 
HETATM   19  C   UNL     1       8.434  22.523  53.563  1.00  0.00     0.012 A 
HETATM   20  C   UNL     1       7.771  23.526  52.846  1.00  0.00     0.030 A 
BRANCH  18  21
HETATM   21  C   UNL     1       8.905  21.272  55.731  1.00  0.00     0.147 C 
HETATM   22  C   UNL     1       8.782  19.891  55.102  1.00  0.00     0.044 C 
BRANCH  21  23
HETATM   23  O   UNL     1       8.352  21.226  57.045  1.00  0.00    -0.391 OA
HETATM   24  H   UNL     1       7.518  20.728  56.990  1.00  0.00     0.210 HD
ENDBRANCH  21  23
ENDBRANCH  18  21
ENDBRANCH  12  15
ENDBRANCH   1  11
BRANCH   8  25
HETATM   25  C   UNL     1       4.136  27.178  47.790  1.00  0.00     0.409 C 
HETATM   26  F   UNL     1       5.287  27.876  47.741  1.00  0.00    -0.169 F 
HETATM   27  F   UNL     1       4.458  25.865  47.707  1.00  0.00    -0.169 F 
HETATM   28  F   UNL     1       3.442  27.466  46.660  1.00  0.00    -0.169 F 
ENDBRANCH   8  25
BRANCH   6  29
HETATM   29  C   UNL     1       3.549  30.577  47.785  1.00  0.00     0.075 A 
HETATM   30  O   UNL     1       2.818  30.518  46.634  1.00  0.00    -0.325 OA
HETATM   31  C   UNL     1       3.565  31.096  45.658  1.00  0.00     0.142 A 
HETATM   32  C   UNL     1       4.768  31.529  46.165  1.00  0.00     0.027 A 
HETATM   33  C   UNL     1       4.756  31.201  47.541  1.00  0.00     0.037 A 
ENDBRANCH   6  29
TORSDOF 6
ENDMDL
MODEL 5
REMARK VINA RESULT:      -8.2      8.942     11.207
REMARK  6 active torsions:
REMARK  status: ('A' for Active; 'I' for Inactive)
REMARK    1  A    between atoms: C_2  and  O_3 
REMARK    2  A    between atoms: C_2  and  C_4 
REMARK    3  A    between atoms: C_7  and  N_8 
REMARK       I    between atoms: N_8  and  C_9 
REMARK    4  A    between atoms: C_9  and  C_10 
REMARK    5  A    between atoms: C_15  and  C_16 
REMARK    6  A    between atoms: C_22  and  C_23 
ROOT
HETATM    1  C   UNL     1       5.077  26.492  50.682  1.00  0.00     0.148 A 
HETATM    2  N   UNL     1       5.469  27.750  50.993  1.00  0.00    -0.165 NA
HETATM    3  N   UNL     1       5.065  28.474  49.931  1.00  0.00    -0.240 N 
HETATM    4  C   UNL     1       4.542  27.722  48.915  1.00  0.00     0.123 A 
HETATM    5  N   UNL     1       4.193  28.268  47.731  1.00  0.00    -0.364 N 
HETATM    6  C   UNL     1       4.180  29.713  47.512  1.00  0.00     0.143 C 
HETATM    7  C   UNL     1       5.216  30.403  48.418  1.00  0.00     0.068 C 
HETATM    8  C   UNL     1       5.214  29.916  49.879  1.00  0.00     0.221 C 
HETATM    9  C   UNL     1       4.497  26.439  49.384  1.00  0.00     0.089 A 
HETATM   10  H   UNL     1       3.684  27.722  47.038  1.00  0.00     0.162 HD
ENDROOT
BRANCH   1  11
HETATM   11  C   UNL     1       5.272  25.350  51.593  1.00  0.00     0.276 C 
HETATM   12  N   UNL     1       6.442  25.454  52.321  1.00  0.00    -0.322 N 
HETATM   13  H   UNL     1       6.989  26.281  52.096  1.00  0.00     0.169 HD
HETATM   14  O   UNL     1       4.464  24.428  51.635  1.00  0.00    -0.266 OA
BRANCH  12  15
HETATM   15  C   UNL     1       6.963  24.544  53.257  1.00  0.00     0.035 A 
HETATM   16  C   UNL     1       7.864  23.528  52.931  1.00  0.00     0.030 A 
HETATM   17  C   UNL     1       8.357  22.669  53.921  1.00  0.00     0.012 A 
HETATM   18  C   UNL     1       7.961  22.807  55.256  1.00  0.00    -0.030 A 
HETATM   19  C   UNL     1       7.057  23.828  55.578  1.00  0.00     0.012 A 
HETATM   20  C   UNL     1       6.554  24.679  54.586  1.00  0.00     0.030 A 
BRANCH  18  21
HETATM   21  C   UNL     1       8.549  21.901  56.316  1.00  0.00     0.147 C 
HETATM   22  C   UNL     1       7.987  20.486  56.308  1.00  0.00     0.044 C 
BRANCH  21  23
HETATM   23  O   UNL     1       8.327  22.473  57.604  1.00  0.00    -0.391 OA
HETATM   24  H   UNL     1       7.392  22.739  57.644  1.00  0.00     0.210 HD
ENDBRANCH  21  23
ENDBRANCH  18  21
ENDBRANCH  12  15
ENDBRANCH   1  11
BRANCH   8  25
HETATM   25  C   UNL     1       4.160  30.571  50.744  1.00  0.00     0.409 C 
HETATM   26  F   UNL     1       2.980  29.923  50.748  1.00  0.00    -0.169 F 
HETATM   27  F   UNL     1       4.566  30.678  52.032  1.00  0.00    -0.169 F 
HETATM   28  F   UNL     1       3.923  31.838  50.318  1.00  0.00    -0.169 F 
ENDBRANCH   8  25
BRANCH   6  29
HETATM   29  C   UNL     1       2.824  30.339  47.572  1.00  0.00     0.075 A 
HETATM   30  O   UNL     1       1.793  29.520  47.933  1.00  0.00    -0.325 OA
HETATM   31  C   UNL     1       0.671  30.283  47.968  1.00  0.00     0.142 A 
HETATM   32  C   UNL     1       0.963  31.585  47.636  1.00  0.00     0.027 A 
HETATM   33  C   UNL     1       2.355  31.625  47.386  1.00  0.00     0.037 A 
ENDBRANCH   6  29
TORSDOF 6
ENDMDL
MODEL 6
REMARK VINA RESULT:      -8.1      3.806     10.002
REMARK  6 active torsions:
REMARK  status: ('A' for Active; 'I' for Inactive)
REMARK    1  A    between atoms: C_2  and  O_3 
REMARK    2  A    between atoms: C_2  and  C_4 
REMARK    3  A    between atoms: C_7  and  N_8 
REMARK       I    between atoms: N_8  and  C_9 
REMARK    4  A    between atoms: C_9  and  C_10 
REMARK    5  A    between atoms: C_15  and  C_16 
REMARK    6  A    between atoms: C_22  and  C_23 
ROOT
HETATM    1  C   UNL     1       4.623  32.727  59.882  1.00  0.00     0.148 A 
HETATM    2  N   UNL     1       4.689  34.072  60.024  1.00  0.00    -0.165 NA
HETATM    3  N   UNL     1       4.057  34.294  61.194  1.00  0.00    -0.240 N 
HETATM    4  C   UNL     1       3.494  33.173  61.739  1.00  0.00     0.123 A 
HETATM    5  N   UNL     1       2.726  33.229  62.847  1.00  0.00    -0.364 N 
HETATM    6  C   UNL     1       2.586  34.450  63.639  1.00  0.00     0.143 C 
HETATM    7  C   UNL     1       2.768  35.692  62.748  1.00  0.00     0.068 C 
HETATM    8  C   UNL     1       3.964  35.617  61.781  1.00  0.00     0.221 C 
HETATM    9  C   UNL     1       3.876  32.133  60.938  1.00  0.00     0.089 A 
HETATM   10  H   UNL     1       2.427  32.375  63.315  1.00  0.00     0.162 HD
ENDROOT
BRANCH   1  11
HETATM   11  C   UNL     1       5.239  32.016  58.747  1.00  0.00     0.276 C 
HETATM   12  N   UNL     1       4.617  30.811  58.485  1.00  0.00    -0.322 N 
HETATM   13  H   UNL     1       3.858  30.596  59.126  1.00  0.00     0.169 HD
HETATM   14  O   UNL     1       6.210  32.482  58.160  1.00  0.00    -0.266 OA
BRANCH  12  15
HETATM   15  C   UNL     1       4.951  29.861  57.504  1.00  0.00     0.035 A 
HETATM   16  C   UNL     1       6.136  29.123  57.510  1.00  0.00     0.030 A 
HETATM   17  C   UNL     1       6.393  28.179  56.509  1.00  0.00     0.012 A 
HETATM   18  C   UNL     1       5.471  27.950  55.482  1.00  0.00    -0.030 A 
HETATM   19  C   UNL     1       4.282  28.692  55.479  1.00  0.00     0.012 A 
HETATM   20  C   UNL     1       4.031  29.646  56.474  1.00  0.00     0.030 A 
BRANCH  18  21
HETATM   21  C   UNL     1       5.746  26.885  54.442  1.00  0.00     0.147 C 
HETATM   22  C   UNL     1       6.644  27.346  53.302  1.00  0.00     0.044 C 
BRANCH  21  23
HETATM   23  O   UNL     1       4.511  26.428  53.895  1.00  0.00    -0.391 OA
HETATM   24  H   UNL     1       4.542  26.591  52.936  1.00  0.00     0.210 HD
ENDBRANCH  21  23
ENDBRANCH  18  21
ENDBRANCH  12  15
ENDBRANCH   1  11
BRANCH   8  25
HETATM   25  C   UNL     1       5.288  35.991  62.410  1.00  0.00     0.409 C 
HETATM   26  F   UNL     1       6.095  36.700  61.599  1.00  0.00    -0.169 F 
HETATM   27  F   UNL     1       5.117  36.715  63.542  1.00  0.00    -0.169 F 
HETATM   28  F   UNL     1       5.966  34.874  62.778  1.00  0.00    -0.169 F 
ENDBRANCH   8  25
BRANCH   6  29
HETATM   29  C   UNL     1       3.415  34.482  64.884  1.00  0.00     0.075 A 
HETATM   30  O   UNL     1       4.360  33.505  65.008  1.00  0.00    -0.325 OA
HETATM   31  C   UNL     1       5.021  33.736  66.171  1.00  0.00     0.142 A 
HETATM   32  C   UNL     1       4.517  34.851  66.799  1.00  0.00     0.027 A 
HETATM   33  C   UNL     1       3.484  35.338  65.965  1.00  0.00     0.037 A 
ENDBRANCH   6  29
TORSDOF 6
ENDMDL
MODEL 7
REMARK VINA RESULT:      -8.0      2.808      3.707
REMARK  6 active torsions:
REMARK  status: ('A' for Active; 'I' for Inactive)
REMARK    1  A    between atoms: C_2  and  O_3 
REMARK    2  A    between atoms: C_2  and  C_4 
REMARK    3  A    between atoms: C_7  and  N_8 
REMARK       I    between atoms: N_8  and  C_9 
REMARK    4  A    between atoms: C_9  and  C_10 
REMARK    5  A    between atoms: C_15  and  C_16 
REMARK    6  A    between atoms: C_22  and  C_23 
ROOT
HETATM    1  C   UNL     1       5.784  30.206  57.387  1.00  0.00     0.148 A 
HETATM    2  N   UNL     1       6.979  29.734  56.961  1.00  0.00    -0.165 NA
HETATM    3  N   UNL     1       6.686  28.493  56.525  1.00  0.00    -0.240 N 
HETATM    4  C   UNL     1       5.392  28.115  56.759  1.00  0.00     0.123 A 
HETATM    5  N   UNL     1       4.955  26.866  56.494  1.00  0.00    -0.364 N 
HETATM    6  C   UNL     1       5.773  25.889  55.778  1.00  0.00     0.143 C 
HETATM    7  C   UNL     1       7.269  26.161  56.019  1.00  0.00     0.068 C 
HETATM    8  C   UNL     1       7.678  27.640  55.899  1.00  0.00     0.221 C 
HETATM    9  C   UNL     1       4.769  29.216  57.279  1.00  0.00     0.089 A 
HETATM   10  H   UNL     1       3.963  26.641  56.548  1.00  0.00     0.162 HD
ENDROOT
BRANCH   1  11
HETATM   11  C   UNL     1       5.611  31.573  57.912  1.00  0.00     0.276 C 
HETATM   12  N   UNL     1       5.285  31.581  59.255  1.00  0.00    -0.322 N 
HETATM   13  H   UNL     1       5.192  30.652  59.656  1.00  0.00     0.169 HD
HETATM   14  O   UNL     1       5.730  32.552  57.182  1.00  0.00    -0.266 OA
BRANCH  12  15
HETATM   15  C   UNL     1       5.019  32.692  60.074  1.00  0.00     0.035 A 
HETATM   16  C   UNL     1       3.880  33.489  59.953  1.00  0.00     0.030 A 
HETATM   17  C   UNL     1       3.671  34.570  60.818  1.00  0.00     0.012 A 
HETATM   18  C   UNL     1       4.596  34.876  61.823  1.00  0.00    -0.030 A 
HETATM   19  C   UNL     1       5.738  34.073  61.941  1.00  0.00     0.012 A 
HETATM   20  C   UNL     1       5.952  33.000  61.068  1.00  0.00     0.030 A 
BRANCH  18  21
HETATM   21  C   UNL     1       4.321  36.016  62.781  1.00  0.00     0.147 C 
HETATM   22  C   UNL     1       5.482  36.340  63.711  1.00  0.00     0.044 C 
BRANCH  21  23
HETATM   23  O   UNL     1       3.176  35.703  63.571  1.00  0.00    -0.391 OA
HETATM   24  H   UNL     1       2.566  36.459  63.508  1.00  0.00     0.210 HD
ENDBRANCH  21  23
ENDBRANCH  18  21
ENDBRANCH  12  15
ENDBRANCH   1  11
BRANCH   8  25
HETATM   25  C   UNL     1       7.922  28.097  54.478  1.00  0.00     0.409 C 
HETATM   26  F   UNL     1       6.881  28.754  53.931  1.00  0.00    -0.169 F 
HETATM   27  F   UNL     1       9.002  28.909  54.391  1.00  0.00    -0.169 F 
HETATM   28  F   UNL     1       8.189  27.031  53.681  1.00  0.00    -0.169 F 
ENDBRANCH   8  25
BRANCH   6  29
HETATM   29  C   UNL     1       5.423  25.723  54.334  1.00  0.00     0.075 A 
HETATM   30  O   UNL     1       4.799  26.780  53.736  1.00  0.00    -0.325 OA
HETATM   31  C   UNL     1       4.609  26.446  52.434  1.00  0.00     0.142 A 
HETATM   32  C   UNL     1       5.104  25.188  52.182  1.00  0.00     0.027 A 
HETATM   33  C   UNL     1       5.636  24.722  53.407  1.00  0.00     0.037 A 
ENDBRANCH   6  29
TORSDOF 6
ENDMDL
MODEL 8
REMARK VINA RESULT:      -8.0      7.235     12.284
REMARK  6 active torsions:
REMARK  status: ('A' for Active; 'I' for Inactive)
REMARK    1  A    between atoms: C_2  and  O_3 
REMARK    2  A    between atoms: C_2  and  C_4 
REMARK    3  A    between atoms: C_7  and  N_8 
REMARK       I    between atoms: N_8  and  C_9 
REMARK    4  A    between atoms: C_9  and  C_10 
REMARK    5  A    between atoms: C_15  and  C_16 
REMARK    6  A    between atoms: C_22  and  C_23 
ROOT
HETATM    1  C   UNL     1       4.262  28.384  51.099  1.00  0.00     0.148 A 
HETATM    2  N   UNL     1       4.730  27.127  50.919  1.00  0.00    -0.165 NA
HETATM    3  N   UNL     1       5.675  27.007  51.873  1.00  0.00    -0.240 N 
HETATM    4  C   UNL     1       5.908  28.160  52.569  1.00  0.00     0.123 A 
HETATM    5  N   UNL     1       6.898  28.255  53.480  1.00  0.00    -0.364 N 
HETATM    6  C   UNL     1       7.672  27.094  53.916  1.00  0.00     0.143 C 
HETATM    7  C   UNL     1       7.737  26.041  52.796  1.00  0.00     0.068 C 
HETATM    8  C   UNL     1       6.392  25.766  52.097  1.00  0.00     0.221 C 
HETATM    9  C   UNL     1       4.981  29.061  52.123  1.00  0.00     0.089 A 
HETATM   10  H   UNL     1       6.973  29.073  54.083  1.00  0.00     0.162 HD
ENDROOT
BRANCH   1  11
HETATM   11  C   UNL     1       3.161  28.945  50.295  1.00  0.00     0.276 C 
HETATM   12  N   UNL     1       2.945  28.229  49.133  1.00  0.00    -0.322 N 
HETATM   13  H   UNL     1       3.589  27.454  49.006  1.00  0.00     0.169 HD
HETATM   14  O   UNL     1       2.561  29.952  50.658  1.00  0.00    -0.266 OA
BRANCH  12  15
HETATM   15  C   UNL     1       2.005  28.489  48.119  1.00  0.00     0.035 A 
HETATM   16  C   UNL     1       1.960  29.679  47.391  1.00  0.00     0.030 A 
HETATM   17  C   UNL     1       1.007  29.861  46.381  1.00  0.00     0.012 A 
HETATM   18  C   UNL     1       0.081  28.857  46.077  1.00  0.00    -0.030 A 
HETATM   19  C   UNL     1       0.131  27.664  46.810  1.00  0.00     0.012 A 
HETATM   20  C   UNL     1       1.075  27.487  47.828  1.00  0.00     0.030 A 
BRANCH  18  21
HETATM   21  C   UNL     1      -0.903  29.055  44.944  1.00  0.00     0.147 C 
HETATM   22  C   UNL     1      -0.777  30.398  44.237  1.00  0.00     0.044 C 
BRANCH  21  23
HETATM   23  O   UNL     1      -2.232  28.926  45.445  1.00  0.00    -0.391 OA
HETATM   24  H   UNL     1      -2.171  28.865  46.414  1.00  0.00     0.210 HD
ENDBRANCH  21  23
ENDBRANCH  18  21
ENDBRANCH  12  15
ENDBRANCH   1  11
BRANCH   8  25
HETATM   25  C   UNL     1       5.505  24.788  52.835  1.00  0.00     0.409 C 
HETATM   26  F   UNL     1       4.755  25.355  53.799  1.00  0.00    -0.169 F 
HETATM   27  F   UNL     1       4.660  24.146  51.993  1.00  0.00    -0.169 F 
HETATM   28  F   UNL     1       6.256  23.822  53.423  1.00  0.00    -0.169 F 
ENDBRANCH   8  25
BRANCH   6  29
HETATM   29  C   UNL     1       7.259  26.532  55.239  1.00  0.00     0.075 A 
HETATM   30  O   UNL     1       6.217  27.155  55.864  1.00  0.00    -0.325 OA
HETATM   31  C   UNL     1       5.977  26.473  57.013  1.00  0.00     0.142 A 
HETATM   32  C   UNL     1       6.848  25.417  57.138  1.00  0.00     0.027 A 
HETATM   33  C   UNL     1       7.673  25.449  55.989  1.00  0.00     0.037 A 
ENDBRANCH   6  29
TORSDOF 6
ENDMDL
MODEL 9
REMARK VINA RESULT:      -8.0      5.000      9.895
REMARK  6 active torsions:
REMARK  status: ('A' for Active; 'I' for Inactive)
REMARK    1  A    between atoms: C_2  and  O_3 
REMARK    2  A    between atoms: C_2  and  C_4 
REMARK    3  A    between atoms: C_7  and  N_8 
REMARK       I    between atoms: N_8  and  C_9 
REMARK    4  A    between atoms: C_9  and  C_10 
REMARK    5  A    between atoms: C_15  and  C_16 
REMARK    6  A    between atoms: C_22  and  C_23 
ROOT
HETATM    1  C   UNL     1       5.600  28.116  56.047  1.00  0.00     0.148 A 
HETATM    2  N   UNL     1       5.528  28.860  57.175  1.00  0.00    -0.165 NA
HETATM    3  N   UNL     1       5.235  30.094  56.717  1.00  0.00    -0.240 N 
HETATM    4  C   UNL     1       5.232  30.191  55.353  1.00  0.00     0.123 A 
HETATM    5  N   UNL     1       5.073  31.374  54.724  1.00  0.00    -0.364 N 
HETATM    6  C   UNL     1       4.716  32.597  55.440  1.00  0.00     0.143 C 
HETATM    7  C   UNL     1       5.238  32.544  56.887  1.00  0.00     0.068 C 
HETATM    8  C   UNL     1       4.985  31.209  57.610  1.00  0.00     0.221 C 
HETATM    9  C   UNL     1       5.424  28.920  54.886  1.00  0.00     0.089 A 
HETATM   10  H   UNL     1       4.939  31.411  53.714  1.00  0.00     0.162 HD
ENDROOT
BRANCH   1  11
HETATM   11  C   UNL     1       5.857  26.664  56.067  1.00  0.00     0.276 C 
HETATM   12  N   UNL     1       6.918  26.309  55.257  1.00  0.00    -0.322 N 
HETATM   13  H   UNL     1       7.333  27.094  54.762  1.00  0.00     0.169 HD
HETATM   14  O   UNL     1       5.153  25.907  56.727  1.00  0.00    -0.266 OA
BRANCH  12  15
HETATM   15  C   UNL     1       7.423  25.021  55.010  1.00  0.00     0.035 A 
HETATM   16  C   UNL     1       8.091  24.253  55.966  1.00  0.00     0.030 A 
HETATM   17  C   UNL     1       8.551  22.968  55.654  1.00  0.00     0.012 A 
HETATM   18  C   UNL     1       8.352  22.422  54.380  1.00  0.00    -0.030 A 
HETATM   19  C   UNL     1       7.681  23.196  53.424  1.00  0.00     0.012 A 
HETATM   20  C   UNL     1       7.232  24.486  53.732  1.00  0.00     0.030 A 
BRANCH  18  21
HETATM   21  C   UNL     1       8.809  21.010  54.084  1.00  0.00     0.147 C 
HETATM   22  C   UNL     1       8.251  20.434  52.789  1.00  0.00     0.044 C 
BRANCH  21  23
HETATM   23  O   UNL     1       8.435  20.156  55.163  1.00  0.00    -0.391 OA
HETATM   24  H   UNL     1       8.140  20.726  55.894  1.00  0.00     0.210 HD
ENDBRANCH  21  23
ENDBRANCH  18  21
ENDBRANCH  12  15
ENDBRANCH   1  11
BRANCH   8  25
HETATM   25  C   UNL     1       3.600  31.086  58.206  1.00  0.00     0.409 C 
HETATM   26  F   UNL     1       3.023  32.269  58.490  1.00  0.00    -0.169 F 
HETATM   27  F   UNL     1       2.759  30.415  57.384  1.00  0.00    -0.169 F 
HETATM   28  F   UNL     1       3.646  30.372  59.360  1.00  0.00    -0.169 F 
ENDBRANCH   8  25
BRANCH   6  29
HETATM   29  C   UNL     1       3.273  32.978  55.340  1.00  0.00     0.075 A 
HETATM   30  O   UNL     1       2.918  34.164  55.915  1.00  0.00    -0.325 OA
HETATM   31  C   UNL     1       1.592  34.340  55.678  1.00  0.00     0.142 A 
HETATM   32  C   UNL     1       1.087  33.284  54.957  1.00  0.00     0.027 A 
HETATM   33  C   UNL     1       2.174  32.406  54.732  1.00  0.00     0.037 A 
ENDBRANCH   6  29
TORSDOF 6
ENDMDL
MODEL 10
REMARK VINA RESULT:      -7.6      2.940      9.636
REMARK  6 active torsions:
REMARK  status: ('A' for Active; 'I' for Inactive)
REMARK    1  A    between atoms: C_2  and  O_3 
REMARK    2  A    between atoms: C_2  and  C_4 
REMARK    3  A    between atoms: C_7  and  N_8 
REMARK       I    between atoms: N_8  and  C_9 
REMARK    4  A    between atoms: C_9  and  C_10 
REMARK    5  A    between atoms: C_15  and  C_16 
REMARK    6  A    between atoms: C_22  and  C_23 
ROOT
HETATM    1  C   UNL     1       6.977  32.081  60.164  1.00  0.00     0.148 A 
HETATM    2  N   UNL     1       5.642  32.195  60.358  1.00  0.00    -0.165 NA
HETATM    3  N   UNL     1       5.552  32.956  61.467  1.00  0.00    -0.240 N 
HETATM    4  C   UNL     1       6.759  33.231  62.049  1.00  0.00     0.123 A 
HETATM    5  N   UNL     1       6.851  33.881  63.227  1.00  0.00    -0.364 N 
HETATM    6  C   UNL     1       5.690  34.492  63.874  1.00  0.00     0.143 C 
HETATM    7  C   UNL     1       4.404  33.735  63.494  1.00  0.00     0.068 C 
HETATM    8  C   UNL     1       4.277  33.401  61.996  1.00  0.00     0.221 C 
HETATM    9  C   UNL     1       7.706  32.714  61.208  1.00  0.00     0.089 A 
HETATM   10  H   UNL     1       7.754  34.195  63.578  1.00  0.00     0.162 HD
ENDROOT
BRANCH   1  11
HETATM   11  C   UNL     1       7.554  31.359  59.016  1.00  0.00     0.276 C 
HETATM   12  N   UNL     1       6.733  30.340  58.571  1.00  0.00    -0.322 N 
HETATM   13  H   UNL     1       5.882  30.236  59.116  1.00  0.00     0.169 HD
HETATM   14  O   UNL     1       8.657  31.659  58.569  1.00  0.00    -0.266 OA
BRANCH  12  15
HETATM   15  C   UNL     1       6.971  29.432  57.524  1.00  0.00     0.035 A 
HETATM   16  C   UNL     1       7.787  28.306  57.646  1.00  0.00     0.030 A 
HETATM   17  C   UNL     1       7.963  27.434  56.565  1.00  0.00     0.012 A 
HETATM   18  C   UNL     1       7.326  27.667  55.340  1.00  0.00    -0.030 A 
HETATM   19  C   UNL     1       6.508  28.799  55.223  1.00  0.00     0.012 A 
HETATM   20  C   UNL     1       6.342  29.678  56.300  1.00  0.00     0.030 A 
BRANCH  18  21
HETATM   21  C   UNL     1       7.488  26.680  54.204  1.00  0.00     0.147 C 
HETATM   22  C   UNL     1       6.381  26.746  53.160  1.00  0.00     0.044 C 
BRANCH  21  23
HETATM   23  O   UNL     1       7.540  25.357  54.732  1.00  0.00    -0.391 OA
HETATM   24  H   UNL     1       7.409  24.743  53.988  1.00  0.00     0.210 HD
ENDBRANCH  21  23
ENDBRANCH  18  21
ENDBRANCH  12  15
ENDBRANCH   1  11
BRANCH   8  25
HETATM   25  C   UNL     1       3.743  34.539  61.155  1.00  0.00     0.409 C 
HETATM   26  F   UNL     1       4.701  35.249  60.528  1.00  0.00    -0.169 F 
HETATM   27  F   UNL     1       2.881  34.100  60.207  1.00  0.00    -0.169 F 
HETATM   28  F   UNL     1       3.041  35.406  61.929  1.00  0.00    -0.169 F 
ENDBRANCH   8  25
BRANCH   6  29
HETATM   29  C   UNL     1       5.586  35.973  63.695  1.00  0.00     0.075 A 
HETATM   30  O   UNL     1       6.268  36.506  62.640  1.00  0.00    -0.325 OA
HETATM   31  C   UNL     1       6.011  37.839  62.632  1.00  0.00     0.142 A 
HETATM   32  C   UNL     1       5.169  38.174  63.666  1.00  0.00     0.027 A 
HETATM   33  C   UNL     1       4.888  36.968  64.350  1.00  0.00     0.037 A 
ENDBRANCH   6  29
TORSDOF 6
ENDMDL
