MODEL 1
REMARK VINA RESULT:     -10.4      0.000      0.000
REMARK  5 active torsions:
REMARK  status: ('A' for Active; 'I' for Inactive)
REMARK    1  A    between atoms: C_3  and  N_4 
REMARK       I    between atoms: N_4  and  C_5 
REMARK       I    between atoms: C_5  and  N_6 
REMARK    2  A    between atoms: N_6  and  C_7 
REMARK    3  A    between atoms: C_7  and  C_8 
REMARK    4  A    between atoms: C_10  and  N_11 
REMARK       I    between atoms: N_11  and  C_12 
REMARK    5  A    between atoms: C_12  and  C_13 
ROOT
HETATM    1  C   UNL     1       8.410  28.347  57.293  1.00  0.00    -0.038 A 
HETATM    2  C   UNL     1       7.806  28.930  58.422  1.00  0.00     0.038 A 
HETATM    3  C   UNL     1       8.318  30.099  58.991  1.00  0.00     0.035 A 
HETATM    4  C   UNL     1       9.456  30.683  58.425  1.00  0.00     0.029 A 
HETATM    5  C   UNL     1      10.073  30.109  57.312  1.00  0.00     0.003 A 
HETATM    6  C   UNL     1       9.555  28.944  56.751  1.00  0.00     0.009 A 
ENDROOT
BRANCH   1   7
HETATM    7  C   UNL     1       7.850  27.075  56.708  1.00  0.00     0.163 C 
BRANCH   7   8
HETATM    8  N   UNL     1       8.453  25.905  57.314  1.00  0.00    -0.339 N 
HETATM    9  C   UNL     1       8.523  24.614  56.889  1.00  0.00     0.321 C 
HETATM   10  N   UNL     1       8.170  24.386  55.591  1.00  0.00    -0.307 N 
HETATM   11  O   UNL     1       8.892  23.768  57.697  1.00  0.00    -0.247 OA
HETATM   12  H   UNL     1       8.127  25.196  54.999  1.00  0.00     0.170 HD
HETATM   13  H   UNL     1       8.722  25.995  58.287  1.00  0.00     0.164 HD
BRANCH  10  14
HETATM   14  C   UNL     1       8.045  23.133  54.942  1.00  0.00     0.059 A 
HETATM   15  C   UNL     1       7.971  23.092  53.536  1.00  0.00    -0.032 A 
HETATM   16  C   UNL     1       8.026  24.330  52.684  1.00  0.00     0.050 C 
HETATM   17  C   UNL     1       7.847  21.848  52.901  1.00  0.00     0.028 A 
HETATM   18  C   UNL     1       7.788  20.699  53.673  1.00  0.00     0.117 A 
HETATM   19  N   UNL     1       7.842  20.704  55.017  1.00  0.00    -0.271 NA
HETATM   20  C   UNL     1       7.970  21.915  55.618  1.00  0.00     0.146 A 
ENDBRANCH  10  14
ENDBRANCH   7   8
ENDBRANCH   1   7
BRANCH   3  21
HETATM   21  N   UNL     1       7.762  30.733  60.123  1.00  0.00    -0.323 N 
HETATM   22  C   UNL     1       8.359  30.924  61.356  1.00  0.00     0.256 C 
HETATM   23  O   UNL     1       9.460  30.516  61.711  1.00  0.00    -0.267 OA
HETATM   24  H   UNL     1       6.798  31.023  60.026  1.00  0.00     0.169 HD
BRANCH  22  25
HETATM   25  C   UNL     1       7.544  31.679  62.347  1.00  0.00     0.035 A 
HETATM   26  C   UNL     1       6.150  31.710  62.288  1.00  0.00     0.036 A 
HETATM   27  C   UNL     1       5.480  32.449  63.247  1.00  0.00     0.117 A 
HETATM   28  N   UNL     1       6.098  33.140  64.229  1.00  0.00    -0.273 NA
HETATM   29  C   UNL     1       7.448  33.110  64.248  1.00  0.00     0.117 A 
HETATM   30  C   UNL     1       8.210  32.404  63.336  1.00  0.00     0.036 A 
ENDBRANCH  22  25
ENDBRANCH   3  21
TORSDOF 5
ENDMDL
MODEL 2
REMARK VINA RESULT:     -10.3      1.825     10.731
REMARK  5 active torsions:
REMARK  status: ('A' for Active; 'I' for Inactive)
REMARK    1  A    between atoms: C_3  and  N_4 
REMARK       I    between atoms: N_4  and  C_5 
REMARK       I    between atoms: C_5  and  N_6 
REMARK    2  A    between atoms: N_6  and  C_7 
REMARK    3  A    between atoms: C_7  and  C_8 
REMARK    4  A    between atoms: C_10  and  N_11 
REMARK       I    between atoms: N_11  and  C_12 
REMARK    5  A    between atoms: C_12  and  C_13 
ROOT
HETATM    1  C   UNL     1       7.075  27.866  57.276  1.00  0.00    -0.038 A 
HETATM    2  C   UNL     1       7.514  26.585  56.894  1.00  0.00     0.038 A 
HETATM    3  C   UNL     1       6.696  25.738  56.143  1.00  0.00     0.035 A 
HETATM    4  C   UNL     1       5.418  26.178  55.780  1.00  0.00     0.029 A 
HETATM    5  C   UNL     1       4.966  27.442  56.163  1.00  0.00     0.003 A 
HETATM    6  C   UNL     1       5.788  28.281  56.911  1.00  0.00     0.009 A 
ENDROOT
BRANCH   1   7
HETATM    7  C   UNL     1       7.969  28.756  58.102  1.00  0.00     0.163 C 
BRANCH   7   8
HETATM    8  N   UNL     1       7.572  30.147  57.996  1.00  0.00    -0.339 N 
HETATM    9  C   UNL     1       7.297  31.072  58.954  1.00  0.00     0.321 C 
HETATM   10  N   UNL     1       7.647  30.742  60.232  1.00  0.00    -0.307 N 
HETATM   11  O   UNL     1       6.762  32.117  58.599  1.00  0.00    -0.247 OA
HETATM   12  H   UNL     1       8.285  29.973  60.327  1.00  0.00     0.170 HD
HETATM   13  H   UNL     1       7.278  30.458  57.078  1.00  0.00     0.164 HD
BRANCH  10  14
HETATM   14  C   UNL     1       7.368  31.470  61.414  1.00  0.00     0.059 A 
HETATM   15  C   UNL     1       8.436  32.019  62.150  1.00  0.00    -0.032 A 
HETATM   16  C   UNL     1       9.873  31.871  61.729  1.00  0.00     0.050 C 
HETATM   17  C   UNL     1       8.152  32.739  63.320  1.00  0.00     0.028 A 
HETATM   18  C   UNL     1       6.835  32.878  63.724  1.00  0.00     0.117 A 
HETATM   19  N   UNL     1       5.793  32.355  63.052  1.00  0.00    -0.271 NA
HETATM   20  C   UNL     1       6.082  31.668  61.917  1.00  0.00     0.146 A 
ENDBRANCH  10  14
ENDBRANCH   7   8
ENDBRANCH   1   7
BRANCH   3  21
HETATM   21  N   UNL     1       7.073  24.442  55.728  1.00  0.00    -0.323 N 
HETATM   22  C   UNL     1       7.679  24.084  54.537  1.00  0.00     0.256 C 
HETATM   23  O   UNL     1       7.938  24.823  53.594  1.00  0.00    -0.267 OA
HETATM   24  H   UNL     1       6.812  23.694  56.358  1.00  0.00     0.169 HD
BRANCH  22  25
HETATM   25  C   UNL     1       8.009  22.639  54.400  1.00  0.00     0.035 A 
HETATM   26  C   UNL     1       8.457  21.877  55.481  1.00  0.00     0.036 A 
HETATM   27  C   UNL     1       8.750  20.544  55.251  1.00  0.00     0.117 A 
HETATM   28  N   UNL     1       8.629  19.945  54.047  1.00  0.00    -0.273 NA
HETATM   29  C   UNL     1       8.216  20.713  53.016  1.00  0.00     0.117 A 
HETATM   30  C   UNL     1       7.900  22.052  53.139  1.00  0.00     0.036 A 
ENDBRANCH  22  25
ENDBRANCH   3  21
TORSDOF 5
ENDMDL
MODEL 3
REMARK VINA RESULT:     -10.0      1.610      1.690
REMARK  5 active torsions:
REMARK  status: ('A' for Active; 'I' for Inactive)
REMARK    1  A    between atoms: C_3  and  N_4 
REMARK       I    between atoms: N_4  and  C_5 
REMARK       I    between atoms: C_5  and  N_6 
REMARK    2  A    between atoms: N_6  and  C_7 
REMARK    3  A    between atoms: C_7  and  C_8 
REMARK    4  A    between atoms: C_10  and  N_11 
REMARK       I    between atoms: N_11  and  C_12 
REMARK    5  A    between atoms: C_12  and  C_13 
ROOT
HETATM    1  C   UNL     1       7.681  29.052  56.277  1.00  0.00    -0.038 A 
HETATM    2  C   UNL     1       7.241  29.593  57.499  1.00  0.00     0.038 A 
HETATM    3  C   UNL     1       8.147  30.119  58.423  1.00  0.00     0.035 A 
HETATM    4  C   UNL     1       9.513  30.091  58.121  1.00  0.00     0.029 A 
HETATM    5  C   UNL     1       9.965  29.546  56.918  1.00  0.00     0.003 A 
HETATM    6  C   UNL     1       9.054  29.025  56.002  1.00  0.00     0.009 A 
ENDROOT
BRANCH   1   7
HETATM    7  C   UNL     1       6.686  28.474  55.303  1.00  0.00     0.163 C 
BRANCH   7   8
HETATM    8  N   UNL     1       6.038  27.296  55.846  1.00  0.00    -0.339 N 
HETATM    9  C   UNL     1       6.291  25.973  55.662  1.00  0.00     0.321 C 
HETATM   10  N   UNL     1       7.468  25.663  55.044  1.00  0.00    -0.307 N 
HETATM   11  O   UNL     1       5.451  25.172  56.058  1.00  0.00    -0.247 OA
HETATM   12  H   UNL     1       8.148  26.400  55.001  1.00  0.00     0.170 HD
HETATM   13  H   UNL     1       5.146  27.448  56.302  1.00  0.00     0.164 HD
BRANCH  10  14
HETATM   14  C   UNL     1       7.911  24.382  54.633  1.00  0.00     0.059 A 
HETATM   15  C   UNL     1       7.813  24.024  53.274  1.00  0.00    -0.032 A 
HETATM   16  C   UNL     1       7.258  24.954  52.229  1.00  0.00     0.050 C 
HETATM   17  C   UNL     1       8.253  22.754  52.875  1.00  0.00     0.028 A 
HETATM   18  C   UNL     1       8.759  21.886  53.827  1.00  0.00     0.117 A 
HETATM   19  N   UNL     1       8.855  22.190  55.134  1.00  0.00    -0.271 NA
HETATM   20  C   UNL     1       8.432  23.426  55.506  1.00  0.00     0.146 A 
ENDBRANCH  10  14
ENDBRANCH   7   8
ENDBRANCH   1   7
BRANCH   3  21
HETATM   21  N   UNL     1       7.773  30.675  59.665  1.00  0.00    -0.323 N 
HETATM   22  C   UNL     1       8.118  31.916  60.168  1.00  0.00     0.256 C 
HETATM   23  O   UNL     1       8.869  32.735  59.651  1.00  0.00    -0.267 OA
HETATM   24  H   UNL     1       7.242  30.061  60.270  1.00  0.00     0.169 HD
BRANCH  22  25
HETATM   25  C   UNL     1       7.527  32.253  61.492  1.00  0.00     0.035 A 
HETATM   26  C   UNL     1       6.164  32.511  61.650  1.00  0.00     0.036 A 
HETATM   27  C   UNL     1       5.711  32.827  62.919  1.00  0.00     0.117 A 
HETATM   28  N   UNL     1       6.510  32.901  64.005  1.00  0.00    -0.273 NA
HETATM   29  C   UNL     1       7.827  32.669  63.817  1.00  0.00     0.117 A 
HETATM   30  C   UNL     1       8.380  32.347  62.592  1.00  0.00     0.036 A 
ENDBRANCH  22  25
ENDBRANCH   3  21
TORSDOF 5
ENDMDL
MODEL 4
REMARK VINA RESULT:      -9.7      4.433      7.837
REMARK  5 active torsions:
REMARK  status: ('A' for Active; 'I' for Inactive)
REMARK    1  A    between atoms: C_3  and  N_4 
REMARK       I    between atoms: N_4  and  C_5 
REMARK       I    between atoms: C_5  and  N_6 
REMARK    2  A    between atoms: N_6  and  C_7 
REMARK    3  A    between atoms: C_7  and  C_8 
REMARK    4  A    between atoms: C_10  and  N_11 
REMARK       I    between atoms: N_11  and  C_12 
REMARK    5  A    between atoms: C_12  and  C_13 
ROOT
HETATM    1  C   UNL     1       7.448  32.801  63.033  1.00  0.00    -0.038 A 
HETATM    2  C   UNL     1       7.641  33.026  64.409  1.00  0.00     0.038 A 
HETATM    3  C   UNL     1       6.945  34.035  65.079  1.00  0.00     0.035 A 
HETATM    4  C   UNL     1       6.051  34.834  64.357  1.00  0.00     0.029 A 
HETATM    5  C   UNL     1       5.859  34.629  62.989  1.00  0.00     0.003 A 
HETATM    6  C   UNL     1       6.557  33.621  62.329  1.00  0.00     0.009 A 
ENDROOT
BRANCH   1   7
HETATM    7  C   UNL     1       8.224  31.718  62.328  1.00  0.00     0.163 C 
BRANCH   7   8
HETATM    8  N   UNL     1       8.818  32.209  61.099  1.00  0.00    -0.339 N 
HETATM    9  C   UNL     1       8.678  31.794  59.812  1.00  0.00     0.321 C 
HETATM   10  N   UNL     1       7.661  30.917  59.567  1.00  0.00    -0.307 N 
HETATM   11  O   UNL     1       9.468  32.233  58.983  1.00  0.00    -0.247 OA
HETATM   12  H   UNL     1       6.964  30.842  60.285  1.00  0.00     0.170 HD
HETATM   13  H   UNL     1       9.595  32.850  61.205  1.00  0.00     0.164 HD
BRANCH  10  14
HETATM   14  C   UNL     1       7.377  30.250  58.350  1.00  0.00     0.059 A 
HETATM   15  C   UNL     1       6.323  30.716  57.541  1.00  0.00    -0.032 A 
HETATM   16  C   UNL     1       5.482  31.907  57.912  1.00  0.00     0.050 C 
HETATM   17  C   UNL     1       6.047  30.050  56.338  1.00  0.00     0.028 A 
HETATM   18  C   UNL     1       6.808  28.949  55.987  1.00  0.00     0.117 A 
HETATM   19  N   UNL     1       7.812  28.468  56.742  1.00  0.00    -0.271 NA
HETATM   20  C   UNL     1       8.074  29.128  57.901  1.00  0.00     0.146 A 
ENDBRANCH  10  14
ENDBRANCH   7   8
ENDBRANCH   1   7
BRANCH   3  21
HETATM   21  N   UNL     1       7.093  34.314  66.455  1.00  0.00    -0.323 N 
HETATM   22  C   UNL     1       6.116  34.259  67.433  1.00  0.00     0.256 C 
HETATM   23  O   UNL     1       4.925  34.020  67.269  1.00  0.00    -0.267 OA
HETATM   24  H   UNL     1       8.007  34.649  66.731  1.00  0.00     0.169 HD
BRANCH  22  25
HETATM   25  C   UNL     1       6.582  34.557  68.814  1.00  0.00     0.035 A 
HETATM   26  C   UNL     1       5.698  34.643  69.892  1.00  0.00     0.036 A 
HETATM   27  C   UNL     1       6.226  34.937  71.137  1.00  0.00     0.117 A 
HETATM   28  N   UNL     1       7.540  35.147  71.364  1.00  0.00    -0.273 NA
HETATM   29  C   UNL     1       8.368  35.081  70.300  1.00  0.00     0.117 A 
HETATM   30  C   UNL     1       7.942  34.795  69.016  1.00  0.00     0.036 A 
ENDBRANCH  22  25
ENDBRANCH   3  21
TORSDOF 5
ENDMDL
MODEL 5
REMARK VINA RESULT:      -9.5      1.812      2.178
REMARK  5 active torsions:
REMARK  status: ('A' for Active; 'I' for Inactive)
REMARK    1  A    between atoms: C_3  and  N_4 
REMARK       I    between atoms: N_4  and  C_5 
REMARK       I    between atoms: C_5  and  N_6 
REMARK    2  A    between atoms: N_6  and  C_7 
REMARK    3  A    between atoms: C_7  and  C_8 
REMARK    4  A    between atoms: C_10  and  N_11 
REMARK       I    between atoms: N_11  and  C_12 
REMARK    5  A    between atoms: C_12  and  C_13 
ROOT
HETATM    1  C   UNL     1       7.690  28.468  56.923  1.00  0.00    -0.038 A 
HETATM    2  C   UNL     1       7.345  29.174  58.090  1.00  0.00     0.038 A 
HETATM    3  C   UNL     1       8.273  29.995  58.736  1.00  0.00     0.035 A 
HETATM    4  C   UNL     1       9.565  30.099  58.210  1.00  0.00     0.029 A 
HETATM    5  C   UNL     1       9.924  29.394  57.060  1.00  0.00     0.003 A 
HETATM    6  C   UNL     1       8.993  28.579  56.421  1.00  0.00     0.009 A 
ENDROOT
BRANCH   1   7
HETATM    7  C   UNL     1       6.677  27.574  56.253  1.00  0.00     0.163 C 
BRANCH   7   8
HETATM    8  N   UNL     1       7.050  27.288  54.882  1.00  0.00    -0.339 N 
HETATM    9  C   UNL     1       7.404  26.123  54.276  1.00  0.00     0.321 C 
HETATM   10  N   UNL     1       7.178  24.980  54.987  1.00  0.00    -0.307 N 
HETATM   11  O   UNL     1       7.895  26.191  53.154  1.00  0.00    -0.247 OA
HETATM   12  H   UNL     1       6.558  25.067  55.772  1.00  0.00     0.170 HD
HETATM   13  H   UNL     1       7.255  28.092  54.299  1.00  0.00     0.164 HD
BRANCH  10  14
HETATM   14  C   UNL     1       7.559  23.662  54.637  1.00  0.00     0.059 A 
HETATM   15  C   UNL     1       8.193  22.852  55.599  1.00  0.00    -0.032 A 
HETATM   16  C   UNL     1       8.482  23.327  56.997  1.00  0.00     0.050 C 
HETATM   17  C   UNL     1       8.568  21.547  55.244  1.00  0.00     0.028 A 
HETATM   18  C   UNL     1       8.314  21.098  53.960  1.00  0.00     0.117 A 
HETATM   19  N   UNL     1       7.723  21.849  53.013  1.00  0.00    -0.271 NA
HETATM   20  C   UNL     1       7.359  23.108  53.372  1.00  0.00     0.146 A 
ENDBRANCH  10  14
ENDBRANCH   7   8
ENDBRANCH   1   7
BRANCH   3  21
HETATM   21  N   UNL     1       7.993  30.729  59.909  1.00  0.00    -0.323 N 
HETATM   22  C   UNL     1       7.265  31.901  60.013  1.00  0.00     0.256 C 
HETATM   23  O   UNL     1       6.784  32.551  59.092  1.00  0.00    -0.267 OA
HETATM   24  H   UNL     1       8.431  30.379  60.751  1.00  0.00     0.169 HD
BRANCH  22  25
HETATM   25  C   UNL     1       7.090  32.420  61.397  1.00  0.00     0.035 A 
HETATM   26  C   UNL     1       5.989  33.195  61.764  1.00  0.00     0.036 A 
HETATM   27  C   UNL     1       5.921  33.642  63.072  1.00  0.00     0.117 A 
HETATM   28  N   UNL     1       6.858  33.372  64.006  1.00  0.00    -0.273 NA
HETATM   29  C   UNL     1       7.923  32.640  63.617  1.00  0.00     0.117 A 
HETATM   30  C   UNL     1       8.086  32.148  62.336  1.00  0.00     0.036 A 
ENDBRANCH  22  25
ENDBRANCH   3  21
TORSDOF 5
ENDMDL
MODEL 6
REMARK VINA RESULT:      -9.4      4.144      6.291
REMARK  5 active torsions:
REMARK  status: ('A' for Active; 'I' for Inactive)
REMARK    1  A    between atoms: C_3  and  N_4 
REMARK       I    between atoms: N_4  and  C_5 
REMARK       I    between atoms: C_5  and  N_6 
REMARK    2  A    between atoms: N_6  and  C_7 
REMARK    3  A    between atoms: C_7  and  C_8 
REMARK    4  A    between atoms: C_10  and  N_11 
REMARK       I    between atoms: N_11  and  C_12 
REMARK    5  A    between atoms: C_12  and  C_13 
ROOT
HETATM    1  C   UNL     1       6.760  25.030  55.170  1.00  0.00    -0.038 A 
HETATM    2  C   UNL     1       7.126  26.317  55.604  1.00  0.00     0.038 A 
HETATM    3  C   UNL     1       7.961  26.495  56.709  1.00  0.00     0.035 A 
HETATM    4  C   UNL     1       8.425  25.367  57.394  1.00  0.00     0.029 A 
HETATM    5  C   UNL     1       8.060  24.084  56.982  1.00  0.00     0.003 A 
HETATM    6  C   UNL     1       7.228  23.916  55.878  1.00  0.00     0.009 A 
ENDROOT
BRANCH   1   7
HETATM    7  C   UNL     1       5.843  24.864  53.984  1.00  0.00     0.163 C 
BRANCH   7   8
HETATM    8  N   UNL     1       4.798  25.868  53.980  1.00  0.00    -0.339 N 
HETATM    9  C   UNL     1       4.564  26.910  53.137  1.00  0.00     0.321 C 
HETATM   10  N   UNL     1       5.278  26.919  51.974  1.00  0.00    -0.307 N 
HETATM   11  O   UNL     1       3.740  27.750  53.486  1.00  0.00    -0.247 OA
HETATM   12  H   UNL     1       5.723  26.054  51.726  1.00  0.00     0.170 HD
HETATM   13  H   UNL     1       4.239  25.934  54.823  1.00  0.00     0.164 HD
BRANCH  10  14
HETATM   14  C   UNL     1       5.307  27.938  50.992  1.00  0.00     0.059 A 
HETATM   15  C   UNL     1       4.891  27.640  49.680  1.00  0.00    -0.032 A 
HETATM   16  C   UNL     1       4.406  26.275  49.273  1.00  0.00     0.050 C 
HETATM   17  C   UNL     1       4.923  28.655  48.713  1.00  0.00     0.028 A 
HETATM   18  C   UNL     1       5.372  29.915  49.071  1.00  0.00     0.117 A 
HETATM   19  N   UNL     1       5.790  30.230  50.310  1.00  0.00    -0.271 NA
HETATM   20  C   UNL     1       5.746  29.240  51.239  1.00  0.00     0.146 A 
ENDBRANCH  10  14
ENDBRANCH   7   8
ENDBRANCH   1   7
BRANCH   3  21
HETATM   21  N   UNL     1       8.364  27.757  57.198  1.00  0.00    -0.323 N 
HETATM   22  C   UNL     1       7.553  28.774  57.667  1.00  0.00     0.256 C 
HETATM   23  O   UNL     1       6.327  28.789  57.682  1.00  0.00    -0.267 OA
HETATM   24  H   UNL     1       9.356  27.946  57.136  1.00  0.00     0.169 HD
BRANCH  22  25
HETATM   25  C   UNL     1       8.270  29.978  58.170  1.00  0.00     0.035 A 
HETATM   26  C   UNL     1       9.594  30.250  57.823  1.00  0.00     0.036 A 
HETATM   27  C   UNL     1      10.179  31.388  58.351  1.00  0.00     0.117 A 
HETATM   28  N   UNL     1       9.543  32.242  59.180  1.00  0.00    -0.273 NA
HETATM   29  C   UNL     1       8.270  31.941  59.517  1.00  0.00     0.117 A 
HETATM   30  C   UNL     1       7.597  30.830  59.047  1.00  0.00     0.036 A 
ENDBRANCH  22  25
ENDBRANCH   3  21
TORSDOF 5
ENDMDL
MODEL 7
REMARK VINA RESULT:      -9.4      5.104      8.112
REMARK  5 active torsions:
REMARK  status: ('A' for Active; 'I' for Inactive)
REMARK    1  A    between atoms: C_3  and  N_4 
REMARK       I    between atoms: N_4  and  C_5 
REMARK       I    between atoms: C_5  and  N_6 
REMARK    2  A    between atoms: N_6  and  C_7 
REMARK    3  A    between atoms: C_7  and  C_8 
REMARK    4  A    between atoms: C_10  and  N_11 
REMARK       I    between atoms: N_11  and  C_12 
REMARK    5  A    between atoms: C_12  and  C_13 
ROOT
HETATM    1  C   UNL     1       7.484  26.531  56.522  1.00  0.00    -0.038 A 
HETATM    2  C   UNL     1       7.346  26.707  55.133  1.00  0.00     0.038 A 
HETATM    3  C   UNL     1       6.159  27.198  54.584  1.00  0.00     0.035 A 
HETATM    4  C   UNL     1       5.095  27.506  55.439  1.00  0.00     0.029 A 
HETATM    5  C   UNL     1       5.215  27.325  56.818  1.00  0.00     0.003 A 
HETATM    6  C   UNL     1       6.402  26.836  57.358  1.00  0.00     0.009 A 
ENDROOT
BRANCH   1   7
HETATM    7  C   UNL     1       8.769  25.982  57.091  1.00  0.00     0.163 C 
BRANCH   7   8
HETATM    8  N   UNL     1       8.580  24.651  57.632  1.00  0.00    -0.339 N 
HETATM    9  C   UNL     1       8.486  23.441  57.017  1.00  0.00     0.321 C 
HETATM   10  N   UNL     1       8.833  23.406  55.698  1.00  0.00    -0.307 N 
HETATM   11  O   UNL     1       8.098  22.490  57.688  1.00  0.00    -0.247 OA
HETATM   12  H   UNL     1       9.353  24.196  55.360  1.00  0.00     0.170 HD
HETATM   13  H   UNL     1       8.299  24.601  58.604  1.00  0.00     0.164 HD
BRANCH  10  14
HETATM   14  C   UNL     1       8.714  22.311  54.808  1.00  0.00     0.059 A 
HETATM   15  C   UNL     1       8.231  22.534  53.504  1.00  0.00    -0.032 A 
HETATM   16  C   UNL     1       7.838  23.899  53.008  1.00  0.00     0.050 C 
HETATM   17  C   UNL     1       8.116  21.445  52.629  1.00  0.00     0.028 A 
HETATM   18  C   UNL     1       8.468  20.182  53.073  1.00  0.00     0.117 A 
HETATM   19  N   UNL     1       8.920  19.931  54.315  1.00  0.00    -0.271 NA
HETATM   20  C   UNL     1       9.034  20.996  55.150  1.00  0.00     0.146 A 
ENDBRANCH  10  14
ENDBRANCH   7   8
ENDBRANCH   1   7
BRANCH   3  21
HETATM   21  N   UNL     1       5.953  27.396  53.201  1.00  0.00    -0.323 N 
HETATM   22  C   UNL     1       5.243  26.586  52.334  1.00  0.00     0.256 C 
HETATM   23  O   UNL     1       4.717  25.511  52.597  1.00  0.00    -0.267 OA
HETATM   24  H   UNL     1       6.434  28.192  52.803  1.00  0.00     0.169 HD
BRANCH  22  25
HETATM   25  C   UNL     1       5.152  27.081  50.933  1.00  0.00     0.035 A 
HETATM   26  C   UNL     1       5.419  28.410  50.599  1.00  0.00     0.036 A 
HETATM   27  C   UNL     1       5.295  28.778  49.270  1.00  0.00     0.117 A 
HETATM   28  N   UNL     1       4.930  27.929  48.287  1.00  0.00    -0.273 NA
HETATM   29  C   UNL     1       4.656  26.655  48.643  1.00  0.00     0.117 A 
HETATM   30  C   UNL     1       4.747  26.188  49.941  1.00  0.00     0.036 A 
ENDBRANCH  22  25
ENDBRANCH   3  21
TORSDOF 5
ENDMDL
MODEL 8
REMARK VINA RESULT:      -9.4      2.626      3.648
REMARK  5 active torsions:
REMARK  status: ('A' for Active; 'I' for Inactive)
REMARK    1  A    between atoms: C_3  and  N_4 
REMARK       I    between atoms: N_4  and  C_5 
REMARK       I    between atoms: C_5  and  N_6 
REMARK    2  A    between atoms: N_6  and  C_7 
REMARK    3  A    between atoms: C_7  and  C_8 
REMARK    4  A    between atoms: C_10  and  N_11 
REMARK       I    between atoms: N_11  and  C_12 
REMARK    5  A    between atoms: C_12  and  C_13 
ROOT
HETATM    1  C   UNL     1       8.654  28.804  57.458  1.00  0.00    -0.038 A 
HETATM    2  C   UNL     1       7.990  29.315  58.589  1.00  0.00     0.038 A 
HETATM    3  C   UNL     1       8.444  30.469  59.231  1.00  0.00     0.035 A 
HETATM    4  C   UNL     1       9.584  31.113  58.738  1.00  0.00     0.029 A 
HETATM    5  C   UNL     1      10.260  30.611  57.624  1.00  0.00     0.003 A 
HETATM    6  C   UNL     1       9.800  29.460  56.989  1.00  0.00     0.009 A 
ENDROOT
BRANCH   1   7
HETATM    7  C   UNL     1       8.156  27.546  56.793  1.00  0.00     0.163 C 
BRANCH   7   8
HETATM    8  N   UNL     1       6.719  27.580  56.607  1.00  0.00    -0.339 N 
HETATM    9  C   UNL     1       5.962  27.517  55.479  1.00  0.00     0.321 C 
HETATM   10  N   UNL     1       6.610  27.147  54.337  1.00  0.00    -0.307 N 
HETATM   11  O   UNL     1       4.771  27.797  55.576  1.00  0.00    -0.247 OA
HETATM   12  H   UNL     1       7.511  26.721  54.462  1.00  0.00     0.170 HD
HETATM   13  H   UNL     1       6.173  27.869  57.410  1.00  0.00     0.164 HD
BRANCH  10  14
HETATM   14  C   UNL     1       6.085  27.117  53.022  1.00  0.00     0.059 A 
HETATM   15  C   UNL     1       5.790  25.874  52.428  1.00  0.00    -0.032 A 
HETATM   16  C   UNL     1       6.006  24.565  53.137  1.00  0.00     0.050 C 
HETATM   17  C   UNL     1       5.271  25.853  51.125  1.00  0.00     0.028 A 
HETATM   18  C   UNL     1       5.073  27.049  50.458  1.00  0.00     0.117 A 
HETATM   19  N   UNL     1       5.356  28.252  50.990  1.00  0.00    -0.271 NA
HETATM   20  C   UNL     1       5.852  28.259  52.255  1.00  0.00     0.146 A 
ENDBRANCH  10  14
ENDBRANCH   7   8
ENDBRANCH   1   7
BRANCH   3  21
HETATM   21  N   UNL     1       7.827  31.033  60.369  1.00  0.00    -0.323 N 
HETATM   22  C   UNL     1       8.434  31.408  61.554  1.00  0.00     0.256 C 
HETATM   23  O   UNL     1       9.613  31.258  61.855  1.00  0.00    -0.267 OA
HETATM   24  H   UNL     1       6.820  31.109  60.320  1.00  0.00     0.169 HD
BRANCH  22  25
HETATM   25  C   UNL     1       7.531  32.027  62.563  1.00  0.00     0.035 A 
HETATM   26  C   UNL     1       8.024  32.718  63.671  1.00  0.00     0.036 A 
HETATM   27  C   UNL     1       7.105  33.248  64.560  1.00  0.00     0.117 A 
HETATM   28  N   UNL     1       5.767  33.131  64.416  1.00  0.00    -0.273 NA
HETATM   29  C   UNL     1       5.321  32.437  63.347  1.00  0.00     0.117 A 
HETATM   30  C   UNL     1       6.155  31.868  62.403  1.00  0.00     0.036 A 
ENDBRANCH  22  25
ENDBRANCH   3  21
TORSDOF 5
ENDMDL
MODEL 9
REMARK VINA RESULT:      -9.3      2.060      2.737
REMARK  5 active torsions:
REMARK  status: ('A' for Active; 'I' for Inactive)
REMARK    1  A    between atoms: C_3  and  N_4 
REMARK       I    between atoms: N_4  and  C_5 
REMARK       I    between atoms: C_5  and  N_6 
REMARK    2  A    between atoms: N_6  and  C_7 
REMARK    3  A    between atoms: C_7  and  C_8 
REMARK    4  A    between atoms: C_10  and  N_11 
REMARK       I    between atoms: N_11  and  C_12 
REMARK    5  A    between atoms: C_12  and  C_13 
ROOT
HETATM    1  C   UNL     1       7.297  29.936  57.303  1.00  0.00    -0.038 A 
HETATM    2  C   UNL     1       6.881  30.714  58.398  1.00  0.00     0.038 A 
HETATM    3  C   UNL     1       7.805  31.222  59.314  1.00  0.00     0.035 A 
HETATM    4  C   UNL     1       9.163  30.937  59.134  1.00  0.00     0.029 A 
HETATM    5  C   UNL     1       9.589  30.156  58.058  1.00  0.00     0.003 A 
HETATM    6  C   UNL     1       8.661  29.654  57.148  1.00  0.00     0.009 A 
ENDROOT
BRANCH   1   7
HETATM    7  C   UNL     1       6.280  29.383  56.337  1.00  0.00     0.163 C 
BRANCH   7   8
HETATM    8  N   UNL     1       6.899  28.985  55.088  1.00  0.00    -0.339 N 
HETATM    9  C   UNL     1       7.259  27.759  54.621  1.00  0.00     0.321 C 
HETATM   10  N   UNL     1       6.785  26.684  55.315  1.00  0.00    -0.307 N 
HETATM   11  O   UNL     1       7.975  27.718  53.626  1.00  0.00    -0.247 OA
HETATM   12  H   UNL     1       6.028  26.870  55.947  1.00  0.00     0.170 HD
HETATM   13  H   UNL     1       7.294  29.731  54.529  1.00  0.00     0.164 HD
BRANCH  10  14
HETATM   14  C   UNL     1       7.104  25.320  55.109  1.00  0.00     0.059 A 
HETATM   15  C   UNL     1       7.921  24.657  56.045  1.00  0.00    -0.032 A 
HETATM   16  C   UNL     1       8.469  25.338  57.269  1.00  0.00     0.050 C 
HETATM   17  C   UNL     1       8.233  23.306  55.834  1.00  0.00     0.028 A 
HETATM   18  C   UNL     1       7.741  22.668  54.708  1.00  0.00     0.117 A 
HETATM   19  N   UNL     1       6.970  23.275  53.788  1.00  0.00    -0.271 NA
HETATM   20  C   UNL     1       6.669  24.581  54.009  1.00  0.00     0.146 A 
ENDBRANCH  10  14
ENDBRANCH   7   8
ENDBRANCH   1   7
BRANCH   3  21
HETATM   21  N   UNL     1       7.454  32.007  60.435  1.00  0.00    -0.323 N 
HETATM   22  C   UNL     1       7.813  31.794  61.754  1.00  0.00     0.256 C 
HETATM   23  O   UNL     1       8.449  30.845  62.199  1.00  0.00    -0.267 OA
HETATM   24  H   UNL     1       6.821  32.772  60.244  1.00  0.00     0.169 HD
BRANCH  22  25
HETATM   25  C   UNL     1       7.336  32.825  62.716  1.00  0.00     0.035 A 
HETATM   26  C   UNL     1       7.739  32.832  64.053  1.00  0.00     0.036 A 
HETATM   27  C   UNL     1       7.231  33.825  64.873  1.00  0.00     0.117 A 
HETATM   28  N   UNL     1       6.372  34.778  64.455  1.00  0.00    -0.273 NA
HETATM   29  C   UNL     1       5.983  34.732  63.162  1.00  0.00     0.117 A 
HETATM   30  C   UNL     1       6.429  33.783  62.263  1.00  0.00     0.036 A 
ENDBRANCH  22  25
ENDBRANCH   3  21
TORSDOF 5
ENDMDL
MODEL 10
REMARK VINA RESULT:      -9.3      2.385     10.719
REMARK  5 active torsions:
REMARK  status: ('A' for Active; 'I' for Inactive)
REMARK    1  A    between atoms: C_3  and  N_4 
REMARK       I    between atoms: N_4  and  C_5 
REMARK       I    between atoms: C_5  and  N_6 
REMARK    2  A    between atoms: N_6  and  C_7 
REMARK    3  A    between atoms: C_7  and  C_8 
REMARK    4  A    between atoms: C_10  and  N_11 
REMARK       I    between atoms: N_11  and  C_12 
REMARK    5  A    between atoms: C_12  and  C_13 
ROOT
HETATM    1  C   UNL     1       6.147  29.280  56.967  1.00  0.00    -0.038 A 
HETATM    2  C   UNL     1       6.610  27.996  56.628  1.00  0.00     0.038 A 
HETATM    3  C   UNL     1       5.898  27.182  55.744  1.00  0.00     0.035 A 
HETATM    4  C   UNL     1       4.700  27.661  55.201  1.00  0.00     0.029 A 
HETATM    5  C   UNL     1       4.222  28.929  55.537  1.00  0.00     0.003 A 
HETATM    6  C   UNL     1       4.940  29.734  56.419  1.00  0.00     0.009 A 
ENDROOT
BRANCH   1   7
HETATM    7  C   UNL     1       6.924  30.133  57.937  1.00  0.00     0.163 C 
BRANCH   7   8
HETATM    8  N   UNL     1       6.249  31.390  58.194  1.00  0.00    -0.339 N 
HETATM    9  C   UNL     1       6.078  32.093  59.346  1.00  0.00     0.321 C 
HETATM   10  N   UNL     1       6.829  31.696  60.413  1.00  0.00    -0.307 N 
HETATM   11  O   UNL     1       5.270  33.016  59.334  1.00  0.00    -0.247 OA
HETATM   12  H   UNL     1       7.607  31.096  60.204  1.00  0.00     0.170 HD
HETATM   13  H   UNL     1       5.654  31.736  57.450  1.00  0.00     0.164 HD
BRANCH  10  14
HETATM   14  C   UNL     1       6.756  32.179  61.742  1.00  0.00     0.059 A 
HETATM   15  C   UNL     1       7.943  32.327  62.486  1.00  0.00    -0.032 A 
HETATM   16  C   UNL     1       9.299  31.997  61.924  1.00  0.00     0.050 C 
HETATM   17  C   UNL     1       7.862  32.806  63.802  1.00  0.00     0.028 A 
HETATM   18  C   UNL     1       6.621  33.108  64.335  1.00  0.00     0.117 A 
HETATM   19  N   UNL     1       5.467  32.965  63.658  1.00  0.00    -0.271 NA
HETATM   20  C   UNL     1       5.561  32.508  62.382  1.00  0.00     0.146 A 
ENDBRANCH  10  14
ENDBRANCH   7   8
ENDBRANCH   1   7
BRANCH   3  21
HETATM   21  N   UNL     1       6.304  25.885  55.365  1.00  0.00    -0.323 N 
HETATM   22  C   UNL     1       7.061  25.531  54.262  1.00  0.00     0.256 C 
HETATM   23  O   UNL     1       7.460  26.277  53.375  1.00  0.00    -0.267 OA
HETATM   24  H   UNL     1       5.945  25.134  55.940  1.00  0.00     0.169 HD
BRANCH  22  25
HETATM   25  C   UNL     1       7.380  24.081  54.148  1.00  0.00     0.035 A 
HETATM   26  C   UNL     1       7.725  23.492  52.930  1.00  0.00     0.036 A 
HETATM   27  C   UNL     1       7.992  22.134  52.924  1.00  0.00     0.117 A 
HETATM   28  N   UNL     1       7.936  21.353  54.024  1.00  0.00    -0.273 NA
HETATM   29  C   UNL     1       7.577  21.946  55.183  1.00  0.00     0.117 A 
HETATM   30  C   UNL     1       7.289  23.293  55.296  1.00  0.00     0.036 A 
ENDBRANCH  22  25
ENDBRANCH   3  21
TORSDOF 5
ENDMDL
