MODEL 1
REMARK VINA RESULT:      -8.4      0.000      0.000
REMARK  3 active torsions:
REMARK  status: ('A' for Active; 'I' for Inactive)
REMARK    1  A    between atoms: C_2  and  N_3 
REMARK       I    between atoms: N_3  and  C_4 
REMARK    2  A    between atoms: C_4  and  C_5 
REMARK    3  A    between atoms: C_5  and  C_6 
ROOT
HETATM    1  C   UNL     1       4.632  27.050  52.965  1.00  0.00     0.286 C 
HETATM    2  N   UNL     1       5.380  28.043  52.065  1.00  0.00    -0.056 N 
HETATM    3  H   UNL     1       5.330  28.990  52.477  1.00  0.00     0.278 HD
HETATM    4  H   UNL     1       6.385  27.813  52.070  1.00  0.00     0.278 HD
HETATM    5  C   UNL     1       4.835  28.010  50.669  1.00  0.00     0.209 C 
HETATM    6  C   UNL     1       5.091  26.597  50.102  1.00  0.00     0.115 C 
HETATM    7  N   UNL     1       4.522  25.563  50.965  1.00  0.00    -0.353 N 
HETATM    8  C   UNL     1       4.556  25.635  52.344  1.00  0.00     0.249 C 
HETATM    9  O   UNL     1       4.437  24.620  53.018  1.00  0.00    -0.271 OA
HETATM   10  C   UNL     1       5.489  29.087  49.818  1.00  0.00     0.035 C 
HETATM   11  C   UNL     1       4.966  28.999  48.384  1.00  0.00     0.002 C 
HETATM   12  C   UNL     1       5.170  27.605  47.789  1.00  0.00     0.002 C 
HETATM   13  C   UNL     1       4.578  26.499  48.667  1.00  0.00     0.027 C 
HETATM   14  H   UNL     1       4.510  24.602  50.622  1.00  0.00     0.163 HD
ENDROOT
BRANCH   1  15
HETATM   15  C   UNL     1       5.280  27.018  54.344  1.00  0.00     0.146 C 
BRANCH  15  16
HETATM   16  C   UNL     1       6.746  27.281  54.163  1.00  0.00     0.224 C 
HETATM   17  N   UNL     1       7.702  26.326  54.094  1.00  0.00    -0.327 N 
HETATM   18  H   UNL     1       8.628  26.746  54.130  1.00  0.00     0.169 HD
HETATM   19  O   UNL     1       7.122  28.452  54.317  1.00  0.00    -0.273 OA
BRANCH  17  20
HETATM   20  C   UNL     1       7.698  24.920  54.075  1.00  0.00     0.034 A 
HETATM   21  C   UNL     1       7.465  24.088  55.169  1.00  0.00     0.031 A 
HETATM   22  C   UNL     1       7.519  22.694  55.025  1.00  0.00     0.026 A 
HETATM   23  C   UNL     1       7.795  22.125  53.785  1.00  0.00     0.034 A 
HETATM   24  C   UNL     1       7.998  22.939  52.680  1.00  0.00     0.026 A 
HETATM   25 CL   UNL     1       7.871  20.417  53.621  1.00  0.00    -0.084 Cl
HETATM   26  C   UNL     1       7.936  24.329  52.824  1.00  0.00     0.031 A 
ENDBRANCH  17  20
ENDBRANCH  15  16
ENDBRANCH   1  15
TORSDOF 3
ENDMDL
MODEL 2
REMARK VINA RESULT:      -8.3      2.835      6.654
REMARK  3 active torsions:
REMARK  status: ('A' for Active; 'I' for Inactive)
REMARK    1  A    between atoms: C_2  and  N_3 
REMARK       I    between atoms: N_3  and  C_4 
REMARK    2  A    between atoms: C_4  and  C_5 
REMARK    3  A    between atoms: C_5  and  C_6 
ROOT
HETATM    1  C   UNL     1       6.923  25.104  55.956  1.00  0.00     0.286 C 
HETATM    2  N   UNL     1       7.376  24.269  54.750  1.00  0.00    -0.056 N 
HETATM    3  H   UNL     1       6.741  24.440  53.952  1.00  0.00     0.278 HD
HETATM    4  H   UNL     1       8.293  24.611  54.427  1.00  0.00     0.278 HD
HETATM    5  C   UNL     1       7.448  22.814  55.107  1.00  0.00     0.209 C 
HETATM    6  C   UNL     1       8.524  22.657  56.203  1.00  0.00     0.115 C 
HETATM    7  N   UNL     1       8.249  23.517  57.352  1.00  0.00    -0.353 N 
HETATM    8  C   UNL     1       7.752  24.800  57.226  1.00  0.00     0.249 C 
HETATM    9  O   UNL     1       7.897  25.609  58.133  1.00  0.00    -0.271 OA
HETATM   10  C   UNL     1       7.769  21.981  53.876  1.00  0.00     0.035 C 
HETATM   11  C   UNL     1       7.898  20.510  54.271  1.00  0.00     0.002 C 
HETATM   12  C   UNL     1       8.934  20.306  55.378  1.00  0.00     0.002 C 
HETATM   13  C   UNL     1       8.668  21.189  56.601  1.00  0.00     0.027 C 
HETATM   14  H   UNL     1       8.816  23.396  58.191  1.00  0.00     0.163 HD
ENDROOT
BRANCH   1  15
HETATM   15  C   UNL     1       6.971  26.585  55.601  1.00  0.00     0.146 C 
BRANCH  15  16
HETATM   16  C   UNL     1       5.579  27.128  55.723  1.00  0.00     0.224 C 
HETATM   17  N   UNL     1       4.722  27.301  54.690  1.00  0.00    -0.327 N 
HETATM   18  H   UNL     1       3.903  27.826  54.991  1.00  0.00     0.169 HD
HETATM   19  O   UNL     1       5.283  27.661  56.803  1.00  0.00    -0.273 OA
BRANCH  17  20
HETATM   20  C   UNL     1       4.753  27.005  53.316  1.00  0.00     0.034 A 
HETATM   21  C   UNL     1       4.950  25.745  52.755  1.00  0.00     0.031 A 
HETATM   22  C   UNL     1       4.988  25.586  51.362  1.00  0.00     0.026 A 
HETATM   23  C   UNL     1       4.820  26.684  50.524  1.00  0.00     0.034 A 
HETATM   24  C   UNL     1       4.592  27.941  51.067  1.00  0.00     0.026 A 
HETATM   25 CL   UNL     1       4.882  26.482  48.819  1.00  0.00    -0.084 Cl
HETATM   26  C   UNL     1       4.546  28.096  52.456  1.00  0.00     0.031 A 
ENDBRANCH  17  20
ENDBRANCH  15  16
ENDBRANCH   1  15
TORSDOF 3
ENDMDL
MODEL 3
REMARK VINA RESULT:      -8.2      3.333      5.954
REMARK  3 active torsions:
REMARK  status: ('A' for Active; 'I' for Inactive)
REMARK    1  A    between atoms: C_2  and  N_3 
REMARK       I    between atoms: N_3  and  C_4 
REMARK    2  A    between atoms: C_4  and  C_5 
REMARK    3  A    between atoms: C_5  and  C_6 
ROOT
HETATM    1  C   UNL     1       6.972  27.742  56.097  1.00  0.00     0.286 C 
HETATM    2  N   UNL     1       8.164  28.551  55.567  1.00  0.00    -0.056 N 
HETATM    3  H   UNL     1       8.694  27.981  54.886  1.00  0.00     0.278 HD
HETATM    4  H   UNL     1       7.814  29.350  55.018  1.00  0.00     0.278 HD
HETATM    5  C   UNL     1       9.031  29.023  56.696  1.00  0.00     0.209 C 
HETATM    6  C   UNL     1       8.182  29.976  57.567  1.00  0.00     0.115 C 
HETATM    7  N   UNL     1       6.950  29.334  58.019  1.00  0.00    -0.353 N 
HETATM    8  C   UNL     1       6.209  28.487  57.218  1.00  0.00     0.249 C 
HETATM    9  O   UNL     1       5.026  28.284  57.464  1.00  0.00    -0.271 OA
HETATM   10  C   UNL     1      10.277  29.709  56.158  1.00  0.00     0.035 C 
HETATM   11  C   UNL     1      11.117  30.236  57.321  1.00  0.00     0.002 C 
HETATM   12  C   UNL     1      10.309  31.163  58.232  1.00  0.00     0.002 C 
HETATM   13  C   UNL     1       9.014  30.515  58.729  1.00  0.00     0.027 C 
HETATM   14  H   UNL     1       6.380  29.819  58.711  1.00  0.00     0.163 HD
ENDROOT
BRANCH   1  15
HETATM   15  C   UNL     1       6.047  27.376  54.943  1.00  0.00     0.146 C 
BRANCH  15  16
HETATM   16  C   UNL     1       6.884  27.277  53.703  1.00  0.00     0.224 C 
HETATM   17  N   UNL     1       7.527  26.160  53.290  1.00  0.00    -0.327 N 
HETATM   18  H   UNL     1       8.154  26.375  52.517  1.00  0.00     0.169 HD
HETATM   19  O   UNL     1       7.188  28.344  53.152  1.00  0.00    -0.273 OA
BRANCH  17  20
HETATM   20  C   UNL     1       7.587  24.828  53.736  1.00  0.00     0.034 A 
HETATM   21  C   UNL     1       7.420  24.398  55.052  1.00  0.00     0.031 A 
HETATM   22  C   UNL     1       7.533  23.037  55.373  1.00  0.00     0.026 A 
HETATM   23  C   UNL     1       7.802  22.100  54.381  1.00  0.00     0.034 A 
HETATM   24  C   UNL     1       7.939  22.508  53.062  1.00  0.00     0.026 A 
HETATM   25 CL   UNL     1       7.951  20.437  54.786  1.00  0.00    -0.084 Cl
HETATM   26  C   UNL     1       7.819  23.864  52.742  1.00  0.00     0.031 A 
ENDBRANCH  17  20
ENDBRANCH  15  16
ENDBRANCH   1  15
TORSDOF 3
ENDMDL
MODEL 4
REMARK VINA RESULT:      -8.1      4.111      6.568
REMARK  3 active torsions:
REMARK  status: ('A' for Active; 'I' for Inactive)
REMARK    1  A    between atoms: C_2  and  N_3 
REMARK       I    between atoms: N_3  and  C_4 
REMARK    2  A    between atoms: C_4  and  C_5 
REMARK    3  A    between atoms: C_5  and  C_6 
ROOT
HETATM    1  C   UNL     1       5.725  25.745  55.103  1.00  0.00     0.286 C 
HETATM    2  N   UNL     1       6.444  25.189  53.866  1.00  0.00    -0.056 N 
HETATM    3  H   UNL     1       5.802  25.208  53.054  1.00  0.00     0.278 HD
HETATM    4  H   UNL     1       7.209  25.827  53.603  1.00  0.00     0.278 HD
HETATM    5  C   UNL     1       6.970  23.810  54.131  1.00  0.00     0.209 C 
HETATM    6  C   UNL     1       8.019  23.922  55.259  1.00  0.00     0.115 C 
HETATM    7  N   UNL     1       7.462  24.563  56.448  1.00  0.00    -0.353 N 
HETATM    8  C   UNL     1       6.584  25.627  56.384  1.00  0.00     0.249 C 
HETATM    9  O   UNL     1       6.446  26.371  57.346  1.00  0.00    -0.271 OA
HETATM   10  C   UNL     1       7.563  23.214  52.864  1.00  0.00     0.035 C 
HETATM   11  C   UNL     1       8.147  21.835  53.169  1.00  0.00     0.002 C 
HETATM   12  C   UNL     1       9.173  21.890  54.302  1.00  0.00     0.002 C 
HETATM   13  C   UNL     1       8.616  22.550  55.567  1.00  0.00     0.027 C 
HETATM   14  H   UNL     1       8.022  24.566  57.300  1.00  0.00     0.163 HD
ENDROOT
BRANCH   1  15
HETATM   15  C   UNL     1       5.305  27.187  54.846  1.00  0.00     0.146 C 
BRANCH  15  16
HETATM   16  C   UNL     1       6.405  27.851  54.072  1.00  0.00     0.224 C 
HETATM   17  N   UNL     1       7.320  28.698  54.599  1.00  0.00    -0.327 N 
HETATM   18  H   UNL     1       7.861  29.141  53.859  1.00  0.00     0.169 HD
HETATM   19  O   UNL     1       6.325  27.795  52.837  1.00  0.00    -0.273 OA
BRANCH  17  20
HETATM   20  C   UNL     1       7.617  29.155  55.894  1.00  0.00     0.034 A 
HETATM   21  C   UNL     1       6.725  29.776  56.768  1.00  0.00     0.031 A 
HETATM   22  C   UNL     1       7.156  30.213  58.029  1.00  0.00     0.026 A 
HETATM   23  C   UNL     1       8.476  30.025  58.426  1.00  0.00     0.034 A 
HETATM   24  C   UNL     1       9.368  29.381  57.580  1.00  0.00     0.026 A 
HETATM   25 CL   UNL     1       8.997  30.576  59.967  1.00  0.00    -0.084 Cl
HETATM   26  C   UNL     1       8.935  28.938  56.327  1.00  0.00     0.031 A 
ENDBRANCH  17  20
ENDBRANCH  15  16
ENDBRANCH   1  15
TORSDOF 3
ENDMDL
MODEL 5
REMARK VINA RESULT:      -8.1      4.682      7.094
REMARK  3 active torsions:
REMARK  status: ('A' for Active; 'I' for Inactive)
REMARK    1  A    between atoms: C_2  and  N_3 
REMARK       I    between atoms: N_3  and  C_4 
REMARK    2  A    between atoms: C_4  and  C_5 
REMARK    3  A    between atoms: C_5  and  C_6 
ROOT
HETATM    1  C   UNL     1       6.603  25.909  55.766  1.00  0.00     0.286 C 
HETATM    2  N   UNL     1       6.863  25.332  54.368  1.00  0.00    -0.056 N 
HETATM    3  H   UNL     1       6.026  25.471  53.775  1.00  0.00     0.278 HD
HETATM    4  H   UNL     1       7.601  25.882  53.906  1.00  0.00     0.278 HD
HETATM    5  C   UNL     1       7.253  23.886  54.453  1.00  0.00     0.209 C 
HETATM    6  C   UNL     1       8.583  23.809  55.234  1.00  0.00     0.115 C 
HETATM    7  N   UNL     1       8.475  24.453  56.542  1.00  0.00    -0.353 N 
HETATM    8  C   UNL     1       7.765  25.620  56.746  1.00  0.00     0.249 C 
HETATM    9  O   UNL     1       8.005  26.325  57.718  1.00  0.00    -0.271 OA
HETATM   10  C   UNL     1       7.378  23.287  53.062  1.00  0.00     0.035 C 
HETATM   11  C   UNL     1       7.836  21.832  53.168  1.00  0.00     0.002 C 
HETATM   12  C   UNL     1       9.137  21.700  53.961  1.00  0.00     0.002 C 
HETATM   13  C   UNL     1       9.053  22.359  55.340  1.00  0.00     0.027 C 
HETATM   14  H   UNL     1       9.248  24.343  57.198  1.00  0.00     0.163 HD
ENDROOT
BRANCH   1  15
HETATM   15  C   UNL     1       6.324  27.403  55.660  1.00  0.00     0.146 C 
BRANCH  15  16
HETATM   16  C   UNL     1       7.432  28.017  54.857  1.00  0.00     0.224 C 
HETATM   17  N   UNL     1       8.290  28.959  55.313  1.00  0.00    -0.327 N 
HETATM   18  H   UNL     1       8.847  29.334  54.548  1.00  0.00     0.169 HD
HETATM   19  O   UNL     1       7.410  27.812  53.635  1.00  0.00    -0.273 OA
BRANCH  17  20
HETATM   20  C   UNL     1       8.511  29.580  56.555  1.00  0.00     0.034 A 
HETATM   21  C   UNL     1       7.530  29.934  57.479  1.00  0.00     0.031 A 
HETATM   22  C   UNL     1       7.880  30.577  58.675  1.00  0.00     0.026 A 
HETATM   23  C   UNL     1       9.213  30.860  58.958  1.00  0.00     0.034 A 
HETATM   24  C   UNL     1      10.205  30.484  58.063  1.00  0.00     0.026 A 
HETATM   25 CL   UNL     1       9.631  31.659  60.419  1.00  0.00    -0.084 Cl
HETATM   26  C   UNL     1       9.854  29.836  56.874  1.00  0.00     0.031 A 
ENDBRANCH  17  20
ENDBRANCH  15  16
ENDBRANCH   1  15
TORSDOF 3
ENDMDL
MODEL 6
REMARK VINA RESULT:      -8.0      2.167      3.289
REMARK  3 active torsions:
REMARK  status: ('A' for Active; 'I' for Inactive)
REMARK    1  A    between atoms: C_2  and  N_3 
REMARK       I    between atoms: N_3  and  C_4 
REMARK    2  A    between atoms: C_4  and  C_5 
REMARK    3  A    between atoms: C_5  and  C_6 
ROOT
HETATM    1  C   UNL     1       6.184  26.339  55.446  1.00  0.00     0.286 C 
HETATM    2  N   UNL     1       5.610  25.575  54.245  1.00  0.00    -0.056 N 
HETATM    3  H   UNL     1       6.137  24.695  54.109  1.00  0.00     0.278 HD
HETATM    4  H   UNL     1       4.651  25.269  54.465  1.00  0.00     0.278 HD
HETATM    5  C   UNL     1       5.624  26.431  53.014  1.00  0.00     0.209 C 
HETATM    6  C   UNL     1       4.695  27.637  53.276  1.00  0.00     0.115 C 
HETATM    7  N   UNL     1       5.085  28.361  54.484  1.00  0.00    -0.353 N 
HETATM    8  C   UNL     1       5.526  27.727  55.628  1.00  0.00     0.249 C 
HETATM    9  O   UNL     1       5.471  28.298  56.710  1.00  0.00    -0.271 OA
HETATM   10  C   UNL     1       5.178  25.628  51.802  1.00  0.00     0.035 C 
HETATM   11  C   UNL     1       5.140  26.532  50.570  1.00  0.00     0.002 C 
HETATM   12  C   UNL     1       4.255  27.759  50.792  1.00  0.00     0.002 C 
HETATM   13  C   UNL     1       4.643  28.545  52.048  1.00  0.00     0.027 C 
HETATM   14  H   UNL     1       4.629  29.253  54.679  1.00  0.00     0.163 HD
ENDROOT
BRANCH   1  15
HETATM   15  C   UNL     1       6.051  25.490  56.704  1.00  0.00     0.146 C 
BRANCH  15  16
HETATM   16  C   UNL     1       7.426  25.296  57.270  1.00  0.00     0.224 C 
HETATM   17  N   UNL     1       8.272  24.298  56.925  1.00  0.00    -0.327 N 
HETATM   18  H   UNL     1       9.075  24.279  57.550  1.00  0.00     0.169 HD
HETATM   19  O   UNL     1       7.709  25.958  58.279  1.00  0.00    -0.273 OA
BRANCH  17  20
HETATM   20  C   UNL     1       8.244  23.256  55.981  1.00  0.00     0.034 A 
HETATM   21  C   UNL     1       8.036  21.906  56.258  1.00  0.00     0.031 A 
HETATM   22  C   UNL     1       8.060  20.958  55.225  1.00  0.00     0.026 A 
HETATM   23  C   UNL     1       8.281  21.355  53.910  1.00  0.00     0.034 A 
HETATM   24  C   UNL     1       8.458  22.700  53.614  1.00  0.00     0.026 A 
HETATM   25 CL   UNL     1       8.322  20.185  52.654  1.00  0.00    -0.084 Cl
HETATM   26  C   UNL     1       8.426  23.645  54.644  1.00  0.00     0.031 A 
ENDBRANCH  17  20
ENDBRANCH  15  16
ENDBRANCH   1  15
TORSDOF 3
ENDMDL
MODEL 7
REMARK VINA RESULT:      -7.9      6.315      8.787
REMARK  3 active torsions:
REMARK  status: ('A' for Active; 'I' for Inactive)
REMARK    1  A    between atoms: C_2  and  N_3 
REMARK       I    between atoms: N_3  and  C_4 
REMARK    2  A    between atoms: C_4  and  C_5 
REMARK    3  A    between atoms: C_5  and  C_6 
ROOT
HETATM    1  C   UNL     1       7.811  28.012  56.915  1.00  0.00     0.286 C 
HETATM    2  N   UNL     1       8.337  26.677  57.459  1.00  0.00    -0.056 N 
HETATM    3  H   UNL     1       9.306  26.800  57.802  1.00  0.00     0.278 HD
HETATM    4  H   UNL     1       7.799  26.417  58.298  1.00  0.00     0.278 HD
HETATM    5  C   UNL     1       8.245  25.603  56.416  1.00  0.00     0.209 C 
HETATM    6  C   UNL     1       6.750  25.405  56.085  1.00  0.00     0.115 C 
HETATM    7  N   UNL     1       6.120  26.658  55.676  1.00  0.00    -0.353 N 
HETATM    8  C   UNL     1       6.413  27.871  56.267  1.00  0.00     0.249 C 
HETATM    9  O   UNL     1       5.622  28.803  56.187  1.00  0.00    -0.271 OA
HETATM   10  C   UNL     1       8.889  24.320  56.916  1.00  0.00     0.035 C 
HETATM   11  C   UNL     1       8.731  23.222  55.865  1.00  0.00     0.002 C 
HETATM   12  C   UNL     1       7.266  23.008  55.480  1.00  0.00     0.002 C 
HETATM   13  C   UNL     1       6.580  24.303  55.039  1.00  0.00     0.027 C 
HETATM   14  H   UNL     1       5.172  26.622  55.302  1.00  0.00     0.163 HD
ENDROOT
BRANCH   1  15
HETATM   15  C   UNL     1       7.806  29.053  58.027  1.00  0.00     0.146 C 
BRANCH  15  16
HETATM   16  C   UNL     1       9.160  29.696  58.054  1.00  0.00     0.224 C 
HETATM   17  N   UNL     1       9.561  30.622  58.957  1.00  0.00    -0.327 N 
HETATM   18  H   UNL     1      10.454  31.025  58.681  1.00  0.00     0.169 HD
HETATM   19  O   UNL     1       9.871  29.536  57.051  1.00  0.00    -0.273 OA
BRANCH  17  20
HETATM   20  C   UNL     1       8.991  31.196  60.106  1.00  0.00     0.034 A 
HETATM   21  C   UNL     1       8.211  32.351  60.143  1.00  0.00     0.031 A 
HETATM   22  C   UNL     1       7.724  32.839  61.364  1.00  0.00     0.026 A 
HETATM   23  C   UNL     1       8.004  32.171  62.552  1.00  0.00     0.034 A 
HETATM   24  C   UNL     1       8.752  31.002  62.528  1.00  0.00     0.026 A 
HETATM   25 CL   UNL     1       7.413  32.784  64.044  1.00  0.00    -0.084 Cl
HETATM   26  C   UNL     1       9.231  30.513  61.309  1.00  0.00     0.031 A 
ENDBRANCH  17  20
ENDBRANCH  15  16
ENDBRANCH   1  15
TORSDOF 3
ENDMDL
MODEL 8
REMARK VINA RESULT:      -7.7      2.075      3.155
REMARK  3 active torsions:
REMARK  status: ('A' for Active; 'I' for Inactive)
REMARK    1  A    between atoms: C_2  and  N_3 
REMARK       I    between atoms: N_3  and  C_4 
REMARK    2  A    between atoms: C_4  and  C_5 
REMARK    3  A    between atoms: C_5  and  C_6 
ROOT
HETATM    1  C   UNL     1       5.418  27.991  50.915  1.00  0.00     0.286 C 
HETATM    2  N   UNL     1       4.606  26.738  50.561  1.00  0.00    -0.056 N 
HETATM    3  H   UNL     1       5.155  25.892  50.795  1.00  0.00     0.278 HD
HETATM    4  H   UNL     1       3.780  26.686  51.174  1.00  0.00     0.278 HD
HETATM    5  C   UNL     1       4.197  26.758  49.119  1.00  0.00     0.209 C 
HETATM    6  C   UNL     1       3.270  27.976  48.916  1.00  0.00     0.115 C 
HETATM    7  N   UNL     1       3.911  29.216  49.349  1.00  0.00    -0.353 N 
HETATM    8  C   UNL     1       4.711  29.294  50.472  1.00  0.00     0.249 C 
HETATM    9  O   UNL     1       4.906  30.373  51.017  1.00  0.00    -0.271 OA
HETATM   10  C   UNL     1       3.509  25.455  48.743  1.00  0.00     0.035 C 
HETATM   11  C   UNL     1       3.046  25.519  47.287  1.00  0.00     0.002 C 
HETATM   12  C   UNL     1       2.147  26.730  47.029  1.00  0.00     0.002 C 
HETATM   13  C   UNL     1       2.795  28.046  47.465  1.00  0.00     0.027 C 
HETATM   14  H   UNL     1       3.447  30.099  49.135  1.00  0.00     0.163 HD
ENDROOT
BRANCH   1  15
HETATM   15  C   UNL     1       5.720  28.002  52.408  1.00  0.00     0.146 C 
BRANCH  15  16
HETATM   16  C   UNL     1       4.632  27.234  53.098  1.00  0.00     0.224 C 
HETATM   17  N   UNL     1       4.763  25.982  53.594  1.00  0.00    -0.327 N 
HETATM   18  H   UNL     1       3.856  25.612  53.871  1.00  0.00     0.169 HD
HETATM   19  O   UNL     1       3.483  27.689  52.999  1.00  0.00    -0.273 OA
BRANCH  17  20
HETATM   20  C   UNL     1       5.828  25.074  53.725  1.00  0.00     0.034 A 
HETATM   21  C   UNL     1       6.486  24.428  52.679  1.00  0.00     0.031 A 
HETATM   22  C   UNL     1       7.520  23.519  52.945  1.00  0.00     0.026 A 
HETATM   23  C   UNL     1       7.908  23.258  54.256  1.00  0.00     0.034 A 
HETATM   24  C   UNL     1       7.284  23.916  55.306  1.00  0.00     0.026 A 
HETATM   25 CL   UNL     1       9.166  22.132  54.572  1.00  0.00    -0.084 Cl
HETATM   26  C   UNL     1       6.259  24.829  55.039  1.00  0.00     0.031 A 
ENDBRANCH  17  20
ENDBRANCH  15  16
ENDBRANCH   1  15
TORSDOF 3
ENDMDL
MODEL 9
REMARK VINA RESULT:      -7.7      1.416      2.006
REMARK  3 active torsions:
REMARK  status: ('A' for Active; 'I' for Inactive)
REMARK    1  A    between atoms: C_2  and  N_3 
REMARK       I    between atoms: N_3  and  C_4 
REMARK    2  A    between atoms: C_4  and  C_5 
REMARK    3  A    between atoms: C_5  and  C_6 
ROOT
HETATM    1  C   UNL     1       5.085  27.631  52.536  1.00  0.00     0.286 C 
HETATM    2  N   UNL     1       4.786  26.624  51.417  1.00  0.00    -0.056 N 
HETATM    3  H   UNL     1       5.512  25.888  51.409  1.00  0.00     0.278 HD
HETATM    4  H   UNL     1       3.913  26.122  51.637  1.00  0.00     0.278 HD
HETATM    5  C   UNL     1       4.678  27.318  50.092  1.00  0.00     0.209 C 
HETATM    6  C   UNL     1       3.478  28.287  50.170  1.00  0.00     0.115 C 
HETATM    7  N   UNL     1       3.608  29.211  51.294  1.00  0.00    -0.353 N 
HETATM    8  C   UNL     1       4.110  28.831  52.523  1.00  0.00     0.249 C 
HETATM    9  O   UNL     1       3.852  29.487  53.524  1.00  0.00    -0.271 OA
HETATM   10  C   UNL     1       4.514  26.303  48.972  1.00  0.00     0.035 C 
HETATM   11  C   UNL     1       4.345  27.031  47.638  1.00  0.00     0.002 C 
HETATM   12  C   UNL     1       3.184  28.026  47.676  1.00  0.00     0.002 C 
HETATM   13  C   UNL     1       3.295  29.015  48.839  1.00  0.00     0.027 C 
HETATM   14  H   UNL     1       2.944  29.983  51.362  1.00  0.00     0.163 HD
ENDROOT
BRANCH   1  15
HETATM   15  C   UNL     1       5.073  26.918  53.883  1.00  0.00     0.146 C 
BRANCH  15  16
HETATM   16  C   UNL     1       6.399  27.161  54.538  1.00  0.00     0.224 C 
HETATM   17  N   UNL     1       7.341  26.213  54.756  1.00  0.00    -0.327 N 
HETATM   18  H   UNL     1       8.081  26.577  55.351  1.00  0.00     0.169 HD
HETATM   19  O   UNL     1       6.541  28.247  55.119  1.00  0.00    -0.273 OA
BRANCH  17  20
HETATM   20  C   UNL     1       7.473  24.853  54.426  1.00  0.00     0.034 A 
HETATM   21  C   UNL     1       7.348  23.781  55.309  1.00  0.00     0.031 A 
HETATM   22  C   UNL     1       7.531  22.466  54.859  1.00  0.00     0.026 A 
HETATM   23  C   UNL     1       7.830  22.214  53.524  1.00  0.00     0.034 A 
HETATM   24  C   UNL     1       7.927  23.268  52.626  1.00  0.00     0.026 A 
HETATM   25 CL   UNL     1       8.067  20.601  52.985  1.00  0.00    -0.084 Cl
HETATM   26  C   UNL     1       7.736  24.579  53.074  1.00  0.00     0.031 A 
ENDBRANCH  17  20
ENDBRANCH  15  16
ENDBRANCH   1  15
TORSDOF 3
ENDMDL
MODEL 10
REMARK VINA RESULT:      -7.6      4.053      7.553
REMARK  3 active torsions:
REMARK  status: ('A' for Active; 'I' for Inactive)
REMARK    1  A    between atoms: C_2  and  N_3 
REMARK       I    between atoms: N_3  and  C_4 
REMARK    2  A    between atoms: C_4  and  C_5 
REMARK    3  A    between atoms: C_5  and  C_6 
ROOT
HETATM    1  C   UNL     1       6.465  24.765  55.027  1.00  0.00     0.286 C 
HETATM    2  N   UNL     1       7.316  23.821  54.167  1.00  0.00    -0.056 N 
HETATM    3  H   UNL     1       6.888  23.725  53.229  1.00  0.00     0.278 HD
HETATM    4  H   UNL     1       8.232  24.259  53.988  1.00  0.00     0.278 HD
HETATM    5  C   UNL     1       7.486  22.493  54.842  1.00  0.00     0.209 C 
HETATM    6  C   UNL     1       8.259  22.736  56.157  1.00  0.00     0.115 C 
HETATM    7  N   UNL     1       7.590  23.727  56.997  1.00  0.00    -0.353 N 
HETATM    8  C   UNL     1       6.977  24.853  56.484  1.00  0.00     0.249 C 
HETATM    9  O   UNL     1       6.778  25.828  57.199  1.00  0.00    -0.271 OA
HETATM   10  C   UNL     1       8.216  21.521  53.929  1.00  0.00     0.035 C 
HETATM   11  C   UNL     1       8.433  20.195  54.657  1.00  0.00     0.002 C 
HETATM   12  C   UNL     1       9.170  20.388  55.983  1.00  0.00     0.002 C 
HETATM   13  C   UNL     1       8.488  21.416  56.891  1.00  0.00     0.027 C 
HETATM   14  H   UNL     1       7.935  23.866  57.947  1.00  0.00     0.163 HD
ENDROOT
BRANCH   1  15
HETATM   15  C   UNL     1       6.407  26.141  54.374  1.00  0.00     0.146 C 
BRANCH  15  16
HETATM   16  C   UNL     1       5.122  26.225  53.605  1.00  0.00     0.224 C 
HETATM   17  N   UNL     1       4.197  27.204  53.747  1.00  0.00    -0.327 N 
HETATM   18  H   UNL     1       3.347  26.966  53.241  1.00  0.00     0.169 HD
HETATM   19  O   UNL     1       4.787  25.215  52.970  1.00  0.00    -0.273 OA
BRANCH  17  20
HETATM   20  C   UNL     1       4.121  28.395  54.489  1.00  0.00     0.034 A 
HETATM   21  C   UNL     1       4.156  28.497  55.879  1.00  0.00     0.031 A 
HETATM   22  C   UNL     1       4.042  29.749  56.502  1.00  0.00     0.026 A 
HETATM   23  C   UNL     1       3.902  30.904  55.739  1.00  0.00     0.034 A 
HETATM   24  C   UNL     1       3.897  30.822  54.353  1.00  0.00     0.026 A 
HETATM   25 CL   UNL     1       3.749  32.431  56.511  1.00  0.00    -0.084 Cl
HETATM   26  C   UNL     1       4.019  29.575  53.734  1.00  0.00     0.031 A 
ENDBRANCH  17  20
ENDBRANCH  15  16
ENDBRANCH   1  15
TORSDOF 3
ENDMDL
