MODEL 1
REMARK VINA RESULT:      -8.7      0.000      0.000
REMARK  3 active torsions:
REMARK  status: ('A' for Active; 'I' for Inactive)
REMARK    1  A    between atoms: C_9  and  C_10 
REMARK    2  A    between atoms: C_16  and  C_17 
REMARK       I    between atoms: C_17  and  N_18 
REMARK    3  A    between atoms: N_18  and  C_19 
ROOT
HETATM    1  C   UNL     1       4.958  24.923  52.517  1.00  0.00     0.070 C 
HETATM    2  C   UNL     1       4.951  26.177  53.356  1.00  0.00     0.037 C 
HETATM    3  N   UNL     1       4.417  27.308  52.742  1.00  0.00    -0.191 N 
HETATM    4  C   UNL     1       4.098  28.426  53.429  1.00  0.00     0.735 A 
HETATM    5  N   UNL     1       4.454  28.528  54.746  1.00  0.00    -0.092 N 
HETATM    6  N   UNL     1       3.981  29.671  55.267  1.00  0.00     0.012 NA
HETATM    7  N   UNL     1       3.377  30.276  54.248  1.00  0.00     0.033 NA
HETATM    8  N   UNL     1       3.442  29.511  53.098  1.00  0.00     0.030 NA
HETATM    9  C   UNL     1       5.206  27.515  55.483  1.00  0.00     0.198 C 
HETATM   10  C   UNL     1       5.352  26.242  54.652  1.00  0.00     0.062 C 
HETATM   11  H   UNL     1       4.038  27.197  51.805  1.00  0.00     0.184 HD
ENDROOT
BRANCH  10  12
HETATM   12  C   UNL     1       5.838  25.072  55.430  1.00  0.00     0.257 C 
HETATM   13  N   UNL     1       6.885  24.418  54.825  1.00  0.00    -0.308 N 
HETATM   14  H   UNL     1       7.260  24.804  53.971  1.00  0.00     0.170 HD
HETATM   15  O   UNL     1       5.311  24.842  56.510  1.00  0.00    -0.267 OA
BRANCH  13  16
HETATM   16  C   UNL     1       7.478  23.238  55.295  1.00  0.00     0.129 A 
HETATM   17  N   UNL     1       7.917  23.150  56.562  1.00  0.00    -0.243 NA
HETATM   18  C   UNL     1       8.460  21.981  56.967  1.00  0.00     0.119 A 
HETATM   19  C   UNL     1       8.578  20.868  56.155  1.00  0.00     0.019 A 
HETATM   20  C   UNL     1       8.117  20.965  54.850  1.00  0.00     0.005 A 
HETATM   21  C   UNL     1       7.563  22.166  54.411  1.00  0.00     0.050 A 
ENDBRANCH  13  16
ENDBRANCH  10  12
BRANCH   9  22
HETATM   22  C   UNL     1       6.562  28.064  55.919  1.00  0.00    -0.029 A 
HETATM   23  C   UNL     1       6.863  28.153  57.289  1.00  0.00     0.009 A 
HETATM   24  C   UNL     1       8.096  28.647  57.718  1.00  0.00     0.001 A 
HETATM   25  C   UNL     1       9.048  29.051  56.785  1.00  0.00     0.000 A 
HETATM   26  C   UNL     1       8.775  28.954  55.424  1.00  0.00     0.001 A 
HETATM   27  C   UNL     1       7.544  28.457  54.991  1.00  0.00     0.009 A 
ENDBRANCH   9  22
TORSDOF 3
ENDMDL
MODEL 2
REMARK VINA RESULT:      -8.5      2.619      5.419
REMARK  3 active torsions:
REMARK  status: ('A' for Active; 'I' for Inactive)
REMARK    1  A    between atoms: C_9  and  C_10 
REMARK    2  A    between atoms: C_16  and  C_17 
REMARK       I    between atoms: C_17  and  N_18 
REMARK    3  A    between atoms: N_18  and  C_19 
ROOT
HETATM    1  C   UNL     1       3.825  29.067  55.889  1.00  0.00     0.070 C 
HETATM    2  C   UNL     1       4.362  28.552  54.577  1.00  0.00     0.037 C 
HETATM    3  N   UNL     1       3.470  28.584  53.508  1.00  0.00    -0.191 N 
HETATM    4  C   UNL     1       3.863  28.412  52.228  1.00  0.00     0.735 A 
HETATM    5  N   UNL     1       5.150  28.030  51.967  1.00  0.00    -0.092 N 
HETATM    6  N   UNL     1       5.363  27.989  50.642  1.00  0.00     0.012 NA
HETATM    7  N   UNL     1       4.187  28.304  50.107  1.00  0.00     0.033 NA
HETATM    8  N   UNL     1       3.244  28.570  51.083  1.00  0.00     0.030 NA
HETATM    9  C   UNL     1       6.155  27.750  52.990  1.00  0.00     0.198 C 
HETATM   10  C   UNL     1       5.642  28.145  54.372  1.00  0.00     0.062 C 
HETATM   11  H   UNL     1       2.551  28.986  53.676  1.00  0.00     0.184 HD
ENDROOT
BRANCH  10  12
HETATM   12  C   UNL     1       6.698  28.172  55.418  1.00  0.00     0.257 C 
HETATM   13  N   UNL     1       7.357  29.376  55.490  1.00  0.00    -0.308 N 
HETATM   14  H   UNL     1       7.045  30.128  54.894  1.00  0.00     0.170 HD
HETATM   15  O   UNL     1       6.839  27.177  56.117  1.00  0.00    -0.267 OA
BRANCH  13  16
HETATM   16  C   UNL     1       8.450  29.648  56.325  1.00  0.00     0.129 A 
HETATM   17  N   UNL     1       8.260  30.071  57.586  1.00  0.00    -0.243 NA
HETATM   18  C   UNL     1       9.349  30.297  58.352  1.00  0.00     0.119 A 
HETATM   19  C   UNL     1      10.647  30.106  57.916  1.00  0.00     0.019 A 
HETATM   20  C   UNL     1      10.836  29.662  56.615  1.00  0.00     0.005 A 
HETATM   21  C   UNL     1       9.724  29.434  55.805  1.00  0.00     0.050 A 
ENDBRANCH  13  16
ENDBRANCH  10  12
BRANCH   9  22
HETATM   22  C   UNL     1       6.575  26.282  52.941  1.00  0.00    -0.029 A 
HETATM   23  C   UNL     1       5.643  25.286  53.278  1.00  0.00     0.009 A 
HETATM   24  C   UNL     1       5.997  23.936  53.239  1.00  0.00     0.001 A 
HETATM   25  C   UNL     1       7.282  23.562  52.856  1.00  0.00     0.000 A 
HETATM   26  C   UNL     1       8.214  24.535  52.501  1.00  0.00     0.001 A 
HETATM   27  C   UNL     1       7.863  25.886  52.535  1.00  0.00     0.009 A 
ENDBRANCH   9  22
TORSDOF 3
ENDMDL
MODEL 3
REMARK VINA RESULT:      -8.4      4.630      8.089
REMARK  3 active torsions:
REMARK  status: ('A' for Active; 'I' for Inactive)
REMARK    1  A    between atoms: C_9  and  C_10 
REMARK    2  A    between atoms: C_16  and  C_17 
REMARK       I    between atoms: C_17  and  N_18 
REMARK    3  A    between atoms: N_18  and  C_19 
ROOT
HETATM    1  C   UNL     1      10.207  30.505  58.074  1.00  0.00     0.070 C 
HETATM    2  C   UNL     1       8.921  29.786  57.748  1.00  0.00     0.037 C 
HETATM    3  N   UNL     1       9.050  28.666  56.929  1.00  0.00    -0.191 N 
HETATM    4  C   UNL     1       8.053  27.771  56.761  1.00  0.00     0.735 A 
HETATM    5  N   UNL     1       6.815  28.042  57.275  1.00  0.00    -0.092 N 
HETATM    6  N   UNL     1       5.990  27.003  57.070  1.00  0.00     0.012 NA
HETATM    7  N   UNL     1       6.724  26.124  56.394  1.00  0.00     0.033 NA
HETATM    8  N   UNL     1       8.010  26.590  56.194  1.00  0.00     0.030 NA
HETATM    9  C   UNL     1       6.460  29.271  57.980  1.00  0.00     0.198 C 
HETATM   10  C   UNL     1       7.704  30.114  58.252  1.00  0.00     0.062 C 
HETATM   11  H   UNL     1       9.989  28.394  56.651  1.00  0.00     0.184 HD
ENDROOT
BRANCH  10  12
HETATM   12  C   UNL     1       7.476  31.224  59.216  1.00  0.00     0.257 C 
HETATM   13  N   UNL     1       7.524  30.817  60.528  1.00  0.00    -0.308 N 
HETATM   14  H   UNL     1       7.758  29.855  60.722  1.00  0.00     0.170 HD
HETATM   15  O   UNL     1       7.323  32.351  58.767  1.00  0.00    -0.267 OA
BRANCH  13  16
HETATM   16  C   UNL     1       7.261  31.636  61.636  1.00  0.00     0.129 A 
HETATM   17  N   UNL     1       6.014  32.070  61.886  1.00  0.00    -0.243 NA
HETATM   18  C   UNL     1       5.816  32.837  62.979  1.00  0.00     0.119 A 
HETATM   19  C   UNL     1       6.820  33.192  63.861  1.00  0.00     0.019 A 
HETATM   20  C   UNL     1       8.104  32.734  63.600  1.00  0.00     0.005 A 
HETATM   21  C   UNL     1       8.330  31.950  62.470  1.00  0.00     0.050 A 
ENDBRANCH  13  16
ENDBRANCH  10  12
BRANCH   9  22
HETATM   22  C   UNL     1       5.407  30.054  57.198  1.00  0.00    -0.029 A 
HETATM   23  C   UNL     1       4.170  30.339  57.801  1.00  0.00     0.009 A 
HETATM   24  C   UNL     1       3.190  31.056  57.113  1.00  0.00     0.001 A 
HETATM   25  C   UNL     1       3.434  31.506  55.817  1.00  0.00     0.000 A 
HETATM   26  C   UNL     1       4.661  31.249  55.211  1.00  0.00     0.001 A 
HETATM   27  C   UNL     1       5.645  30.534  55.897  1.00  0.00     0.009 A 
ENDBRANCH   9  22
TORSDOF 3
ENDMDL
MODEL 4
REMARK VINA RESULT:      -8.3      2.085      6.875
REMARK  3 active torsions:
REMARK  status: ('A' for Active; 'I' for Inactive)
REMARK    1  A    between atoms: C_9  and  C_10 
REMARK    2  A    between atoms: C_16  and  C_17 
REMARK       I    between atoms: C_17  and  N_18 
REMARK    3  A    between atoms: N_18  and  C_19 
ROOT
HETATM    1  C   UNL     1       8.860  24.843  58.057  1.00  0.00     0.070 C 
HETATM    2  C   UNL     1       8.384  24.068  56.853  1.00  0.00     0.037 C 
HETATM    3  N   UNL     1       9.196  23.005  56.463  1.00  0.00    -0.191 N 
HETATM    4  C   UNL     1       8.787  22.063  55.587  1.00  0.00     0.735 A 
HETATM    5  N   UNL     1       7.601  22.230  54.926  1.00  0.00    -0.092 N 
HETATM    6  N   UNL     1       7.339  21.156  54.165  1.00  0.00     0.012 NA
HETATM    7  N   UNL     1       8.392  20.362  54.336  1.00  0.00     0.033 NA
HETATM    8  N   UNL     1       9.301  20.914  55.219  1.00  0.00     0.030 NA
HETATM    9  C   UNL     1       6.731  23.395  55.067  1.00  0.00     0.198 C 
HETATM   10  C   UNL     1       7.213  24.294  56.203  1.00  0.00     0.062 C 
HETATM   11  H   UNL     1      10.013  22.806  57.034  1.00  0.00     0.184 HD
ENDROOT
BRANCH  10  12
HETATM   12  C   UNL     1       6.228  25.332  56.604  1.00  0.00     0.257 C 
HETATM   13  N   UNL     1       6.534  26.582  56.121  1.00  0.00    -0.308 N 
HETATM   14  H   UNL     1       7.333  26.677  55.512  1.00  0.00     0.170 HD
HETATM   15  O   UNL     1       5.256  24.980  57.258  1.00  0.00    -0.267 OA
BRANCH  13  16
HETATM   16  C   UNL     1       5.826  27.756  56.415  1.00  0.00     0.129 A 
HETATM   17  N   UNL     1       4.606  27.969  55.892  1.00  0.00    -0.243 NA
HETATM   18  C   UNL     1       3.961  29.107  56.228  1.00  0.00     0.119 A 
HETATM   19  C   UNL     1       4.478  30.058  57.088  1.00  0.00     0.019 A 
HETATM   20  C   UNL     1       5.735  29.828  57.629  1.00  0.00     0.005 A 
HETATM   21  C   UNL     1       6.421  28.664  57.286  1.00  0.00     0.050 A 
ENDBRANCH  13  16
ENDBRANCH  10  12
BRANCH   9  22
HETATM   22  C   UNL     1       6.634  24.155  53.746  1.00  0.00    -0.029 A 
HETATM   23  C   UNL     1       5.376  24.580  53.284  1.00  0.00     0.009 A 
HETATM   24  C   UNL     1       5.257  25.281  52.083  1.00  0.00     0.001 A 
HETATM   25  C   UNL     1       6.392  25.574  51.331  1.00  0.00     0.000 A 
HETATM   26  C   UNL     1       7.649  25.178  51.782  1.00  0.00     0.001 A 
HETATM   27  C   UNL     1       7.772  24.480  52.985  1.00  0.00     0.009 A 
ENDBRANCH   9  22
TORSDOF 3
ENDMDL
MODEL 5
REMARK VINA RESULT:      -8.1      1.397      2.018
REMARK  3 active torsions:
REMARK  status: ('A' for Active; 'I' for Inactive)
REMARK    1  A    between atoms: C_9  and  C_10 
REMARK    2  A    between atoms: C_16  and  C_17 
REMARK       I    between atoms: C_17  and  N_18 
REMARK    3  A    between atoms: N_18  and  C_19 
ROOT
HETATM    1  C   UNL     1       5.048  26.126  52.262  1.00  0.00     0.070 C 
HETATM    2  C   UNL     1       5.303  26.897  53.534  1.00  0.00     0.037 C 
HETATM    3  N   UNL     1       4.455  27.978  53.761  1.00  0.00    -0.191 N 
HETATM    4  C   UNL     1       4.377  28.601  54.958  1.00  0.00     0.735 A 
HETATM    5  N   UNL     1       5.269  28.276  55.942  1.00  0.00    -0.092 N 
HETATM    6  N   UNL     1       4.978  28.943  57.070  1.00  0.00     0.012 NA
HETATM    7  N   UNL     1       3.934  29.702  56.747  1.00  0.00     0.033 NA
HETATM    8  N   UNL     1       3.550  29.498  55.435  1.00  0.00     0.030 NA
HETATM    9  C   UNL     1       6.355  27.311  55.792  1.00  0.00     0.198 C 
HETATM   10  C   UNL     1       6.229  26.560  54.468  1.00  0.00     0.062 C 
HETATM   11  H   UNL     1       3.711  28.141  53.088  1.00  0.00     0.184 HD
ENDROOT
BRANCH  10  12
HETATM   12  C   UNL     1       7.110  25.366  54.371  1.00  0.00     0.257 C 
HETATM   13  N   UNL     1       6.653  24.297  55.105  1.00  0.00    -0.308 N 
HETATM   14  H   UNL     1       5.768  24.387  55.579  1.00  0.00     0.170 HD
HETATM   15  O   UNL     1       8.089  25.433  53.640  1.00  0.00    -0.267 OA
BRANCH  13  16
HETATM   16  C   UNL     1       7.329  23.078  55.260  1.00  0.00     0.129 A 
HETATM   17  N   UNL     1       7.513  22.259  54.211  1.00  0.00    -0.243 NA
HETATM   18  C   UNL     1       8.190  21.109  54.415  1.00  0.00     0.119 A 
HETATM   19  C   UNL     1       8.715  20.732  55.638  1.00  0.00     0.019 A 
HETATM   20  C   UNL     1       8.527  21.587  56.715  1.00  0.00     0.005 A 
HETATM   21  C   UNL     1       7.821  22.775  56.526  1.00  0.00     0.050 A 
ENDBRANCH  13  16
ENDBRANCH  10  12
BRANCH   9  22
HETATM   22  C   UNL     1       7.710  28.003  55.923  1.00  0.00    -0.029 A 
HETATM   23  C   UNL     1       8.283  28.618  54.796  1.00  0.00     0.009 A 
HETATM   24  C   UNL     1       9.518  29.262  54.885  1.00  0.00     0.001 A 
HETATM   25  C   UNL     1      10.195  29.307  56.102  1.00  0.00     0.000 A 
HETATM   26  C   UNL     1       9.635  28.719  57.233  1.00  0.00     0.001 A 
HETATM   27  C   UNL     1       8.397  28.077  57.148  1.00  0.00     0.009 A 
ENDBRANCH   9  22
TORSDOF 3
ENDMDL
MODEL 6
REMARK VINA RESULT:      -8.1      3.152      5.445
REMARK  3 active torsions:
REMARK  status: ('A' for Active; 'I' for Inactive)
REMARK    1  A    between atoms: C_9  and  C_10 
REMARK    2  A    between atoms: C_16  and  C_17 
REMARK       I    between atoms: C_17  and  N_18 
REMARK    3  A    between atoms: N_18  and  C_19 
ROOT
HETATM    1  C   UNL     1       4.315  28.936  54.612  1.00  0.00     0.070 C 
HETATM    2  C   UNL     1       4.630  29.115  53.148  1.00  0.00     0.037 C 
HETATM    3  N   UNL     1       4.591  30.426  52.680  1.00  0.00    -0.191 N 
HETATM    4  C   UNL     1       5.098  30.786  51.481  1.00  0.00     0.735 A 
HETATM    5  N   UNL     1       5.520  29.816  50.614  1.00  0.00    -0.092 N 
HETATM    6  N   UNL     1       6.057  30.375  49.518  1.00  0.00     0.012 NA
HETATM    7  N   UNL     1       5.917  31.683  49.710  1.00  0.00     0.033 NA
HETATM    8  N   UNL     1       5.321  31.953  50.928  1.00  0.00     0.030 NA
HETATM    9  C   UNL     1       5.433  28.380  50.869  1.00  0.00     0.198 C 
HETATM   10  C   UNL     1       5.008  28.114  52.312  1.00  0.00     0.062 C 
HETATM   11  H   UNL     1       4.400  31.160  53.358  1.00  0.00     0.184 HD
ENDROOT
BRANCH  10  12
HETATM   12  C   UNL     1       5.183  26.700  52.736  1.00  0.00     0.257 C 
HETATM   13  N   UNL     1       6.469  26.406  53.122  1.00  0.00    -0.308 N 
HETATM   14  H   UNL     1       7.144  27.155  53.142  1.00  0.00     0.170 HD
HETATM   15  O   UNL     1       4.195  25.977  52.745  1.00  0.00    -0.267 OA
BRANCH  13  16
HETATM   16  C   UNL     1       6.931  25.133  53.487  1.00  0.00     0.129 A 
HETATM   17  N   UNL     1       6.779  24.684  54.744  1.00  0.00    -0.243 NA
HETATM   18  C   UNL     1       7.223  23.442  55.033  1.00  0.00     0.119 A 
HETATM   19  C   UNL     1       7.813  22.602  54.106  1.00  0.00     0.019 A 
HETATM   20  C   UNL     1       7.959  23.071  52.808  1.00  0.00     0.005 A 
HETATM   21  C   UNL     1       7.517  24.355  52.493  1.00  0.00     0.050 A 
ENDBRANCH  13  16
ENDBRANCH  10  12
BRANCH   9  22
HETATM   22  C   UNL     1       4.488  27.714  49.871  1.00  0.00    -0.029 A 
HETATM   23  C   UNL     1       3.203  28.248  49.673  1.00  0.00     0.009 A 
HETATM   24  C   UNL     1       2.320  27.664  48.764  1.00  0.00     0.001 A 
HETATM   25  C   UNL     1       2.710  26.543  48.035  1.00  0.00     0.000 A 
HETATM   26  C   UNL     1       3.985  26.010  48.204  1.00  0.00     0.001 A 
HETATM   27  C   UNL     1       4.873  26.595  49.110  1.00  0.00     0.009 A 
ENDBRANCH   9  22
TORSDOF 3
ENDMDL
MODEL 7
REMARK VINA RESULT:      -7.8      3.866      6.727
REMARK  3 active torsions:
REMARK  status: ('A' for Active; 'I' for Inactive)
REMARK    1  A    between atoms: C_9  and  C_10 
REMARK    2  A    between atoms: C_16  and  C_17 
REMARK       I    between atoms: C_17  and  N_18 
REMARK    3  A    between atoms: N_18  and  C_19 
ROOT
HETATM    1  C   UNL     1       9.903  29.322  55.578  1.00  0.00     0.070 C 
HETATM    2  C   UNL     1       8.449  28.984  55.360  1.00  0.00     0.037 C 
HETATM    3  N   UNL     1       8.114  28.575  54.071  1.00  0.00    -0.191 N 
HETATM    4  C   UNL     1       6.932  27.991  53.777  1.00  0.00     0.735 A 
HETATM    5  N   UNL     1       5.955  27.940  54.732  1.00  0.00    -0.092 N 
HETATM    6  N   UNL     1       4.893  27.257  54.274  1.00  0.00     0.012 NA
HETATM    7  N   UNL     1       5.219  26.936  53.025  1.00  0.00     0.033 NA
HETATM    8  N   UNL     1       6.486  27.387  52.703  1.00  0.00     0.030 NA
HETATM    9  C   UNL     1       6.072  28.512  56.071  1.00  0.00     0.198 C 
HETATM   10  C   UNL     1       7.501  28.983  56.332  1.00  0.00     0.062 C 
HETATM   11  H   UNL     1       8.869  28.494  53.394  1.00  0.00     0.184 HD
ENDROOT
BRANCH  10  12
HETATM   12  C   UNL     1       7.776  29.301  57.758  1.00  0.00     0.257 C 
HETATM   13  N   UNL     1       7.701  30.645  58.036  1.00  0.00    -0.308 N 
HETATM   14  H   UNL     1       7.420  31.271  57.297  1.00  0.00     0.170 HD
HETATM   15  O   UNL     1       7.986  28.370  58.524  1.00  0.00    -0.267 OA
BRANCH  13  16
HETATM   16  C   UNL     1       7.996  31.230  59.276  1.00  0.00     0.129 A 
HETATM   17  N   UNL     1       7.011  31.578  60.121  1.00  0.00    -0.243 NA
HETATM   18  C   UNL     1       7.354  32.117  61.310  1.00  0.00     0.119 A 
HETATM   19  C   UNL     1       8.661  32.319  61.713  1.00  0.00     0.019 A 
HETATM   20  C   UNL     1       9.674  31.950  60.838  1.00  0.00     0.005 A 
HETATM   21  C   UNL     1       9.338  31.402  59.601  1.00  0.00     0.050 A 
ENDBRANCH  13  16
ENDBRANCH  10  12
BRANCH   9  22
HETATM   22  C   UNL     1       5.061  29.641  56.263  1.00  0.00    -0.029 A 
HETATM   23  C   UNL     1       4.969  30.657  55.296  1.00  0.00     0.009 A 
HETATM   24  C   UNL     1       4.052  31.699  55.443  1.00  0.00     0.001 A 
HETATM   25  C   UNL     1       3.209  31.737  56.550  1.00  0.00     0.000 A 
HETATM   26  C   UNL     1       3.273  30.729  57.509  1.00  0.00     0.001 A 
HETATM   27  C   UNL     1       4.187  29.683  57.365  1.00  0.00     0.009 A 
ENDBRANCH   9  22
TORSDOF 3
ENDMDL
MODEL 8
REMARK VINA RESULT:      -7.5      2.670      5.989
REMARK  3 active torsions:
REMARK  status: ('A' for Active; 'I' for Inactive)
REMARK    1  A    between atoms: C_9  and  C_10 
REMARK    2  A    between atoms: C_16  and  C_17 
REMARK       I    between atoms: C_17  and  N_18 
REMARK    3  A    between atoms: N_18  and  C_19 
ROOT
HETATM    1  C   UNL     1       7.185  22.648  53.103  1.00  0.00     0.070 C 
HETATM    2  C   UNL     1       7.405  23.629  54.228  1.00  0.00     0.037 C 
HETATM    3  N   UNL     1       7.653  23.065  55.477  1.00  0.00    -0.191 N 
HETATM    4  C   UNL     1       8.126  23.785  56.518  1.00  0.00     0.735 A 
HETATM    5  N   UNL     1       8.214  25.145  56.407  1.00  0.00    -0.092 N 
HETATM    6  N   UNL     1       8.775  25.665  57.511  1.00  0.00     0.012 NA
HETATM    7  N   UNL     1       8.983  24.617  58.302  1.00  0.00     0.033 NA
HETATM    8  N   UNL     1       8.583  23.440  57.696  1.00  0.00     0.030 NA
HETATM    9  C   UNL     1       7.794  25.911  55.236  1.00  0.00     0.198 C 
HETATM   10  C   UNL     1       7.446  24.978  54.078  1.00  0.00     0.062 C 
HETATM   11  H   UNL     1       7.711  22.051  55.530  1.00  0.00     0.184 HD
ENDROOT
BRANCH  10  12
HETATM   12  C   UNL     1       7.299  25.674  52.773  1.00  0.00     0.257 C 
HETATM   13  N   UNL     1       6.023  26.133  52.547  1.00  0.00    -0.308 N 
HETATM   14  H   UNL     1       5.337  26.018  53.278  1.00  0.00     0.170 HD
HETATM   15  O   UNL     1       8.296  25.807  52.077  1.00  0.00    -0.267 OA
BRANCH  13  16
HETATM   16  C   UNL     1       5.584  26.747  51.365  1.00  0.00     0.129 A 
HETATM   17  N   UNL     1       5.785  28.060  51.160  1.00  0.00    -0.243 NA
HETATM   18  C   UNL     1       5.361  28.594  49.995  1.00  0.00     0.119 A 
HETATM   19  C   UNL     1       4.745  27.864  48.995  1.00  0.00     0.019 A 
HETATM   20  C   UNL     1       4.548  26.507  49.210  1.00  0.00     0.005 A 
HETATM   21  C   UNL     1       4.969  25.940  50.412  1.00  0.00     0.050 A 
ENDBRANCH  13  16
ENDBRANCH  10  12
BRANCH   9  22
HETATM   22  C   UNL     1       6.630  26.834  55.588  1.00  0.00    -0.029 A 
HETATM   23  C   UNL     1       6.708  28.199  55.261  1.00  0.00     0.009 A 
HETATM   24  C   UNL     1       5.657  29.067  55.566  1.00  0.00     0.001 A 
HETATM   25  C   UNL     1       4.512  28.582  56.193  1.00  0.00     0.000 A 
HETATM   26  C   UNL     1       4.409  27.230  56.508  1.00  0.00     0.001 A 
HETATM   27  C   UNL     1       5.457  26.358  56.201  1.00  0.00     0.009 A 
ENDBRANCH   9  22
TORSDOF 3
ENDMDL
MODEL 9
REMARK VINA RESULT:      -7.4      3.252      5.903
REMARK  3 active torsions:
REMARK  status: ('A' for Active; 'I' for Inactive)
REMARK    1  A    between atoms: C_9  and  C_10 
REMARK    2  A    between atoms: C_16  and  C_17 
REMARK       I    between atoms: C_17  and  N_18 
REMARK    3  A    between atoms: N_18  and  C_19 
ROOT
HETATM    1  C   UNL     1       5.452  24.915  54.585  1.00  0.00     0.070 C 
HETATM    2  C   UNL     1       5.840  26.261  55.144  1.00  0.00     0.037 C 
HETATM    3  N   UNL     1       6.570  26.231  56.330  1.00  0.00    -0.191 N 
HETATM    4  C   UNL     1       7.214  27.315  56.815  1.00  0.00     0.735 A 
HETATM    5  N   UNL     1       7.018  28.532  56.221  1.00  0.00    -0.092 N 
HETATM    6  N   UNL     1       7.800  29.459  56.797  1.00  0.00     0.012 NA
HETATM    7  N   UNL     1       8.433  28.805  57.766  1.00  0.00     0.033 NA
HETATM    8  N   UNL     1       8.077  27.470  57.788  1.00  0.00     0.030 NA
HETATM    9  C   UNL     1       6.118  28.771  55.096  1.00  0.00     0.198 C 
HETATM   10  C   UNL     1       5.590  27.451  54.538  1.00  0.00     0.062 C 
HETATM   11  H   UNL     1       6.822  25.319  56.703  1.00  0.00     0.184 HD
ENDROOT
BRANCH  10  12
HETATM   12  C   UNL     1       4.913  27.585  53.222  1.00  0.00     0.257 C 
HETATM   13  N   UNL     1       5.771  27.454  52.157  1.00  0.00    -0.308 N 
HETATM   14  H   UNL     1       6.736  27.228  52.345  1.00  0.00     0.170 HD
HETATM   15  O   UNL     1       3.699  27.745  53.214  1.00  0.00    -0.267 OA
BRANCH  13  16
HETATM   16  C   UNL     1       5.417  27.620  50.810  1.00  0.00     0.129 A 
HETATM   17  N   UNL     1       5.564  28.811  50.205  1.00  0.00    -0.243 NA
HETATM   18  C   UNL     1       5.228  28.907  48.901  1.00  0.00     0.119 A 
HETATM   19  C   UNL     1       4.752  27.848  48.150  1.00  0.00     0.019 A 
HETATM   20  C   UNL     1       4.608  26.619  48.780  1.00  0.00     0.005 A 
HETATM   21  C   UNL     1       4.941  26.503  50.130  1.00  0.00     0.050 A 
ENDBRANCH  13  16
ENDBRANCH  10  12
BRANCH   9  22
HETATM   22  C   UNL     1       4.981  29.704  55.508  1.00  0.00    -0.029 A 
HETATM   23  C   UNL     1       4.706  30.842  54.729  1.00  0.00     0.009 A 
HETATM   24  C   UNL     1       3.671  31.711  55.077  1.00  0.00     0.001 A 
HETATM   25  C   UNL     1       2.891  31.453  56.202  1.00  0.00     0.000 A 
HETATM   26  C   UNL     1       3.137  30.321  56.975  1.00  0.00     0.001 A 
HETATM   27  C   UNL     1       4.170  29.447  56.628  1.00  0.00     0.009 A 
ENDBRANCH   9  22
TORSDOF 3
ENDMDL
MODEL 10
REMARK VINA RESULT:      -7.4      8.635     11.572
REMARK  3 active torsions:
REMARK  status: ('A' for Active; 'I' for Inactive)
REMARK    1  A    between atoms: C_9  and  C_10 
REMARK    2  A    between atoms: C_16  and  C_17 
REMARK       I    between atoms: C_17  and  N_18 
REMARK    3  A    between atoms: N_18  and  C_19 
ROOT
HETATM    1  C   UNL     1       3.165  36.971  61.689  1.00  0.00     0.070 C 
HETATM    2  C   UNL     1       3.628  35.990  62.738  1.00  0.00     0.037 C 
HETATM    3  N   UNL     1       3.742  36.501  64.029  1.00  0.00    -0.191 N 
HETATM    4  C   UNL     1       3.884  35.709  65.114  1.00  0.00     0.735 A 
HETATM    5  N   UNL     1       4.088  34.368  64.942  1.00  0.00    -0.092 N 
HETATM    6  N   UNL     1       4.127  33.749  66.133  1.00  0.00     0.012 NA
HETATM    7  N   UNL     1       3.989  34.728  67.021  1.00  0.00     0.033 NA
HETATM    8  N   UNL     1       3.837  35.954  66.400  1.00  0.00     0.030 NA
HETATM    9  C   UNL     1       4.205  33.705  63.645  1.00  0.00     0.198 C 
HETATM   10  C   UNL     1       3.856  34.670  62.514  1.00  0.00     0.062 C 
HETATM   11  H   UNL     1       3.468  37.469  64.176  1.00  0.00     0.184 HD
ENDROOT
BRANCH  10  12
HETATM   12  C   UNL     1       3.662  34.006  61.199  1.00  0.00     0.257 C 
HETATM   13  N   UNL     1       4.733  34.163  60.351  1.00  0.00    -0.308 N 
HETATM   14  H   UNL     1       5.550  34.643  60.697  1.00  0.00     0.170 HD
HETATM   15  O   UNL     1       2.631  33.370  61.023  1.00  0.00    -0.267 OA
BRANCH  13  16
HETATM   16  C   UNL     1       4.783  33.714  59.024  1.00  0.00     0.129 A 
HETATM   17  N   UNL     1       4.476  34.540  58.010  1.00  0.00    -0.243 NA
HETATM   18  C   UNL     1       4.562  34.061  56.750  1.00  0.00     0.119 A 
HETATM   19  C   UNL     1       4.961  32.772  56.445  1.00  0.00     0.019 A 
HETATM   20  C   UNL     1       5.283  31.927  57.497  1.00  0.00     0.005 A 
HETATM   21  C   UNL     1       5.189  32.401  58.805  1.00  0.00     0.050 A 
ENDBRANCH  13  16
ENDBRANCH  10  12
BRANCH   9  22
HETATM   22  C   UNL     1       5.600  33.110  63.470  1.00  0.00    -0.029 A 
HETATM   23  C   UNL     1       5.753  31.908  62.757  1.00  0.00     0.009 A 
HETATM   24  C   UNL     1       7.016  31.342  62.577  1.00  0.00     0.001 A 
HETATM   25  C   UNL     1       8.144  31.972  63.099  1.00  0.00     0.000 A 
HETATM   26  C   UNL     1       8.014  33.172  63.793  1.00  0.00     0.001 A 
HETATM   27  C   UNL     1       6.752  33.743  63.972  1.00  0.00     0.009 A 
ENDBRANCH   9  22
TORSDOF 3
ENDMDL
