MODEL 1
REMARK VINA RESULT:      -9.8      0.000      0.000
REMARK  5 active torsions:
REMARK  status: ('A' for Active; 'I' for Inactive)
REMARK    1  A    between atoms: C_5  and  S_6 
REMARK    2  A    between atoms: S_6  and  C_7 
REMARK    3  A    between atoms: C_7  and  C_8 
REMARK       I    between atoms: C_8  and  N_9 
REMARK    4  A    between atoms: N_9  and  N_10 
REMARK       I    between atoms: N_10  and  C_11 
REMARK    5  A    between atoms: C_11  and  C_12 
ROOT
HETATM    1  N   UNL     1       7.212  29.094  58.345  1.00  0.00    -0.262 N 
HETATM    2  C   UNL     1       8.256  29.925  58.690  1.00  0.00     0.286 C 
HETATM    3  O   UNL     1       9.289  29.986  58.024  1.00  0.00    -0.264 OA
HETATM    4  H   UNL     1       6.322  29.083  58.837  1.00  0.00     0.190 HD
ENDROOT
BRANCH   1   5
HETATM    5  N   UNL     1       7.266  28.383  57.142  1.00  0.00    -0.267 N 
HETATM    6  C   UNL     1       7.613  27.048  57.200  1.00  0.00     0.245 C 
HETATM    7  O   UNL     1       7.740  26.451  58.271  1.00  0.00    -0.271 OA
HETATM    8  H   UNL     1       7.356  28.929  56.284  1.00  0.00     0.190 HD
BRANCH   6   9
HETATM    9  C   UNL     1       7.716  26.345  55.861  1.00  0.00     0.184 C 
BRANCH   9  10
HETATM   10  S   UNL     1       6.213  25.373  55.512  1.00  0.00    -0.121 SA
BRANCH  10  11
HETATM   11  C   UNL     1       6.954  23.932  54.765  1.00  0.00     0.001 A 
HETATM   12  C   UNL     1       7.323  22.855  55.575  1.00  0.00     0.019 A 
HETATM   13  C   UNL     1       7.894  21.709  55.013  1.00  0.00     0.008 A 
HETATM   14  C   UNL     1       8.102  21.624  53.632  1.00  0.00    -0.062 A 
HETATM   15  C   UNL     1       8.699  20.395  53.014  1.00  0.00     0.048 C 
HETATM   16  C   UNL     1       7.714  22.696  52.821  1.00  0.00     0.008 A 
HETATM   17  C   UNL     1       7.140  23.840  53.383  1.00  0.00     0.019 A 
ENDBRANCH  10  11
ENDBRANCH   9  10
ENDBRANCH   6   9
ENDBRANCH   1   5
BRANCH   2  18
HETATM   18  C   UNL     1       8.048  30.722  59.878  1.00  0.00     0.103 A 
HETATM   19  N   UNL     1       6.949  31.545  60.008  1.00  0.00    -0.351 N 
HETATM   20  H   UNL     1       6.238  31.647  59.294  1.00  0.00     0.166 HD
HETATM   21  C   UNL     1       6.949  32.184  61.223  1.00  0.00     0.043 A 
HETATM   22  C   UNL     1       8.095  31.772  61.899  1.00  0.00    -0.007 A 
HETATM   23  C   UNL     1       6.031  33.087  61.773  1.00  0.00     0.030 A 
HETATM   24  C   UNL     1       8.778  30.860  61.048  1.00  0.00     0.049 A 
HETATM   25  C   UNL     1       8.345  32.284  63.187  1.00  0.00     0.014 A 
HETATM   26  C   UNL     1       7.437  33.187  63.752  1.00  0.00     0.001 A 
HETATM   27  C   UNL     1       6.298  33.581  63.053  1.00  0.00     0.002 A 
ENDBRANCH   2  18
TORSDOF 5
ENDMDL
MODEL 2
REMARK VINA RESULT:      -9.8      2.154     10.610
REMARK  5 active torsions:
REMARK  status: ('A' for Active; 'I' for Inactive)
REMARK    1  A    between atoms: C_5  and  S_6 
REMARK    2  A    between atoms: S_6  and  C_7 
REMARK    3  A    between atoms: C_7  and  C_8 
REMARK       I    between atoms: C_8  and  N_9 
REMARK    4  A    between atoms: N_9  and  N_10 
REMARK       I    between atoms: N_10  and  C_11 
REMARK    5  A    between atoms: C_11  and  C_12 
ROOT
HETATM    1  N   UNL     1       6.992  26.156  56.869  1.00  0.00    -0.262 N 
HETATM    2  C   UNL     1       6.621  25.885  55.570  1.00  0.00     0.286 C 
HETATM    3  O   UNL     1       5.994  26.696  54.888  1.00  0.00    -0.264 OA
HETATM    4  H   UNL     1       7.574  25.534  57.424  1.00  0.00     0.190 HD
ENDROOT
BRANCH   1   5
HETATM    5  N   UNL     1       6.759  27.428  57.402  1.00  0.00    -0.267 N 
HETATM    6  C   UNL     1       7.848  28.257  57.586  1.00  0.00     0.245 C 
HETATM    7  O   UNL     1       8.972  27.960  57.178  1.00  0.00    -0.271 OA
HETATM    8  H   UNL     1       5.882  27.566  57.905  1.00  0.00     0.190 HD
BRANCH   6   9
HETATM    9  C   UNL     1       7.543  29.598  58.223  1.00  0.00     0.184 C 
BRANCH   9  10
HETATM   10  S   UNL     1       9.070  30.547  58.522  1.00  0.00    -0.121 SA
BRANCH  10  11
HETATM   11  C   UNL     1       8.699  31.214  60.134  1.00  0.00     0.001 A 
HETATM   12  C   UNL     1       7.928  32.375  60.234  1.00  0.00     0.019 A 
HETATM   13  C   UNL     1       7.613  32.911  61.486  1.00  0.00     0.008 A 
HETATM   14  C   UNL     1       8.062  32.292  62.656  1.00  0.00    -0.062 A 
HETATM   15  C   UNL     1       7.719  32.846  64.007  1.00  0.00     0.048 C 
HETATM   16  C   UNL     1       8.819  31.119  62.555  1.00  0.00     0.008 A 
HETATM   17  C   UNL     1       9.131  30.581  61.304  1.00  0.00     0.019 A 
ENDBRANCH  10  11
ENDBRANCH   9  10
ENDBRANCH   6   9
ENDBRANCH   1   5
BRANCH   2  18
HETATM   18  C   UNL     1       7.028  24.594  55.065  1.00  0.00     0.103 A 
HETATM   19  N   UNL     1       7.294  23.541  55.915  1.00  0.00    -0.351 N 
HETATM   20  H   UNL     1       7.231  23.606  56.923  1.00  0.00     0.166 HD
HETATM   21  C   UNL     1       7.639  22.412  55.214  1.00  0.00     0.043 A 
HETATM   22  C   UNL     1       7.609  22.748  53.863  1.00  0.00    -0.007 A 
HETATM   23  C   UNL     1       7.972  21.129  55.667  1.00  0.00     0.030 A 
HETATM   24  C   UNL     1       7.229  24.116  53.780  1.00  0.00     0.049 A 
HETATM   25  C   UNL     1       7.928  21.760  52.910  1.00  0.00     0.014 A 
HETATM   26  C   UNL     1       8.262  20.473  53.345  1.00  0.00     0.001 A 
HETATM   27  C   UNL     1       8.284  20.165  54.704  1.00  0.00     0.002 A 
ENDBRANCH   2  18
TORSDOF 5
ENDMDL
MODEL 3
REMARK VINA RESULT:      -9.5      0.996      1.469
REMARK  5 active torsions:
REMARK  status: ('A' for Active; 'I' for Inactive)
REMARK    1  A    between atoms: C_5  and  S_6 
REMARK    2  A    between atoms: S_6  and  C_7 
REMARK    3  A    between atoms: C_7  and  C_8 
REMARK       I    between atoms: C_8  and  N_9 
REMARK    4  A    between atoms: N_9  and  N_10 
REMARK       I    between atoms: N_10  and  C_11 
REMARK    5  A    between atoms: C_11  and  C_12 
ROOT
HETATM    1  N   UNL     1       7.483  29.395  58.075  1.00  0.00    -0.262 N 
HETATM    2  C   UNL     1       6.814  30.600  58.118  1.00  0.00     0.286 C 
HETATM    3  O   UNL     1       6.207  31.044  57.144  1.00  0.00    -0.264 OA
HETATM    4  H   UNL     1       7.927  28.974  58.887  1.00  0.00     0.190 HD
ENDROOT
BRANCH   1   5
HETATM    5  N   UNL     1       7.379  28.589  56.936  1.00  0.00    -0.267 N 
HETATM    6  C   UNL     1       7.671  27.247  57.070  1.00  0.00     0.245 C 
HETATM    7  O   UNL     1       7.885  26.731  58.168  1.00  0.00    -0.271 OA
HETATM    8  H   UNL     1       7.401  29.061  56.031  1.00  0.00     0.190 HD
BRANCH   6   9
HETATM    9  C   UNL     1       7.601  26.436  55.791  1.00  0.00     0.184 C 
BRANCH   9  10
HETATM   10  S   UNL     1       6.195  25.276  55.825  1.00  0.00    -0.121 SA
BRANCH  10  11
HETATM   11  C   UNL     1       6.924  23.896  54.961  1.00  0.00     0.001 A 
HETATM   12  C   UNL     1       7.351  22.782  55.689  1.00  0.00     0.019 A 
HETATM   13  C   UNL     1       7.914  21.682  55.034  1.00  0.00     0.008 A 
HETATM   14  C   UNL     1       8.056  21.680  53.643  1.00  0.00    -0.062 A 
HETATM   15  C   UNL     1       8.643  20.501  52.926  1.00  0.00     0.048 C 
HETATM   16  C   UNL     1       7.610  22.789  52.915  1.00  0.00     0.008 A 
HETATM   17  C   UNL     1       7.044  23.886  53.569  1.00  0.00     0.019 A 
ENDBRANCH  10  11
ENDBRANCH   9  10
ENDBRANCH   6   9
ENDBRANCH   1   5
BRANCH   2  18
HETATM   18  C   UNL     1       6.869  31.294  59.384  1.00  0.00     0.103 A 
HETATM   19  N   UNL     1       7.644  30.830  60.426  1.00  0.00    -0.351 N 
HETATM   20  H   UNL     1       8.206  29.989  60.374  1.00  0.00     0.166 HD
HETATM   21  C   UNL     1       7.557  31.660  61.517  1.00  0.00     0.043 A 
HETATM   22  C   UNL     1       6.684  32.689  61.176  1.00  0.00    -0.007 A 
HETATM   23  C   UNL     1       8.179  31.579  62.769  1.00  0.00     0.030 A 
HETATM   24  C   UNL     1       6.256  32.450  59.841  1.00  0.00     0.049 A 
HETATM   25  C   UNL     1       6.412  33.692  62.127  1.00  0.00     0.014 A 
HETATM   26  C   UNL     1       7.025  33.628  63.383  1.00  0.00     0.001 A 
HETATM   27  C   UNL     1       7.895  32.585  63.697  1.00  0.00     0.002 A 
ENDBRANCH   2  18
TORSDOF 5
ENDMDL
MODEL 4
REMARK VINA RESULT:      -9.3      1.519      1.903
REMARK  5 active torsions:
REMARK  status: ('A' for Active; 'I' for Inactive)
REMARK    1  A    between atoms: C_5  and  S_6 
REMARK    2  A    between atoms: S_6  and  C_7 
REMARK    3  A    between atoms: C_7  and  C_8 
REMARK       I    between atoms: C_8  and  N_9 
REMARK    4  A    between atoms: N_9  and  N_10 
REMARK       I    between atoms: N_10  and  C_11 
REMARK    5  A    between atoms: C_11  and  C_12 
ROOT
HETATM    1  N   UNL     1       6.668  28.929  57.727  1.00  0.00    -0.262 N 
HETATM    2  C   UNL     1       7.780  29.661  58.083  1.00  0.00     0.286 C 
HETATM    3  O   UNL     1       8.839  29.584  57.460  1.00  0.00    -0.264 OA
HETATM    4  H   UNL     1       5.763  29.033  58.180  1.00  0.00     0.190 HD
ENDROOT
BRANCH   1   5
HETATM    5  N   UNL     1       6.693  28.162  56.558  1.00  0.00    -0.267 N 
HETATM    6  C   UNL     1       5.485  27.857  55.963  1.00  0.00     0.245 C 
HETATM    7  O   UNL     1       4.423  28.346  56.353  1.00  0.00    -0.271 OA
HETATM    8  H   UNL     1       7.538  27.617  56.379  1.00  0.00     0.190 HD
BRANCH   6   9
HETATM    9  C   UNL     1       5.571  26.973  54.735  1.00  0.00     0.184 C 
BRANCH   9  10
HETATM   10  S   UNL     1       7.270  26.928  54.075  1.00  0.00    -0.121 SA
BRANCH  10  11
HETATM   11  C   UNL     1       7.479  25.164  53.904  1.00  0.00     0.001 A 
HETATM   12  C   UNL     1       7.262  24.339  55.011  1.00  0.00     0.019 A 
HETATM   13  C   UNL     1       7.407  22.953  54.899  1.00  0.00     0.008 A 
HETATM   14  C   UNL     1       7.769  22.373  53.679  1.00  0.00    -0.062 A 
HETATM   15  C   UNL     1       7.913  20.886  53.542  1.00  0.00     0.048 C 
HETATM   16  C   UNL     1       7.967  23.200  52.568  1.00  0.00     0.008 A 
HETATM   17  C   UNL     1       7.818  24.585  52.678  1.00  0.00     0.019 A 
ENDBRANCH  10  11
ENDBRANCH   9  10
ENDBRANCH   6   9
ENDBRANCH   1   5
BRANCH   2  18
HETATM   18  C   UNL     1       7.611  30.528  59.227  1.00  0.00     0.103 A 
HETATM   19  N   UNL     1       8.267  30.286  60.416  1.00  0.00    -0.351 N 
HETATM   20  H   UNL     1       8.888  29.501  60.563  1.00  0.00     0.166 HD
HETATM   21  C   UNL     1       7.972  31.250  61.349  1.00  0.00     0.043 A 
HETATM   22  C   UNL     1       7.085  32.139  60.750  1.00  0.00    -0.007 A 
HETATM   23  C   UNL     1       8.420  31.402  62.667  1.00  0.00     0.030 A 
HETATM   24  C   UNL     1       6.862  31.677  59.423  1.00  0.00     0.049 A 
HETATM   25  C   UNL     1       6.614  33.236  61.497  1.00  0.00     0.014 A 
HETATM   26  C   UNL     1       7.052  33.405  62.815  1.00  0.00     0.001 A 
HETATM   27  C   UNL     1       7.942  32.498  63.390  1.00  0.00     0.002 A 
ENDBRANCH   2  18
TORSDOF 5
ENDMDL
MODEL 5
REMARK VINA RESULT:      -9.1      1.559      2.358
REMARK  5 active torsions:
REMARK  status: ('A' for Active; 'I' for Inactive)
REMARK    1  A    between atoms: C_5  and  S_6 
REMARK    2  A    between atoms: S_6  and  C_7 
REMARK    3  A    between atoms: C_7  and  C_8 
REMARK       I    between atoms: C_8  and  N_9 
REMARK    4  A    between atoms: N_9  and  N_10 
REMARK       I    between atoms: N_10  and  C_11 
REMARK    5  A    between atoms: C_11  and  C_12 
ROOT
HETATM    1  N   UNL     1       6.970  30.620  58.829  1.00  0.00    -0.262 N 
HETATM    2  C   UNL     1       7.709  31.613  59.435  1.00  0.00     0.286 C 
HETATM    3  O   UNL     1       8.710  32.096  58.905  1.00  0.00    -0.264 OA
HETATM    4  H   UNL     1       6.100  30.260  59.213  1.00  0.00     0.190 HD
ENDROOT
BRANCH   1   5
HETATM    5  N   UNL     1       7.285  30.224  57.525  1.00  0.00    -0.267 N 
HETATM    6  C   UNL     1       7.842  28.974  57.350  1.00  0.00     0.245 C 
HETATM    7  O   UNL     1       7.940  28.166  58.276  1.00  0.00    -0.271 OA
HETATM    8  H   UNL     1       7.382  30.963  56.827  1.00  0.00     0.190 HD
BRANCH   6   9
HETATM    9  C   UNL     1       8.219  28.624  55.924  1.00  0.00     0.184 C 
BRANCH   9  10
HETATM   10  S   UNL     1       6.748  28.167  54.949  1.00  0.00    -0.121 SA
BRANCH  10  11
HETATM   11  C   UNL     1       7.218  26.518  54.453  1.00  0.00     0.001 A 
HETATM   12  C   UNL     1       7.383  25.531  55.428  1.00  0.00     0.019 A 
HETATM   13  C   UNL     1       7.738  24.229  55.064  1.00  0.00     0.008 A 
HETATM   14  C   UNL     1       7.931  23.895  53.720  1.00  0.00    -0.062 A 
HETATM   15  C   UNL     1       8.297  22.499  53.314  1.00  0.00     0.048 C 
HETATM   16  C   UNL     1       7.747  24.881  52.744  1.00  0.00     0.008 A 
HETATM   17  C   UNL     1       7.389  26.181  53.107  1.00  0.00     0.019 A 
ENDBRANCH  10  11
ENDBRANCH   9  10
ENDBRANCH   6   9
ENDBRANCH   1   5
BRANCH   2  18
HETATM   18  C   UNL     1       7.223  32.050  60.723  1.00  0.00     0.103 A 
HETATM   19  N   UNL     1       8.084  32.299  61.771  1.00  0.00    -0.351 N 
HETATM   20  H   UNL     1       9.088  32.188  61.708  1.00  0.00     0.166 HD
HETATM   21  C   UNL     1       7.401  32.723  62.885  1.00  0.00     0.043 A 
HETATM   22  C   UNL     1       6.049  32.735  62.552  1.00  0.00    -0.007 A 
HETATM   23  C   UNL     1       7.872  33.093  64.150  1.00  0.00     0.030 A 
HETATM   24  C   UNL     1       5.947  32.309  61.199  1.00  0.00     0.049 A 
HETATM   25  C   UNL     1       5.114  33.134  63.527  1.00  0.00     0.014 A 
HETATM   26  C   UNL     1       5.567  33.509  64.797  1.00  0.00     0.001 A 
HETATM   27  C   UNL     1       6.926  33.487  65.102  1.00  0.00     0.002 A 
ENDBRANCH   2  18
TORSDOF 5
ENDMDL
MODEL 6
REMARK VINA RESULT:      -8.9      7.033      9.712
REMARK  5 active torsions:
REMARK  status: ('A' for Active; 'I' for Inactive)
REMARK    1  A    between atoms: C_5  and  S_6 
REMARK    2  A    between atoms: S_6  and  C_7 
REMARK    3  A    between atoms: C_7  and  C_8 
REMARK       I    between atoms: C_8  and  N_9 
REMARK    4  A    between atoms: N_9  and  N_10 
REMARK       I    between atoms: N_10  and  C_11 
REMARK    5  A    between atoms: C_11  and  C_12 
ROOT
HETATM    1  N   UNL     1       4.791  25.256  53.532  1.00  0.00    -0.262 N 
HETATM    2  C   UNL     1       5.994  24.833  53.009  1.00  0.00     0.286 C 
HETATM    3  O   UNL     1       6.452  25.297  51.965  1.00  0.00    -0.264 OA
HETATM    4  H   UNL     1       4.431  24.941  54.429  1.00  0.00     0.190 HD
ENDROOT
BRANCH   1   5
HETATM    5  N   UNL     1       4.118  26.326  52.932  1.00  0.00    -0.267 N 
HETATM    6  C   UNL     1       4.243  27.571  53.515  1.00  0.00     0.245 C 
HETATM    7  O   UNL     1       5.022  27.782  54.446  1.00  0.00    -0.271 OA
HETATM    8  H   UNL     1       3.344  26.095  52.308  1.00  0.00     0.190 HD
BRANCH   6   9
HETATM    9  C   UNL     1       3.443  28.678  52.858  1.00  0.00     0.184 C 
BRANCH   9  10
HETATM   10  S   UNL     1       4.368  29.428  51.477  1.00  0.00    -0.121 SA
BRANCH  10  11
HETATM   11  C   UNL     1       3.882  28.328  50.159  1.00  0.00     0.001 A 
HETATM   12  C   UNL     1       2.607  28.450  49.601  1.00  0.00     0.019 A 
HETATM   13  C   UNL     1       2.207  27.609  48.558  1.00  0.00     0.008 A 
HETATM   14  C   UNL     1       3.077  26.636  48.057  1.00  0.00    -0.062 A 
HETATM   15  C   UNL     1       2.668  25.737  46.929  1.00  0.00     0.048 C 
HETATM   16  C   UNL     1       4.361  26.528  48.605  1.00  0.00     0.008 A 
HETATM   17  C   UNL     1       4.762  27.371  49.645  1.00  0.00     0.019 A 
ENDBRANCH  10  11
ENDBRANCH   9  10
ENDBRANCH   6   9
ENDBRANCH   1   5
BRANCH   2  18
HETATM   18  C   UNL     1       6.680  23.818  53.776  1.00  0.00     0.103 A 
HETATM   19  N   UNL     1       7.162  22.671  53.183  1.00  0.00    -0.351 N 
HETATM   20  H   UNL     1       7.063  22.467  52.196  1.00  0.00     0.166 HD
HETATM   21  C   UNL     1       7.794  21.865  54.099  1.00  0.00     0.043 A 
HETATM   22  C   UNL     1       7.705  22.506  55.332  1.00  0.00    -0.007 A 
HETATM   23  C   UNL     1       8.432  20.630  53.933  1.00  0.00     0.030 A 
HETATM   24  C   UNL     1       7.004  23.725  55.121  1.00  0.00     0.049 A 
HETATM   25  C   UNL     1       8.279  21.889  56.461  1.00  0.00     0.014 A 
HETATM   26  C   UNL     1       8.921  20.654  56.313  1.00  0.00     0.001 A 
HETATM   27  C   UNL     1       8.994  20.036  55.066  1.00  0.00     0.002 A 
ENDBRANCH   2  18
TORSDOF 5
ENDMDL
MODEL 7
REMARK VINA RESULT:      -8.7      2.505     10.012
REMARK  5 active torsions:
REMARK  status: ('A' for Active; 'I' for Inactive)
REMARK    1  A    between atoms: C_5  and  S_6 
REMARK    2  A    between atoms: S_6  and  C_7 
REMARK    3  A    between atoms: C_7  and  C_8 
REMARK       I    between atoms: C_8  and  N_9 
REMARK    4  A    between atoms: N_9  and  N_10 
REMARK       I    between atoms: N_10  and  C_11 
REMARK    5  A    between atoms: C_11  and  C_12 
ROOT
HETATM    1  N   UNL     1       5.702  25.773  56.388  1.00  0.00    -0.262 N 
HETATM    2  C   UNL     1       6.852  25.194  56.880  1.00  0.00     0.286 C 
HETATM    3  O   UNL     1       7.468  25.674  57.831  1.00  0.00    -0.264 OA
HETATM    4  H   UNL     1       5.136  25.355  55.654  1.00  0.00     0.190 HD
ENDROOT
BRANCH   1   5
HETATM    5  N   UNL     1       5.143  26.870  57.053  1.00  0.00    -0.267 N 
HETATM    6  C   UNL     1       5.414  28.129  56.556  1.00  0.00     0.245 C 
HETATM    7  O   UNL     1       6.007  28.297  55.490  1.00  0.00    -0.271 OA
HETATM    8  H   UNL     1       4.839  26.721  58.017  1.00  0.00     0.190 HD
BRANCH   6   9
HETATM    9  C   UNL     1       4.834  29.280  57.354  1.00  0.00     0.184 C 
BRANCH   9  10
HETATM   10  S   UNL     1       5.625  30.859  56.900  1.00  0.00    -0.121 SA
BRANCH  10  11
HETATM   11  C   UNL     1       6.689  31.078  58.315  1.00  0.00     0.001 A 
HETATM   12  C   UNL     1       6.429  32.117  59.213  1.00  0.00     0.019 A 
HETATM   13  C   UNL     1       7.241  32.302  60.336  1.00  0.00     0.008 A 
HETATM   14  C   UNL     1       8.323  31.451  60.577  1.00  0.00    -0.062 A 
HETATM   15  C   UNL     1       9.194  31.628  61.786  1.00  0.00     0.048 C 
HETATM   16  C   UNL     1       8.571  30.400  59.687  1.00  0.00     0.008 A 
HETATM   17  C   UNL     1       7.757  30.213  58.566  1.00  0.00     0.019 A 
ENDBRANCH  10  11
ENDBRANCH   9  10
ENDBRANCH   6   9
ENDBRANCH   1   5
BRANCH   2  18
HETATM   18  C   UNL     1       7.273  23.986  56.208  1.00  0.00     0.103 A 
HETATM   19  N   UNL     1       7.100  23.820  54.850  1.00  0.00    -0.351 N 
HETATM   20  H   UNL     1       6.671  24.514  54.252  1.00  0.00     0.166 HD
HETATM   21  C   UNL     1       7.594  22.609  54.431  1.00  0.00     0.043 A 
HETATM   22  C   UNL     1       8.091  21.961  55.559  1.00  0.00    -0.007 A 
HETATM   23  C   UNL     1       7.639  22.042  53.152  1.00  0.00     0.030 A 
HETATM   24  C   UNL     1       7.883  22.829  56.666  1.00  0.00     0.049 A 
HETATM   25  C   UNL     1       8.662  20.682  55.410  1.00  0.00     0.014 A 
HETATM   26  C   UNL     1       8.717  20.100  54.139  1.00  0.00     0.001 A 
HETATM   27  C   UNL     1       8.211  20.772  53.028  1.00  0.00     0.002 A 
ENDBRANCH   2  18
TORSDOF 5
ENDMDL
MODEL 8
REMARK VINA RESULT:      -8.2      2.572      3.414
REMARK  5 active torsions:
REMARK  status: ('A' for Active; 'I' for Inactive)
REMARK    1  A    between atoms: C_5  and  S_6 
REMARK    2  A    between atoms: S_6  and  C_7 
REMARK    3  A    between atoms: C_7  and  C_8 
REMARK       I    between atoms: C_8  and  N_9 
REMARK    4  A    between atoms: N_9  and  N_10 
REMARK       I    between atoms: N_10  and  C_11 
REMARK    5  A    between atoms: C_11  and  C_12 
ROOT
HETATM    1  N   UNL     1       6.810  30.608  59.234  1.00  0.00    -0.262 N 
HETATM    2  C   UNL     1       6.496  31.929  59.473  1.00  0.00     0.286 C 
HETATM    3  O   UNL     1       6.137  32.688  58.572  1.00  0.00    -0.264 OA
HETATM    4  H   UNL     1       7.035  29.947  59.972  1.00  0.00     0.190 HD
ENDROOT
BRANCH   1   5
HETATM    5  N   UNL     1       6.605  30.071  57.958  1.00  0.00    -0.267 N 
HETATM    6  C   UNL     1       7.316  28.939  57.616  1.00  0.00     0.245 C 
HETATM    7  O   UNL     1       8.007  28.329  58.434  1.00  0.00    -0.271 OA
HETATM    8  H   UNL     1       6.200  30.690  57.255  1.00  0.00     0.190 HD
BRANCH   6   9
HETATM    9  C   UNL     1       7.100  28.440  56.202  1.00  0.00     0.184 C 
BRANCH   9  10
HETATM   10  S   UNL     1       6.442  26.739  56.199  1.00  0.00    -0.121 SA
BRANCH  10  11
HETATM   11  C   UNL     1       5.979  26.600  54.482  1.00  0.00     0.001 A 
HETATM   12  C   UNL     1       6.202  27.679  53.622  1.00  0.00     0.019 A 
HETATM   13  C   UNL     1       5.860  27.590  52.270  1.00  0.00     0.008 A 
HETATM   14  C   UNL     1       5.292  26.419  51.757  1.00  0.00    -0.062 A 
HETATM   15  C   UNL     1       4.934  26.304  50.305  1.00  0.00     0.048 C 
HETATM   16  C   UNL     1       5.087  25.333  52.615  1.00  0.00     0.008 A 
HETATM   17  C   UNL     1       5.432  25.421  53.966  1.00  0.00     0.019 A 
ENDBRANCH  10  11
ENDBRANCH   9  10
ENDBRANCH   6   9
ENDBRANCH   1   5
BRANCH   2  18
HETATM   18  C   UNL     1       6.609  32.354  60.850  1.00  0.00     0.103 A 
HETATM   19  N   UNL     1       5.499  32.706  61.587  1.00  0.00    -0.351 N 
HETATM   20  H   UNL     1       4.556  32.698  61.219  1.00  0.00     0.166 HD
HETATM   21  C   UNL     1       5.845  33.052  62.871  1.00  0.00     0.043 A 
HETATM   22  C   UNL     1       7.229  32.933  62.964  1.00  0.00    -0.007 A 
HETATM   23  C   UNL     1       5.047  33.457  63.947  1.00  0.00     0.030 A 
HETATM   24  C   UNL     1       7.699  32.499  61.694  1.00  0.00     0.049 A 
HETATM   25  C   UNL     1       7.856  33.233  64.190  1.00  0.00     0.014 A 
HETATM   26  C   UNL     1       7.073  33.638  65.277  1.00  0.00     0.001 A 
HETATM   27  C   UNL     1       5.689  33.748  65.154  1.00  0.00     0.002 A 
ENDBRANCH   2  18
TORSDOF 5
ENDMDL
MODEL 9
REMARK VINA RESULT:      -8.1      2.612     10.225
REMARK  5 active torsions:
REMARK  status: ('A' for Active; 'I' for Inactive)
REMARK    1  A    between atoms: C_5  and  S_6 
REMARK    2  A    between atoms: S_6  and  C_7 
REMARK    3  A    between atoms: C_7  and  C_8 
REMARK       I    between atoms: C_8  and  N_9 
REMARK    4  A    between atoms: N_9  and  N_10 
REMARK       I    between atoms: N_10  and  C_11 
REMARK    5  A    between atoms: C_11  and  C_12 
ROOT
HETATM    1  N   UNL     1       5.140  27.197  55.740  1.00  0.00    -0.262 N 
HETATM    2  C   UNL     1       5.438  26.025  56.403  1.00  0.00     0.286 C 
HETATM    3  O   UNL     1       5.155  25.856  57.588  1.00  0.00    -0.264 OA
HETATM    4  H   UNL     1       5.296  27.330  54.745  1.00  0.00     0.190 HD
ENDROOT
BRANCH   1   5
HETATM    5  N   UNL     1       4.391  28.184  56.389  1.00  0.00    -0.267 N 
HETATM    6  C   UNL     1       5.048  29.330  56.791  1.00  0.00     0.245 C 
HETATM    7  O   UNL     1       6.218  29.555  56.479  1.00  0.00    -0.271 OA
HETATM    8  H   UNL     1       3.503  27.894  56.803  1.00  0.00     0.190 HD
BRANCH   6   9
HETATM    9  C   UNL     1       4.198  30.335  57.543  1.00  0.00     0.184 C 
BRANCH   9  10
HETATM   10  S   UNL     1       4.876  32.020  57.380  1.00  0.00    -0.121 SA
BRANCH  10  11
HETATM   11  C   UNL     1       5.809  32.116  58.897  1.00  0.00     0.001 A 
HETATM   12  C   UNL     1       5.206  32.651  60.039  1.00  0.00     0.019 A 
HETATM   13  C   UNL     1       5.911  32.725  61.244  1.00  0.00     0.008 A 
HETATM   14  C   UNL     1       7.229  32.265  61.324  1.00  0.00    -0.062 A 
HETATM   15  C   UNL     1       7.993  32.324  62.613  1.00  0.00     0.048 C 
HETATM   16  C   UNL     1       7.825  31.712  60.184  1.00  0.00     0.008 A 
HETATM   17  C   UNL     1       7.118  31.634  58.982  1.00  0.00     0.019 A 
ENDBRANCH  10  11
ENDBRANCH   9  10
ENDBRANCH   6   9
ENDBRANCH   1   5
BRANCH   2  18
HETATM   18  C   UNL     1       6.093  25.013  55.606  1.00  0.00     0.103 A 
HETATM   19  N   UNL     1       6.716  23.930  56.190  1.00  0.00    -0.351 N 
HETATM   20  H   UNL     1       6.761  23.783  57.190  1.00  0.00     0.166 HD
HETATM   21  C   UNL     1       7.247  23.092  55.240  1.00  0.00     0.043 A 
HETATM   22  C   UNL     1       6.971  23.658  53.999  1.00  0.00    -0.007 A 
HETATM   23  C   UNL     1       7.945  21.886  55.383  1.00  0.00     0.030 A 
HETATM   24  C   UNL     1       6.251  24.861  54.238  1.00  0.00     0.049 A 
HETATM   25  C   UNL     1       7.410  22.994  52.837  1.00  0.00     0.014 A 
HETATM   26  C   UNL     1       8.108  21.788  52.961  1.00  0.00     0.001 A 
HETATM   27  C   UNL     1       8.371  21.244  54.217  1.00  0.00     0.002 A 
ENDBRANCH   2  18
TORSDOF 5
ENDMDL
MODEL 10
REMARK VINA RESULT:      -7.9      3.055      3.608
REMARK  5 active torsions:
REMARK  status: ('A' for Active; 'I' for Inactive)
REMARK    1  A    between atoms: C_5  and  S_6 
REMARK    2  A    between atoms: S_6  and  C_7 
REMARK    3  A    between atoms: C_7  and  C_8 
REMARK       I    between atoms: C_8  and  N_9 
REMARK    4  A    between atoms: N_9  and  N_10 
REMARK       I    between atoms: N_10  and  C_11 
REMARK    5  A    between atoms: C_11  and  C_12 
ROOT
HETATM    1  N   UNL     1       4.312  29.483  57.967  1.00  0.00    -0.262 N 
HETATM    2  C   UNL     1       4.023  30.743  57.488  1.00  0.00     0.286 C 
HETATM    3  O   UNL     1       3.934  30.978  56.283  1.00  0.00    -0.264 OA
HETATM    4  H   UNL     1       4.317  29.250  58.957  1.00  0.00     0.190 HD
ENDROOT
BRANCH   1   5
HETATM    5  N   UNL     1       4.393  28.408  57.076  1.00  0.00    -0.267 N 
HETATM    6  C   UNL     1       5.648  27.934  56.753  1.00  0.00     0.245 C 
HETATM    7  O   UNL     1       6.665  28.336  57.320  1.00  0.00    -0.271 OA
HETATM    8  H   UNL     1       3.579  28.236  56.483  1.00  0.00     0.190 HD
BRANCH   6   9
HETATM    9  C   UNL     1       5.675  26.810  55.735  1.00  0.00     0.184 C 
BRANCH   9  10
HETATM   10  S   UNL     1       7.166  26.906  54.690  1.00  0.00    -0.121 SA
BRANCH  10  11
HETATM   11  C   UNL     1       7.363  25.179  54.289  1.00  0.00     0.001 A 
HETATM   12  C   UNL     1       7.647  24.810  52.972  1.00  0.00     0.019 A 
HETATM   13  C   UNL     1       7.819  23.464  52.634  1.00  0.00     0.008 A 
HETATM   14  C   UNL     1       7.711  22.468  53.610  1.00  0.00    -0.062 A 
HETATM   15  C   UNL     1       7.908  21.022  53.266  1.00  0.00     0.048 C 
HETATM   16  C   UNL     1       7.445  22.841  54.933  1.00  0.00     0.008 A 
HETATM   17  C   UNL     1       7.277  24.187  55.270  1.00  0.00     0.019 A 
ENDBRANCH  10  11
ENDBRANCH   9  10
ENDBRANCH   6   9
ENDBRANCH   1   5
BRANCH   2  18
HETATM   18  C   UNL     1       3.824  31.759  58.497  1.00  0.00     0.103 A 
HETATM   19  N   UNL     1       3.719  31.435  59.833  1.00  0.00    -0.351 N 
HETATM   20  H   UNL     1       3.765  30.487  60.184  1.00  0.00     0.166 HD
HETATM   21  C   UNL     1       3.556  32.559  60.604  1.00  0.00     0.043 A 
HETATM   22  C   UNL     1       3.542  33.648  59.737  1.00  0.00    -0.007 A 
HETATM   23  C   UNL     1       3.422  32.695  61.992  1.00  0.00     0.030 A 
HETATM   24  C   UNL     1       3.706  33.137  58.420  1.00  0.00     0.049 A 
HETATM   25  C   UNL     1       3.385  34.941  60.274  1.00  0.00     0.014 A 
HETATM   26  C   UNL     1       3.250  35.096  61.658  1.00  0.00     0.001 A 
HETATM   27  C   UNL     1       3.269  33.987  62.502  1.00  0.00     0.002 A 
ENDBRANCH   2  18
TORSDOF 5
ENDMDL
