MODEL 1
REMARK VINA RESULT:     -10.2      0.000      0.000
REMARK  8 active torsions:
REMARK  status: ('A' for Active; 'I' for Inactive)
REMARK    1  A    between atoms: C_4  and  O_5 
REMARK    2  A    between atoms: O_5  and  C_6 
REMARK    3  A    between atoms: C_8  and  C_9 
REMARK    4  A    between atoms: C_9  and  N_10 
REMARK    5  A    between atoms: C_9  and  C_14 
REMARK       I    between atoms: N_10  and  C_11 
REMARK       I    between atoms: C_11  and  N_12 
REMARK    6  A    between atoms: C_14  and  C_15 
REMARK       I    between atoms: C_15  and  N_16 
REMARK    7  A    between atoms: N_16  and  N_17 
REMARK       I    between atoms: N_17  and  C_18 
REMARK    8  A    between atoms: C_18  and  C_19 
ROOT
HETATM    1  C   UNL     1       8.029  28.659  56.237  1.00  0.00     0.128 C 
ENDROOT
BRANCH   1   2
HETATM    2  C   UNL     1       7.372  27.284  56.416  1.00  0.00    -0.032 A 
HETATM    3  C   UNL     1       8.097  26.082  56.305  1.00  0.00     0.046 A 
HETATM    4  C   UNL     1       7.489  24.837  56.504  1.00  0.00     0.076 A 
HETATM    5  C   UNL     1       6.137  24.772  56.833  1.00  0.00     0.037 A 
HETATM    6  C   UNL     1       5.387  25.945  56.898  1.00  0.00     0.003 A 
HETATM    7  C   UNL     1       5.994  27.183  56.677  1.00  0.00     0.009 A 
BRANCH   4   8
HETATM    8  O   UNL     1       8.335  23.751  56.424  1.00  0.00    -0.311 OA
BRANCH   8   9
HETATM    9  C   UNL     1       8.156  22.838  55.414  1.00  0.00     0.076 A 
HETATM   10  C   UNL     1       8.127  23.205  54.067  1.00  0.00     0.037 A 
HETATM   11  C   UNL     1       7.986  22.221  53.086  1.00  0.00     0.003 A 
HETATM   12  C   UNL     1       7.904  20.876  53.451  1.00  0.00     0.000 A 
HETATM   13  C   UNL     1       7.968  20.511  54.796  1.00  0.00     0.003 A 
HETATM   14  C   UNL     1       8.102  21.492  55.778  1.00  0.00     0.037 A 
ENDBRANCH   8   9
ENDBRANCH   4   8
ENDBRANCH   1   2
BRANCH   1  15
HETATM   15  N   UNL     1       9.351  28.696  56.855  1.00  0.00    -0.334 N 
HETATM   16  C   UNL     1      10.373  29.411  56.322  1.00  0.00     0.314 C 
HETATM   17  N   UNL     1      11.504  29.343  57.061  1.00  0.00    -0.352 N 
HETATM   18  O   UNL     1      10.297  30.071  55.296  1.00  0.00    -0.248 OA
HETATM   19  H   UNL     1      11.713  28.463  57.508  1.00  0.00     0.160 HD
HETATM   20  H   UNL     1      12.300  29.790  56.621  1.00  0.00     0.160 HD
HETATM   21  H   UNL     1       9.417  28.482  57.841  1.00  0.00     0.165 HD
ENDBRANCH   1  15
BRANCH   1  22
HETATM   22  C   UNL     1       7.133  29.773  56.800  1.00  0.00     0.134 C 
BRANCH  22  23
HETATM   23  C   UNL     1       7.287  30.139  58.260  1.00  0.00     0.238 C 
HETATM   24  N   UNL     1       6.534  31.193  58.731  1.00  0.00    -0.267 N 
HETATM   25  H   UNL     1       6.341  32.009  58.139  1.00  0.00     0.190 HD
HETATM   26  O   UNL     1       7.963  29.435  59.016  1.00  0.00    -0.272 OA
BRANCH  24  27
HETATM   27  N   UNL     1       6.681  31.488  60.098  1.00  0.00    -0.262 N 
HETATM   28  C   UNL     1       7.645  32.382  60.523  1.00  0.00     0.293 C 
HETATM   29  O   UNL     1       8.492  32.856  59.768  1.00  0.00    -0.264 OA
HETATM   30  H   UNL     1       5.934  31.185  60.723  1.00  0.00     0.190 HD
BRANCH  28  31
HETATM   31  C   UNL     1       7.549  32.709  61.930  1.00  0.00     0.144 A 
HETATM   32  O   UNL     1       6.667  33.677  62.341  1.00  0.00    -0.317 OA
HETATM   33  C   UNL     1       6.796  33.794  63.687  1.00  0.00     0.143 A 
HETATM   34  C   UNL     1       7.741  32.914  64.159  1.00  0.00     0.027 A 
HETATM   35  C   UNL     1       8.227  32.215  63.028  1.00  0.00     0.045 A 
ENDBRANCH  28  31
ENDBRANCH  24  27
ENDBRANCH  22  23
ENDBRANCH   1  22
TORSDOF 8
ENDMDL
MODEL 2
REMARK VINA RESULT:     -10.1      2.264      9.797
REMARK  8 active torsions:
REMARK  status: ('A' for Active; 'I' for Inactive)
REMARK    1  A    between atoms: C_4  and  O_5 
REMARK    2  A    between atoms: O_5  and  C_6 
REMARK    3  A    between atoms: C_8  and  C_9 
REMARK    4  A    between atoms: C_9  and  N_10 
REMARK    5  A    between atoms: C_9  and  C_14 
REMARK       I    between atoms: N_10  and  C_11 
REMARK       I    between atoms: C_11  and  N_12 
REMARK    6  A    between atoms: C_14  and  C_15 
REMARK       I    between atoms: C_15  and  N_16 
REMARK    7  A    between atoms: N_16  and  N_17 
REMARK       I    between atoms: N_17  and  C_18 
REMARK    8  A    between atoms: C_18  and  C_19 
ROOT
HETATM    1  C   UNL     1       7.478  28.165  57.161  1.00  0.00     0.128 C 
ENDROOT
BRANCH   1   2
HETATM    2  C   UNL     1       8.626  29.160  57.380  1.00  0.00    -0.032 A 
HETATM    3  C   UNL     1       8.452  30.367  58.083  1.00  0.00     0.046 A 
HETATM    4  C   UNL     1       9.518  31.248  58.303  1.00  0.00     0.076 A 
HETATM    5  C   UNL     1      10.789  30.929  57.830  1.00  0.00     0.037 A 
HETATM    6  C   UNL     1      10.975  29.765  57.087  1.00  0.00     0.003 A 
HETATM    7  C   UNL     1       9.903  28.899  56.852  1.00  0.00     0.009 A 
BRANCH   4   8
HETATM    8  O   UNL     1       9.214  32.361  59.059  1.00  0.00    -0.311 OA
BRANCH   8   9
HETATM    9  C   UNL     1       8.643  32.193  60.296  1.00  0.00     0.076 A 
HETATM   10  C   UNL     1       9.344  31.660  61.381  1.00  0.00     0.037 A 
HETATM   11  C   UNL     1       8.718  31.557  62.624  1.00  0.00     0.003 A 
HETATM   12  C   UNL     1       7.408  32.011  62.788  1.00  0.00     0.000 A 
HETATM   13  C   UNL     1       6.723  32.575  61.711  1.00  0.00     0.003 A 
HETATM   14  C   UNL     1       7.344  32.672  60.466  1.00  0.00     0.037 A 
ENDBRANCH   8   9
ENDBRANCH   4   8
ENDBRANCH   1   2
BRANCH   1  15
HETATM   15  N   UNL     1       6.183  28.799  57.381  1.00  0.00    -0.334 N 
HETATM   16  C   UNL     1       5.086  28.462  56.656  1.00  0.00     0.314 C 
HETATM   17  N   UNL     1       3.977  29.138  57.034  1.00  0.00    -0.352 N 
HETATM   18  O   UNL     1       5.073  27.623  55.768  1.00  0.00    -0.248 OA
HETATM   19  H   UNL     1       4.094  30.102  57.311  1.00  0.00     0.160 HD
HETATM   20  H   UNL     1       3.178  28.968  56.435  1.00  0.00     0.160 HD
HETATM   21  H   UNL     1       6.014  29.229  58.280  1.00  0.00     0.165 HD
ENDBRANCH   1  15
BRANCH   1  22
HETATM   22  C   UNL     1       7.641  26.933  58.064  1.00  0.00     0.134 C 
BRANCH  22  23
HETATM   23  C   UNL     1       7.791  25.580  57.402  1.00  0.00     0.238 C 
HETATM   24  N   UNL     1       6.791  25.183  56.541  1.00  0.00    -0.267 N 
HETATM   25  H   UNL     1       5.810  25.425  56.723  1.00  0.00     0.190 HD
HETATM   26  O   UNL     1       8.829  24.927  57.537  1.00  0.00    -0.272 OA
BRANCH  24  27
HETATM   27  N   UNL     1       6.976  23.933  55.923  1.00  0.00    -0.262 N 
HETATM   28  C   UNL     1       7.312  23.857  54.585  1.00  0.00     0.293 C 
HETATM   29  O   UNL     1       7.337  24.840  53.847  1.00  0.00    -0.264 OA
HETATM   30  H   UNL     1       7.056  23.120  56.532  1.00  0.00     0.190 HD
BRANCH  28  31
HETATM   31  C   UNL     1       7.640  22.515  54.148  1.00  0.00     0.144 A 
HETATM   32  O   UNL     1       7.734  21.506  55.074  1.00  0.00    -0.317 OA
HETATM   33  C   UNL     1       8.067  20.374  54.404  1.00  0.00     0.143 A 
HETATM   34  C   UNL     1       8.185  20.628  53.058  1.00  0.00     0.027 A 
HETATM   35  C   UNL     1       7.910  22.007  52.892  1.00  0.00     0.045 A 
ENDBRANCH  28  31
ENDBRANCH  24  27
ENDBRANCH  22  23
ENDBRANCH   1  22
TORSDOF 8
ENDMDL
MODEL 3
REMARK VINA RESULT:      -9.9      2.128      2.886
REMARK  8 active torsions:
REMARK  status: ('A' for Active; 'I' for Inactive)
REMARK    1  A    between atoms: C_4  and  O_5 
REMARK    2  A    between atoms: O_5  and  C_6 
REMARK    3  A    between atoms: C_8  and  C_9 
REMARK    4  A    between atoms: C_9  and  N_10 
REMARK    5  A    between atoms: C_9  and  C_14 
REMARK       I    between atoms: N_10  and  C_11 
REMARK       I    between atoms: C_11  and  N_12 
REMARK    6  A    between atoms: C_14  and  C_15 
REMARK       I    between atoms: C_15  and  N_16 
REMARK    7  A    between atoms: N_16  and  N_17 
REMARK       I    between atoms: N_17  and  C_18 
REMARK    8  A    between atoms: C_18  and  C_19 
ROOT
HETATM    1  C   UNL     1       6.141  28.480  55.543  1.00  0.00     0.128 C 
ENDROOT
BRANCH   1   2
HETATM    2  C   UNL     1       6.111  27.218  54.670  1.00  0.00    -0.032 A 
HETATM    3  C   UNL     1       7.216  26.353  54.559  1.00  0.00     0.046 A 
HETATM    4  C   UNL     1       7.161  25.189  53.784  1.00  0.00     0.076 A 
HETATM    5  C   UNL     1       5.986  24.861  53.110  1.00  0.00     0.037 A 
HETATM    6  C   UNL     1       4.897  25.728  53.163  1.00  0.00     0.003 A 
HETATM    7  C   UNL     1       4.965  26.900  53.921  1.00  0.00     0.009 A 
BRANCH   4   8
HETATM    8  O   UNL     1       8.296  24.406  53.818  1.00  0.00    -0.311 OA
BRANCH   8   9
HETATM    9  C   UNL     1       8.183  23.080  54.156  1.00  0.00     0.076 A 
HETATM   10  C   UNL     1       7.907  22.658  55.458  1.00  0.00     0.037 A 
HETATM   11  C   UNL     1       7.762  21.295  55.727  1.00  0.00     0.003 A 
HETATM   12  C   UNL     1       7.864  20.364  54.692  1.00  0.00     0.000 A 
HETATM   13  C   UNL     1       8.106  20.792  53.387  1.00  0.00     0.003 A 
HETATM   14  C   UNL     1       8.259  22.152  53.117  1.00  0.00     0.037 A 
ENDBRANCH   8   9
ENDBRANCH   4   8
ENDBRANCH   1   2
BRANCH   1  15
HETATM   15  N   UNL     1       5.723  29.655  54.786  1.00  0.00    -0.334 N 
HETATM   16  C   UNL     1       4.909  30.601  55.319  1.00  0.00     0.314 C 
HETATM   17  N   UNL     1       4.665  31.626  54.470  1.00  0.00    -0.352 N 
HETATM   18  O   UNL     1       4.451  30.563  56.451  1.00  0.00    -0.248 OA
HETATM   19  H   UNL     1       4.568  31.402  53.491  1.00  0.00     0.160 HD
HETATM   20  H   UNL     1       3.981  32.285  54.820  1.00  0.00     0.160 HD
HETATM   21  H   UNL     1       6.298  29.944  54.005  1.00  0.00     0.165 HD
ENDBRANCH   1  15
BRANCH   1  22
HETATM   22  C   UNL     1       7.536  28.693  56.151  1.00  0.00     0.134 C 
BRANCH  22  23
HETATM   23  C   UNL     1       7.623  29.129  57.598  1.00  0.00     0.238 C 
HETATM   24  N   UNL     1       7.210  30.409  57.899  1.00  0.00    -0.267 N 
HETATM   25  H   UNL     1       7.371  31.183  57.245  1.00  0.00     0.190 HD
HETATM   26  O   UNL     1       7.931  28.322  58.479  1.00  0.00    -0.272 OA
BRANCH  24  27
HETATM   27  N   UNL     1       7.279  30.771  59.256  1.00  0.00    -0.262 N 
HETATM   28  C   UNL     1       8.148  31.759  59.675  1.00  0.00     0.293 C 
HETATM   29  O   UNL     1       8.983  32.271  58.930  1.00  0.00    -0.264 OA
HETATM   30  H   UNL     1       6.535  30.433  59.867  1.00  0.00     0.190 HD
BRANCH  28  31
HETATM   31  C   UNL     1       7.971  32.135  61.062  1.00  0.00     0.144 A 
HETATM   32  O   UNL     1       6.878  32.881  61.427  1.00  0.00    -0.317 OA
HETATM   33  C   UNL     1       6.970  33.104  62.762  1.00  0.00     0.143 A 
HETATM   34  C   UNL     1       8.099  32.509  63.274  1.00  0.00     0.027 A 
HETATM   35  C   UNL     1       8.745  31.885  62.179  1.00  0.00     0.045 A 
ENDBRANCH  28  31
ENDBRANCH  24  27
ENDBRANCH  22  23
ENDBRANCH   1  22
TORSDOF 8
ENDMDL
MODEL 4
REMARK VINA RESULT:      -9.7      2.080      2.395
REMARK  8 active torsions:
REMARK  status: ('A' for Active; 'I' for Inactive)
REMARK    1  A    between atoms: C_4  and  O_5 
REMARK    2  A    between atoms: O_5  and  C_6 
REMARK    3  A    between atoms: C_8  and  C_9 
REMARK    4  A    between atoms: C_9  and  N_10 
REMARK    5  A    between atoms: C_9  and  C_14 
REMARK       I    between atoms: N_10  and  C_11 
REMARK       I    between atoms: C_11  and  N_12 
REMARK    6  A    between atoms: C_14  and  C_15 
REMARK       I    between atoms: C_15  and  N_16 
REMARK    7  A    between atoms: N_16  and  N_17 
REMARK       I    between atoms: N_17  and  C_18 
REMARK    8  A    between atoms: C_18  and  C_19 
ROOT
HETATM    1  C   UNL     1       6.386  28.717  55.673  1.00  0.00     0.128 C 
ENDROOT
BRANCH   1   2
HETATM    2  C   UNL     1       6.302  27.234  56.061  1.00  0.00    -0.032 A 
HETATM    3  C   UNL     1       7.317  26.313  55.739  1.00  0.00     0.046 A 
HETATM    4  C   UNL     1       7.241  24.971  56.130  1.00  0.00     0.076 A 
HETATM    5  C   UNL     1       6.145  24.525  56.865  1.00  0.00     0.037 A 
HETATM    6  C   UNL     1       5.103  25.406  57.150  1.00  0.00     0.003 A 
HETATM    7  C   UNL     1       5.174  26.739  56.740  1.00  0.00     0.009 A 
BRANCH   4   8
HETATM    8  O   UNL     1       8.335  24.199  55.799  1.00  0.00    -0.311 OA
BRANCH   8   9
HETATM    9  C   UNL     1       8.154  23.077  55.030  1.00  0.00     0.076 A 
HETATM   10  C   UNL     1       8.006  23.134  53.642  1.00  0.00     0.037 A 
HETATM   11  C   UNL     1       7.869  21.952  52.913  1.00  0.00     0.003 A 
HETATM   12  C   UNL     1       7.910  20.719  53.565  1.00  0.00     0.000 A 
HETATM   13  C   UNL     1       8.093  20.664  54.947  1.00  0.00     0.003 A 
HETATM   14  C   UNL     1       8.222  21.844  55.679  1.00  0.00     0.037 A 
ENDBRANCH   8   9
ENDBRANCH   4   8
ENDBRANCH   1   2
BRANCH   1  15
HETATM   15  N   UNL     1       6.513  28.876  54.228  1.00  0.00    -0.334 N 
HETATM   16  C   UNL     1       5.432  28.886  53.408  1.00  0.00     0.314 C 
HETATM   17  N   UNL     1       5.757  29.079  52.110  1.00  0.00    -0.352 N 
HETATM   18  O   UNL     1       4.276  28.758  53.784  1.00  0.00    -0.248 OA
HETATM   19  H   UNL     1       6.610  28.652  51.778  1.00  0.00     0.160 HD
HETATM   20  H   UNL     1       4.969  28.987  51.479  1.00  0.00     0.160 HD
HETATM   21  H   UNL     1       7.351  29.318  53.874  1.00  0.00     0.165 HD
ENDBRANCH   1  15
BRANCH   1  22
HETATM   22  C   UNL     1       7.547  29.409  56.402  1.00  0.00     0.134 C 
BRANCH  22  23
HETATM   23  C   UNL     1       7.286  29.971  57.782  1.00  0.00     0.238 C 
HETATM   24  N   UNL     1       8.344  29.997  58.666  1.00  0.00    -0.267 N 
HETATM   25  H   UNL     1       9.044  29.246  58.673  1.00  0.00     0.190 HD
HETATM   26  O   UNL     1       6.203  30.498  58.051  1.00  0.00    -0.272 OA
BRANCH  24  27
HETATM   27  N   UNL     1       8.073  30.550  59.929  1.00  0.00    -0.262 N 
HETATM   28  C   UNL     1       8.464  31.842  60.227  1.00  0.00     0.293 C 
HETATM   29  O   UNL     1       9.168  32.514  59.475  1.00  0.00    -0.264 OA
HETATM   30  H   UNL     1       7.412  30.052  60.525  1.00  0.00     0.190 HD
BRANCH  28  31
HETATM   31  C   UNL     1       7.956  32.321  61.496  1.00  0.00     0.144 A 
HETATM   32  O   UNL     1       6.946  33.249  61.513  1.00  0.00    -0.317 OA
HETATM   33  C   UNL     1       6.681  33.532  62.815  1.00  0.00     0.143 A 
HETATM   34  C   UNL     1       7.498  32.799  63.643  1.00  0.00     0.027 A 
HETATM   35  C   UNL     1       8.320  32.019  62.795  1.00  0.00     0.045 A 
ENDBRANCH  28  31
ENDBRANCH  24  27
ENDBRANCH  22  23
ENDBRANCH   1  22
TORSDOF 8
ENDMDL
MODEL 5
REMARK VINA RESULT:      -9.4      4.472      8.090
REMARK  8 active torsions:
REMARK  status: ('A' for Active; 'I' for Inactive)
REMARK    1  A    between atoms: C_4  and  O_5 
REMARK    2  A    between atoms: O_5  and  C_6 
REMARK    3  A    between atoms: C_8  and  C_9 
REMARK    4  A    between atoms: C_9  and  N_10 
REMARK    5  A    between atoms: C_9  and  C_14 
REMARK       I    between atoms: N_10  and  C_11 
REMARK       I    between atoms: C_11  and  N_12 
REMARK    6  A    between atoms: C_14  and  C_15 
REMARK       I    between atoms: C_15  and  N_16 
REMARK    7  A    between atoms: N_16  and  N_17 
REMARK       I    between atoms: N_17  and  C_18 
REMARK    8  A    between atoms: C_18  and  C_19 
ROOT
HETATM    1  C   UNL     1       5.013  28.903  56.542  1.00  0.00     0.128 C 
ENDROOT
BRANCH   1   2
HETATM    2  C   UNL     1       6.108  27.841  56.717  1.00  0.00    -0.032 A 
HETATM    3  C   UNL     1       5.862  26.469  56.524  1.00  0.00     0.046 A 
HETATM    4  C   UNL     1       6.880  25.516  56.655  1.00  0.00     0.076 A 
HETATM    5  C   UNL     1       8.173  25.925  56.972  1.00  0.00     0.037 A 
HETATM    6  C   UNL     1       8.430  27.272  57.218  1.00  0.00     0.003 A 
HETATM    7  C   UNL     1       7.406  28.216  57.107  1.00  0.00     0.009 A 
BRANCH   4   8
HETATM    8  O   UNL     1       6.509  24.218  56.376  1.00  0.00    -0.311 OA
BRANCH   8   9
HETATM    9  C   UNL     1       7.205  23.512  55.426  1.00  0.00     0.076 A 
HETATM   10  C   UNL     1       8.080  22.474  55.753  1.00  0.00     0.037 A 
HETATM   11  C   UNL     1       8.724  21.767  54.736  1.00  0.00     0.003 A 
HETATM   12  C   UNL     1       8.471  22.079  53.399  1.00  0.00     0.000 A 
HETATM   13  C   UNL     1       7.571  23.095  53.076  1.00  0.00     0.003 A 
HETATM   14  C   UNL     1       6.932  23.807  54.091  1.00  0.00     0.037 A 
ENDBRANCH   8   9
ENDBRANCH   4   8
ENDBRANCH   1   2
BRANCH   1  15
HETATM   15  N   UNL     1       4.466  29.312  57.832  1.00  0.00    -0.334 N 
HETATM   16  C   UNL     1       3.880  30.523  58.013  1.00  0.00     0.314 C 
HETATM   17  N   UNL     1       3.407  30.697  59.268  1.00  0.00    -0.352 N 
HETATM   18  O   UNL     1       3.762  31.372  57.142  1.00  0.00    -0.248 OA
HETATM   19  H   UNL     1       3.948  30.305  60.025  1.00  0.00     0.160 HD
HETATM   20  H   UNL     1       3.059  31.632  59.441  1.00  0.00     0.160 HD
HETATM   21  H   UNL     1       4.210  28.586  58.488  1.00  0.00     0.165 HD
ENDBRANCH   1  15
BRANCH   1  22
HETATM   22  C   UNL     1       3.899  28.395  55.614  1.00  0.00     0.134 C 
BRANCH  22  23
HETATM   23  C   UNL     1       4.096  28.540  54.121  1.00  0.00     0.238 C 
HETATM   24  N   UNL     1       3.753  27.465  53.330  1.00  0.00    -0.267 N 
HETATM   25  H   UNL     1       3.900  26.502  53.654  1.00  0.00     0.190 HD
HETATM   26  O   UNL     1       4.429  29.624  53.635  1.00  0.00    -0.272 OA
BRANCH  24  27
HETATM   27  N   UNL     1       3.922  27.645  51.946  1.00  0.00    -0.262 N 
HETATM   28  C   UNL     1       5.034  27.134  51.304  1.00  0.00     0.293 C 
HETATM   29  O   UNL     1       5.976  26.625  51.908  1.00  0.00    -0.264 OA
HETATM   30  H   UNL     1       3.115  27.974  51.416  1.00  0.00     0.190 HD
BRANCH  28  31
HETATM   31  C   UNL     1       4.971  27.249  49.861  1.00  0.00     0.144 A 
HETATM   32  O   UNL     1       4.427  26.227  49.125  1.00  0.00    -0.317 OA
HETATM   33  C   UNL     1       4.511  26.584  47.818  1.00  0.00     0.143 A 
HETATM   34  C   UNL     1       5.095  27.822  47.693  1.00  0.00     0.027 A 
HETATM   35  C   UNL     1       5.393  28.251  49.008  1.00  0.00     0.045 A 
ENDBRANCH  28  31
ENDBRANCH  24  27
ENDBRANCH  22  23
ENDBRANCH   1  22
TORSDOF 8
ENDMDL
MODEL 6
REMARK VINA RESULT:      -9.0      2.259      9.938
REMARK  8 active torsions:
REMARK  status: ('A' for Active; 'I' for Inactive)
REMARK    1  A    between atoms: C_4  and  O_5 
REMARK    2  A    between atoms: O_5  and  C_6 
REMARK    3  A    between atoms: C_8  and  C_9 
REMARK    4  A    between atoms: C_9  and  N_10 
REMARK    5  A    between atoms: C_9  and  C_14 
REMARK       I    between atoms: N_10  and  C_11 
REMARK       I    between atoms: C_11  and  N_12 
REMARK    6  A    between atoms: C_14  and  C_15 
REMARK       I    between atoms: C_15  and  N_16 
REMARK    7  A    between atoms: N_16  and  N_17 
REMARK       I    between atoms: N_17  and  C_18 
REMARK    8  A    between atoms: C_18  and  C_19 
ROOT
HETATM    1  C   UNL     1       7.774  28.383  56.421  1.00  0.00     0.128 C 
ENDROOT
BRANCH   1   2
HETATM    2  C   UNL     1       8.310  29.555  57.255  1.00  0.00    -0.032 A 
HETATM    3  C   UNL     1       7.469  30.369  58.038  1.00  0.00     0.046 A 
HETATM    4  C   UNL     1       7.978  31.413  58.819  1.00  0.00     0.076 A 
HETATM    5  C   UNL     1       9.350  31.656  58.840  1.00  0.00     0.037 A 
HETATM    6  C   UNL     1      10.197  30.898  58.034  1.00  0.00     0.003 A 
HETATM    7  C   UNL     1       9.680  29.870  57.240  1.00  0.00     0.009 A 
BRANCH   4   8
HETATM    8  O   UNL     1       7.046  32.086  59.581  1.00  0.00    -0.311 OA
BRANCH   8   9
HETATM    9  C   UNL     1       7.296  32.290  60.915  1.00  0.00     0.076 A 
HETATM   10  C   UNL     1       6.755  33.365  61.625  1.00  0.00     0.037 A 
HETATM   11  C   UNL     1       7.012  33.491  62.991  1.00  0.00     0.003 A 
HETATM   12  C   UNL     1       7.782  32.530  63.649  1.00  0.00     0.000 A 
HETATM   13  C   UNL     1       8.292  31.439  62.944  1.00  0.00     0.003 A 
HETATM   14  C   UNL     1       8.042  31.315  61.578  1.00  0.00     0.037 A 
ENDBRANCH   8   9
ENDBRANCH   4   8
ENDBRANCH   1   2
BRANCH   1  15
HETATM   15  N   UNL     1       6.926  28.857  55.332  1.00  0.00    -0.334 N 
HETATM   16  C   UNL     1       7.061  28.393  54.064  1.00  0.00     0.314 C 
HETATM   17  N   UNL     1       6.161  28.930  53.209  1.00  0.00    -0.352 N 
HETATM   18  O   UNL     1       7.886  27.563  53.713  1.00  0.00    -0.248 OA
HETATM   19  H   UNL     1       5.915  29.899  53.344  1.00  0.00     0.160 HD
HETATM   20  H   UNL     1       6.317  28.667  52.242  1.00  0.00     0.160 HD
HETATM   21  H   UNL     1       6.030  29.260  55.572  1.00  0.00     0.165 HD
ENDBRANCH   1  15
BRANCH   1  22
HETATM   22  C   UNL     1       7.015  27.383  57.306  1.00  0.00     0.134 C 
BRANCH  22  23
HETATM   23  C   UNL     1       6.988  25.932  56.877  1.00  0.00     0.238 C 
HETATM   24  N   UNL     1       7.999  25.497  56.048  1.00  0.00    -0.267 N 
HETATM   25  H   UNL     1       8.391  26.113  55.326  1.00  0.00     0.190 HD
HETATM   26  O   UNL     1       6.162  25.151  57.358  1.00  0.00    -0.272 OA
BRANCH  24  27
HETATM   27  N   UNL     1       7.957  24.138  55.692  1.00  0.00    -0.262 N 
HETATM   28  C   UNL     1       8.021  23.759  54.365  1.00  0.00     0.293 C 
HETATM   29  O   UNL     1       7.984  24.567  53.439  1.00  0.00    -0.264 OA
HETATM   30  H   UNL     1       8.085  23.456  56.439  1.00  0.00     0.190 HD
BRANCH  28  31
HETATM   31  C   UNL     1       8.145  22.328  54.178  1.00  0.00     0.144 A 
HETATM   32  O   UNL     1       7.918  21.785  52.939  1.00  0.00    -0.317 OA
HETATM   33  C   UNL     1       8.082  20.442  53.051  1.00  0.00     0.143 A 
HETATM   34  C   UNL     1       8.418  20.104  54.340  1.00  0.00     0.027 A 
HETATM   35  C   UNL     1       8.459  21.318  55.068  1.00  0.00     0.045 A 
ENDBRANCH  28  31
ENDBRANCH  24  27
ENDBRANCH  22  23
ENDBRANCH   1  22
TORSDOF 8
ENDMDL
MODEL 7
REMARK VINA RESULT:      -9.0      2.442      3.602
REMARK  8 active torsions:
REMARK  status: ('A' for Active; 'I' for Inactive)
REMARK    1  A    between atoms: C_4  and  O_5 
REMARK    2  A    between atoms: O_5  and  C_6 
REMARK    3  A    between atoms: C_8  and  C_9 
REMARK    4  A    between atoms: C_9  and  N_10 
REMARK    5  A    between atoms: C_9  and  C_14 
REMARK       I    between atoms: N_10  and  C_11 
REMARK       I    between atoms: C_11  and  N_12 
REMARK    6  A    between atoms: C_14  and  C_15 
REMARK       I    between atoms: C_15  and  N_16 
REMARK    7  A    between atoms: N_16  and  N_17 
REMARK       I    between atoms: N_17  and  C_18 
REMARK    8  A    between atoms: C_18  and  C_19 
ROOT
HETATM    1  C   UNL     1       5.176  29.992  56.992  1.00  0.00     0.128 C 
ENDROOT
BRANCH   1   2
HETATM    2  C   UNL     1       6.081  28.754  56.924  1.00  0.00    -0.032 A 
HETATM    3  C   UNL     1       5.629  27.517  56.428  1.00  0.00     0.046 A 
HETATM    4  C   UNL     1       6.477  26.406  56.342  1.00  0.00     0.076 A 
HETATM    5  C   UNL     1       7.807  26.518  56.743  1.00  0.00     0.037 A 
HETATM    6  C   UNL     1       8.264  27.718  57.286  1.00  0.00     0.003 A 
HETATM    7  C   UNL     1       7.407  28.817  57.389  1.00  0.00     0.009 A 
BRANCH   4   8
HETATM    8  O   UNL     1       5.916  25.280  55.779  1.00  0.00    -0.311 OA
BRANCH   8   9
HETATM    9  C   UNL     1       6.653  24.539  54.889  1.00  0.00     0.076 A 
HETATM   10  C   UNL     1       7.192  23.292  55.214  1.00  0.00     0.037 A 
HETATM   11  C   UNL     1       7.895  22.570  54.248  1.00  0.00     0.003 A 
HETATM   12  C   UNL     1       8.032  23.080  52.956  1.00  0.00     0.000 A 
HETATM   13  C   UNL     1       7.463  24.310  52.624  1.00  0.00     0.003 A 
HETATM   14  C   UNL     1       6.766  25.036  53.590  1.00  0.00     0.037 A 
ENDBRANCH   8   9
ENDBRANCH   4   8
ENDBRANCH   1   2
BRANCH   1  15
HETATM   15  N   UNL     1       4.538  30.248  55.705  1.00  0.00    -0.334 N 
HETATM   16  C   UNL     1       3.327  30.855  55.612  1.00  0.00     0.314 C 
HETATM   17  N   UNL     1       2.924  31.031  54.334  1.00  0.00    -0.352 N 
HETATM   18  O   UNL     1       2.665  31.230  56.568  1.00  0.00    -0.248 OA
HETATM   19  H   UNL     1       3.150  30.304  53.672  1.00  0.00     0.160 HD
HETATM   20  H   UNL     1       1.980  31.391  54.255  1.00  0.00     0.160 HD
HETATM   21  H   UNL     1       5.128  30.293  54.886  1.00  0.00     0.165 HD
ENDBRANCH   1  15
BRANCH   1  22
HETATM   22  C   UNL     1       5.965  31.222  57.463  1.00  0.00     0.134 C 
BRANCH  22  23
HETATM   23  C   UNL     1       5.722  31.728  58.868  1.00  0.00     0.238 C 
HETATM   24  N   UNL     1       6.535  31.238  59.867  1.00  0.00    -0.267 N 
HETATM   25  H   UNL     1       6.864  30.266  59.851  1.00  0.00     0.190 HD
HETATM   26  O   UNL     1       4.913  32.636  59.077  1.00  0.00    -0.272 OA
BRANCH  24  27
HETATM   27  N   UNL     1       6.300  31.751  61.155  1.00  0.00    -0.262 N 
HETATM   28  C   UNL     1       7.326  31.829  62.077  1.00  0.00     0.293 C 
HETATM   29  O   UNL     1       8.439  31.345  61.877  1.00  0.00    -0.264 OA
HETATM   30  H   UNL     1       5.419  32.242  61.308  1.00  0.00     0.190 HD
BRANCH  28  31
HETATM   31  C   UNL     1       6.963  32.539  63.286  1.00  0.00     0.144 A 
HETATM   32  O   UNL     1       5.638  32.693  63.609  1.00  0.00    -0.317 OA
HETATM   33  C   UNL     1       5.585  33.404  64.764  1.00  0.00     0.143 A 
HETATM   34  C   UNL     1       6.853  33.710  65.201  1.00  0.00     0.027 A 
HETATM   35  C   UNL     1       7.741  33.154  64.249  1.00  0.00     0.045 A 
ENDBRANCH  28  31
ENDBRANCH  24  27
ENDBRANCH  22  23
ENDBRANCH   1  22
TORSDOF 8
ENDMDL
MODEL 8
REMARK VINA RESULT:      -8.9      1.956      2.318
REMARK  8 active torsions:
REMARK  status: ('A' for Active; 'I' for Inactive)
REMARK    1  A    between atoms: C_4  and  O_5 
REMARK    2  A    between atoms: O_5  and  C_6 
REMARK    3  A    between atoms: C_8  and  C_9 
REMARK    4  A    between atoms: C_9  and  N_10 
REMARK    5  A    between atoms: C_9  and  C_14 
REMARK       I    between atoms: N_10  and  C_11 
REMARK       I    between atoms: C_11  and  N_12 
REMARK    6  A    between atoms: C_14  and  C_15 
REMARK       I    between atoms: C_15  and  N_16 
REMARK    7  A    between atoms: N_16  and  N_17 
REMARK       I    between atoms: N_17  and  C_18 
REMARK    8  A    between atoms: C_18  and  C_19 
ROOT
HETATM    1  C   UNL     1       6.987  29.561  57.561  1.00  0.00     0.128 C 
ENDROOT
BRANCH   1   2
HETATM    2  C   UNL     1       6.606  28.129  57.159  1.00  0.00    -0.032 A 
HETATM    3  C   UNL     1       7.566  27.174  56.775  1.00  0.00     0.046 A 
HETATM    4  C   UNL     1       7.205  25.862  56.443  1.00  0.00     0.076 A 
HETATM    5  C   UNL     1       5.867  25.478  56.502  1.00  0.00     0.037 A 
HETATM    6  C   UNL     1       4.893  26.419  56.828  1.00  0.00     0.003 A 
HETATM    7  C   UNL     1       5.257  27.732  57.138  1.00  0.00     0.009 A 
BRANCH   4   8
HETATM    8  O   UNL     1       8.256  25.021  56.147  1.00  0.00    -0.311 OA
BRANCH   8   9
HETATM    9  C   UNL     1       8.108  24.094  55.145  1.00  0.00     0.076 A 
HETATM   10  C   UNL     1       7.954  24.455  53.804  1.00  0.00     0.037 A 
HETATM   11  C   UNL     1       7.853  23.462  52.828  1.00  0.00     0.003 A 
HETATM   12  C   UNL     1       7.934  22.116  53.189  1.00  0.00     0.000 A 
HETATM   13  C   UNL     1       8.122  21.759  54.525  1.00  0.00     0.003 A 
HETATM   14  C   UNL     1       8.216  22.750  55.502  1.00  0.00     0.037 A 
ENDBRANCH   8   9
ENDBRANCH   4   8
ENDBRANCH   1   2
BRANCH   1  15
HETATM   15  N   UNL     1       7.487  29.607  58.931  1.00  0.00    -0.334 N 
HETATM   16  C   UNL     1       8.599  30.309  59.266  1.00  0.00     0.314 C 
HETATM   17  N   UNL     1       8.876  30.254  60.589  1.00  0.00    -0.352 N 
HETATM   18  O   UNL     1       9.279  30.948  58.478  1.00  0.00    -0.248 OA
HETATM   19  H   UNL     1       8.695  29.383  61.064  1.00  0.00     0.160 HD
HETATM   20  H   UNL     1       9.758  30.690  60.834  1.00  0.00     0.160 HD
HETATM   21  H   UNL     1       6.834  29.413  59.679  1.00  0.00     0.165 HD
ENDBRANCH   1  15
BRANCH   1  22
HETATM   22  C   UNL     1       5.796  30.515  57.382  1.00  0.00     0.134 C 
BRANCH  22  23
HETATM   23  C   UNL     1       5.676  31.688  58.330  1.00  0.00     0.238 C 
HETATM   24  N   UNL     1       4.898  31.516  59.455  1.00  0.00    -0.267 N 
HETATM   25  H   UNL     1       4.044  30.947  59.424  1.00  0.00     0.190 HD
HETATM   26  O   UNL     1       6.354  32.706  58.159  1.00  0.00    -0.272 OA
BRANCH  24  27
HETATM   27  N   UNL     1       4.831  32.617  60.327  1.00  0.00    -0.262 N 
HETATM   28  C   UNL     1       5.736  32.745  61.363  1.00  0.00     0.293 C 
HETATM   29  O   UNL     1       6.543  31.865  61.656  1.00  0.00    -0.264 OA
HETATM   30  H   UNL     1       4.240  33.399  60.046  1.00  0.00     0.190 HD
BRANCH  28  31
HETATM   31  C   UNL     1       5.645  34.015  62.055  1.00  0.00     0.144 A 
HETATM   32  O   UNL     1       5.053  35.084  61.431  1.00  0.00    -0.317 OA
HETATM   33  C   UNL     1       5.120  36.136  62.286  1.00  0.00     0.143 A 
HETATM   34  C   UNL     1       5.739  35.768  63.457  1.00  0.00     0.027 A 
HETATM   35  C   UNL     1       6.078  34.401  63.309  1.00  0.00     0.045 A 
ENDBRANCH  28  31
ENDBRANCH  24  27
ENDBRANCH  22  23
ENDBRANCH   1  22
TORSDOF 8
ENDMDL
MODEL 9
REMARK VINA RESULT:      -8.8      4.408      7.520
REMARK  8 active torsions:
REMARK  status: ('A' for Active; 'I' for Inactive)
REMARK    1  A    between atoms: C_4  and  O_5 
REMARK    2  A    between atoms: O_5  and  C_6 
REMARK    3  A    between atoms: C_8  and  C_9 
REMARK    4  A    between atoms: C_9  and  N_10 
REMARK    5  A    between atoms: C_9  and  C_14 
REMARK       I    between atoms: N_10  and  C_11 
REMARK       I    between atoms: C_11  and  N_12 
REMARK    6  A    between atoms: C_14  and  C_15 
REMARK       I    between atoms: C_15  and  N_16 
REMARK    7  A    between atoms: N_16  and  N_17 
REMARK       I    between atoms: N_17  and  C_18 
REMARK    8  A    between atoms: C_18  and  C_19 
ROOT
HETATM    1  C   UNL     1       6.917  28.697  55.774  1.00  0.00     0.128 C 
ENDROOT
BRANCH   1   2
HETATM    2  C   UNL     1       6.734  27.205  56.085  1.00  0.00    -0.032 A 
HETATM    3  C   UNL     1       7.721  26.247  55.785  1.00  0.00     0.046 A 
HETATM    4  C   UNL     1       7.552  24.895  56.106  1.00  0.00     0.076 A 
HETATM    5  C   UNL     1       6.390  24.476  56.749  1.00  0.00     0.037 A 
HETATM    6  C   UNL     1       5.377  25.397  57.011  1.00  0.00     0.003 A 
HETATM    7  C   UNL     1       5.541  26.742  56.669  1.00  0.00     0.009 A 
BRANCH   4   8
HETATM    8  O   UNL     1       8.625  24.082  55.809  1.00  0.00    -0.311 OA
BRANCH   8   9
HETATM    9  C   UNL     1       8.414  22.932  55.088  1.00  0.00     0.076 A 
HETATM   10  C   UNL     1       8.349  21.672  55.686  1.00  0.00     0.037 A 
HETATM   11  C   UNL     1       8.087  20.547  54.902  1.00  0.00     0.003 A 
HETATM   12  C   UNL     1       7.864  20.687  53.531  1.00  0.00     0.000 A 
HETATM   13  C   UNL     1       7.896  21.952  52.942  1.00  0.00     0.003 A 
HETATM   14  C   UNL     1       8.164  23.076  53.723  1.00  0.00     0.037 A 
ENDBRANCH   8   9
ENDBRANCH   4   8
ENDBRANCH   1   2
BRANCH   1  15
HETATM   15  N   UNL     1       7.504  29.403  56.907  1.00  0.00    -0.334 N 
HETATM   16  C   UNL     1       8.835  29.656  56.984  1.00  0.00     0.314 C 
HETATM   17  N   UNL     1       9.176  30.350  58.094  1.00  0.00    -0.352 N 
HETATM   18  O   UNL     1       9.654  29.321  56.141  1.00  0.00    -0.248 OA
HETATM   19  H   UNL     1       8.676  30.138  58.944  1.00  0.00     0.160 HD
HETATM   20  H   UNL     1      10.177  30.456  58.211  1.00  0.00     0.160 HD
HETATM   21  H   UNL     1       6.900  30.000  57.457  1.00  0.00     0.165 HD
ENDBRANCH   1  15
BRANCH   1  22
HETATM   22  C   UNL     1       5.582  29.338  55.365  1.00  0.00     0.134 C 
BRANCH  22  23
HETATM   23  C   UNL     1       4.960  28.912  54.053  1.00  0.00     0.238 C 
HETATM   24  N   UNL     1       5.733  29.030  52.918  1.00  0.00    -0.267 N 
HETATM   25  H   UNL     1       6.392  29.809  52.806  1.00  0.00     0.190 HD
HETATM   26  O   UNL     1       3.854  28.366  54.031  1.00  0.00    -0.272 OA
BRANCH  24  27
HETATM   27  N   UNL     1       5.134  28.599  51.721  1.00  0.00    -0.262 N 
HETATM   28  C   UNL     1       5.429  29.224  50.525  1.00  0.00     0.293 C 
HETATM   29  O   UNL     1       6.109  30.247  50.458  1.00  0.00    -0.264 OA
HETATM   30  H   UNL     1       4.650  27.702  51.739  1.00  0.00     0.190 HD
BRANCH  28  31
HETATM   31  C   UNL     1       4.872  28.552  49.369  1.00  0.00     0.144 A 
HETATM   32  O   UNL     1       3.585  28.076  49.419  1.00  0.00    -0.317 OA
HETATM   33  C   UNL     1       3.329  27.482  48.225  1.00  0.00     0.143 A 
HETATM   34  C   UNL     1       4.424  27.570  47.399  1.00  0.00     0.027 A 
HETATM   35  C   UNL     1       5.419  28.258  48.135  1.00  0.00     0.045 A 
ENDBRANCH  28  31
ENDBRANCH  24  27
ENDBRANCH  22  23
ENDBRANCH   1  22
TORSDOF 8
ENDMDL
MODEL 10
REMARK VINA RESULT:      -8.8      2.488     10.790
REMARK  8 active torsions:
REMARK  status: ('A' for Active; 'I' for Inactive)
REMARK    1  A    between atoms: C_4  and  O_5 
REMARK    2  A    between atoms: O_5  and  C_6 
REMARK    3  A    between atoms: C_8  and  C_9 
REMARK    4  A    between atoms: C_9  and  N_10 
REMARK    5  A    between atoms: C_9  and  C_14 
REMARK       I    between atoms: N_10  and  C_11 
REMARK       I    between atoms: C_11  and  N_12 
REMARK    6  A    between atoms: C_14  and  C_15 
REMARK       I    between atoms: C_15  and  N_16 
REMARK    7  A    between atoms: N_16  and  N_17 
REMARK       I    between atoms: N_17  and  C_18 
REMARK    8  A    between atoms: C_18  and  C_19 
ROOT
HETATM    1  C   UNL     1       6.521  32.107  59.573  1.00  0.00     0.128 C 
ENDROOT
BRANCH   1   2
HETATM    2  C   UNL     1       6.782  32.331  61.070  1.00  0.00    -0.032 A 
HETATM    3  C   UNL     1       5.740  32.542  61.992  1.00  0.00     0.046 A 
HETATM    4  C   UNL     1       5.993  32.711  63.359  1.00  0.00     0.076 A 
HETATM    5  C   UNL     1       7.303  32.659  63.831  1.00  0.00     0.037 A 
HETATM    6  C   UNL     1       8.355  32.502  62.931  1.00  0.00     0.003 A 
HETATM    7  C   UNL     1       8.098  32.356  61.565  1.00  0.00     0.009 A 
BRANCH   4   8
HETATM    8  O   UNL     1       4.874  32.848  64.152  1.00  0.00    -0.311 OA
BRANCH   8   9
HETATM    9  C   UNL     1       4.732  33.977  64.919  1.00  0.00     0.076 A 
HETATM   10  C   UNL     1       4.536  35.244  64.363  1.00  0.00     0.037 A 
HETATM   11  C   UNL     1       4.354  36.345  65.201  1.00  0.00     0.003 A 
HETATM   12  C   UNL     1       4.339  36.176  66.586  1.00  0.00     0.000 A 
HETATM   13  C   UNL     1       4.501  34.904  67.138  1.00  0.00     0.003 A 
HETATM   14  C   UNL     1       4.690  33.803  66.303  1.00  0.00     0.037 A 
ENDBRANCH   8   9
ENDBRANCH   4   8
ENDBRANCH   1   2
BRANCH   1  15
HETATM   15  N   UNL     1       5.420  31.172  59.365  1.00  0.00    -0.334 N 
HETATM   16  C   UNL     1       4.327  31.502  58.631  1.00  0.00     0.314 C 
HETATM   17  N   UNL     1       3.437  30.489  58.529  1.00  0.00    -0.352 N 
HETATM   18  O   UNL     1       4.154  32.585  58.093  1.00  0.00    -0.248 OA
HETATM   19  H   UNL     1       3.315  29.896  59.337  1.00  0.00     0.160 HD
HETATM   20  H   UNL     1       2.574  30.755  58.069  1.00  0.00     0.160 HD
HETATM   21  H   UNL     1       5.614  30.185  59.467  1.00  0.00     0.165 HD
ENDBRANCH   1  15
BRANCH   1  22
HETATM   22  C   UNL     1       7.792  31.619  58.862  1.00  0.00     0.134 C 
BRANCH  22  23
HETATM   23  C   UNL     1       7.805  30.208  58.316  1.00  0.00     0.238 C 
HETATM   24  N   UNL     1       7.403  30.031  57.010  1.00  0.00    -0.267 N 
HETATM   25  H   UNL     1       6.651  30.602  56.607  1.00  0.00     0.190 HD
HETATM   26  O   UNL     1       8.278  29.282  58.981  1.00  0.00    -0.272 OA
BRANCH  24  27
HETATM   27  N   UNL     1       7.454  28.712  56.527  1.00  0.00    -0.262 N 
HETATM   28  C   UNL     1       6.317  27.927  56.511  1.00  0.00     0.293 C 
HETATM   29  O   UNL     1       5.257  28.280  57.026  1.00  0.00    -0.264 OA
HETATM   30  H   UNL     1       8.289  28.436  56.011  1.00  0.00     0.190 HD
BRANCH  28  31
HETATM   31  C   UNL     1       6.496  26.665  55.824  1.00  0.00     0.144 A 
HETATM   32  O   UNL     1       7.512  26.530  54.911  1.00  0.00    -0.317 OA
HETATM   33  C   UNL     1       7.438  25.270  54.411  1.00  0.00     0.143 A 
HETATM   34  C   UNL     1       6.396  24.583  54.987  1.00  0.00     0.027 A 
HETATM   35  C   UNL     1       5.788  25.480  55.897  1.00  0.00     0.045 A 
ENDBRANCH  28  31
ENDBRANCH  24  27
ENDBRANCH  22  23
ENDBRANCH   1  22
TORSDOF 8
ENDMDL
