MODEL 1
REMARK VINA RESULT:      -9.3      0.000      0.000
REMARK  4 active torsions:
REMARK  status: ('A' for Active; 'I' for Inactive)
REMARK    1  A    between atoms: C_3  and  C_4 
REMARK    2  A    between atoms: C_15  and  C_16 
REMARK       I    between atoms: C_16  and  N_17 
REMARK    3  A    between atoms: N_17  and  C_18 
REMARK    4  A    between atoms: C_18  and  C_19 
ROOT
HETATM    1  C   UNL     1       5.074  25.124  51.463  1.00  0.00     0.055 C 
HETATM    2  C   UNL     1       5.807  25.215  52.768  1.00  0.00     0.024 A 
HETATM    3  C   UNL     1       5.849  26.268  53.606  1.00  0.00     0.096 A 
HETATM    4  O   UNL     1       6.482  26.281  54.834  1.00  0.00    -0.307 OA
HETATM    5  C   UNL     1       7.218  25.194  55.229  1.00  0.00     0.106 A 
HETATM    6  C   UNL     1       7.309  24.054  54.431  1.00  0.00     0.050 A 
HETATM    7  C   UNL     1       6.562  24.002  53.164  1.00  0.00     0.193 A 
HETATM    8  O   UNL     1       6.579  22.996  52.463  1.00  0.00    -0.287 OA
HETATM    9  C   UNL     1       7.885  25.230  56.465  1.00  0.00     0.066 A 
HETATM   10  C   UNL     1       8.663  24.121  56.852  1.00  0.00     0.020 A 
HETATM   11  C   UNL     1       8.768  22.995  56.034  1.00  0.00     0.002 A 
HETATM   12  C   UNL     1       8.082  22.957  54.825  1.00  0.00     0.018 A 
ENDROOT
BRANCH   9  13
HETATM   13  C   UNL     1       7.786  26.352  57.453  1.00  0.00     0.255 C 
HETATM   14  N   UNL     1       7.633  27.630  56.970  1.00  0.00    -0.349 N 
HETATM   15  H   UNL     1       7.570  27.785  55.971  1.00  0.00     0.163 HD
HETATM   16  O   UNL     1       7.838  26.105  58.654  1.00  0.00    -0.268 OA
BRANCH  14  17
HETATM   17  C   UNL     1       7.349  28.754  57.844  1.00  0.00     0.114 C 
HETATM   18  C   UNL     1       6.062  29.456  57.399  1.00  0.00     0.037 C 
BRANCH  17  19
HETATM   19  C   UNL     1       8.558  29.663  57.905  1.00  0.00    -0.033 A 
HETATM   20  C   UNL     1       8.590  30.839  58.661  1.00  0.00     0.028 A 
HETATM   21  C   UNL     1       9.739  31.617  58.640  1.00  0.00     0.116 A 
HETATM   22  N   UNL     1      10.839  31.317  57.920  1.00  0.00    -0.273 NA
HETATM   23  C   UNL     1      10.787  30.190  57.180  1.00  0.00     0.116 A 
HETATM   24  C   UNL     1       9.687  29.348  57.137  1.00  0.00     0.028 A 
ENDBRANCH  17  19
ENDBRANCH  14  17
ENDBRANCH   9  13
BRANCH   3  25
HETATM   25  C   UNL     1       5.215  27.559  53.299  1.00  0.00    -0.002 A 
HETATM   26  C   UNL     1       4.239  28.090  54.150  1.00  0.00     0.014 A 
HETATM   27  C   UNL     1       3.655  29.324  53.861  1.00  0.00     0.001 A 
HETATM   28  C   UNL     1       4.045  30.038  52.729  1.00  0.00     0.000 A 
HETATM   29  C   UNL     1       5.024  29.521  51.883  1.00  0.00     0.001 A 
HETATM   30  C   UNL     1       5.610  28.287  52.169  1.00  0.00     0.014 A 
ENDBRANCH   3  25
TORSDOF 4
ENDMDL
MODEL 2
REMARK VINA RESULT:      -9.3      2.806      7.285
REMARK  4 active torsions:
REMARK  status: ('A' for Active; 'I' for Inactive)
REMARK    1  A    between atoms: C_3  and  C_4 
REMARK    2  A    between atoms: C_15  and  C_16 
REMARK       I    between atoms: C_16  and  N_17 
REMARK    3  A    between atoms: N_17  and  C_18 
REMARK    4  A    between atoms: C_18  and  C_19 
ROOT
HETATM    1  C   UNL     1       8.677  24.984  57.399  1.00  0.00     0.055 C 
HETATM    2  C   UNL     1       7.791  25.892  56.599  1.00  0.00     0.024 A 
HETATM    3  C   UNL     1       7.226  25.633  55.405  1.00  0.00     0.096 A 
HETATM    4  O   UNL     1       6.358  26.476  54.737  1.00  0.00    -0.307 OA
HETATM    5  C   UNL     1       6.098  27.722  55.246  1.00  0.00     0.106 A 
HETATM    6  C   UNL     1       6.663  28.145  56.450  1.00  0.00     0.050 A 
HETATM    7  C   UNL     1       7.516  27.216  57.209  1.00  0.00     0.193 A 
HETATM    8  O   UNL     1       7.986  27.536  58.294  1.00  0.00    -0.287 OA
HETATM    9  C   UNL     1       5.240  28.584  54.543  1.00  0.00     0.066 A 
HETATM   10  C   UNL     1       4.999  29.874  55.056  1.00  0.00     0.020 A 
HETATM   11  C   UNL     1       5.589  30.295  56.248  1.00  0.00     0.002 A 
HETATM   12  C   UNL     1       6.415  29.426  56.952  1.00  0.00     0.018 A 
ENDROOT
BRANCH   9  13
HETATM   13  C   UNL     1       4.497  28.214  53.296  1.00  0.00     0.255 C 
HETATM   14  N   UNL     1       5.227  27.850  52.190  1.00  0.00    -0.349 N 
HETATM   15  H   UNL     1       6.239  27.819  52.243  1.00  0.00     0.163 HD
HETATM   16  O   UNL     1       3.270  28.239  53.294  1.00  0.00    -0.268 OA
BRANCH  14  17
HETATM   17  C   UNL     1       4.601  27.305  50.999  1.00  0.00     0.114 C 
HETATM   18  C   UNL     1       5.224  25.950  50.649  1.00  0.00     0.037 C 
BRANCH  17  19
HETATM   19  C   UNL     1       4.672  28.323  49.880  1.00  0.00    -0.033 A 
HETATM   20  C   UNL     1       4.183  28.077  48.594  1.00  0.00     0.028 A 
HETATM   21  C   UNL     1       4.309  29.068  47.630  1.00  0.00     0.116 A 
HETATM   22  N   UNL     1       4.891  30.264  47.850  1.00  0.00    -0.273 NA
HETATM   23  C   UNL     1       5.376  30.481  49.091  1.00  0.00     0.116 A 
HETATM   24  C   UNL     1       5.296  29.555  50.119  1.00  0.00     0.028 A 
ENDBRANCH  17  19
ENDBRANCH  14  17
ENDBRANCH   9  13
BRANCH   3  25
HETATM   25  C   UNL     1       7.481  24.396  54.652  1.00  0.00    -0.002 A 
HETATM   26  C   UNL     1       7.411  23.152  55.287  1.00  0.00     0.014 A 
HETATM   27  C   UNL     1       7.637  21.981  54.562  1.00  0.00     0.001 A 
HETATM   28  C   UNL     1       7.925  22.043  53.200  1.00  0.00     0.000 A 
HETATM   29  C   UNL     1       7.986  23.279  52.558  1.00  0.00     0.001 A 
HETATM   30  C   UNL     1       7.761  24.451  53.280  1.00  0.00     0.014 A 
ENDBRANCH   3  25
TORSDOF 4
ENDMDL
MODEL 3
REMARK VINA RESULT:      -9.2      4.497      8.310
REMARK  4 active torsions:
REMARK  status: ('A' for Active; 'I' for Inactive)
REMARK    1  A    between atoms: C_3  and  C_4 
REMARK    2  A    between atoms: C_15  and  C_16 
REMARK       I    between atoms: C_16  and  N_17 
REMARK    3  A    between atoms: N_17  and  C_18 
REMARK    4  A    between atoms: C_18  and  C_19 
ROOT
HETATM    1  C   UNL     1       3.030  34.351  59.902  1.00  0.00     0.055 C 
HETATM    2  C   UNL     1       4.280  33.650  60.343  1.00  0.00     0.024 A 
HETATM    3  C   UNL     1       4.964  32.704  59.672  1.00  0.00     0.096 A 
HETATM    4  O   UNL     1       6.152  32.136  60.089  1.00  0.00    -0.307 OA
HETATM    5  C   UNL     1       6.664  32.459  61.320  1.00  0.00     0.106 A 
HETATM    6  C   UNL     1       6.027  33.385  62.147  1.00  0.00     0.050 A 
HETATM    7  C   UNL     1       4.809  34.059  61.668  1.00  0.00     0.193 A 
HETATM    8  O   UNL     1       4.254  34.915  62.347  1.00  0.00    -0.287 OA
HETATM    9  C   UNL     1       7.856  31.852  61.748  1.00  0.00     0.066 A 
HETATM   10  C   UNL     1       8.360  32.167  63.025  1.00  0.00     0.020 A 
HETATM   11  C   UNL     1       7.701  33.075  63.855  1.00  0.00     0.002 A 
HETATM   12  C   UNL     1       6.537  33.693  63.412  1.00  0.00     0.018 A 
ENDROOT
BRANCH   9  13
HETATM   13  C   UNL     1       8.683  30.921  60.917  1.00  0.00     0.255 C 
HETATM   14  N   UNL     1       8.575  31.003  59.549  1.00  0.00    -0.349 N 
HETATM   15  H   UNL     1       7.963  31.695  59.134  1.00  0.00     0.163 HD
HETATM   16  O   UNL     1       9.432  30.121  61.470  1.00  0.00    -0.268 OA
BRANCH  14  17
HETATM   17  C   UNL     1       9.463  30.273  58.661  1.00  0.00     0.114 C 
HETATM   18  C   UNL     1      10.567  31.198  58.142  1.00  0.00     0.037 C 
BRANCH  17  19
HETATM   19  C   UNL     1       8.650  29.610  57.569  1.00  0.00    -0.033 A 
HETATM   20  C   UNL     1       9.191  29.242  56.333  1.00  0.00     0.028 A 
HETATM   21  C   UNL     1       8.361  28.655  55.388  1.00  0.00     0.116 A 
HETATM   22  N   UNL     1       7.046  28.424  55.578  1.00  0.00    -0.273 NA
HETATM   23  C   UNL     1       6.533  28.803  56.768  1.00  0.00     0.116 A 
HETATM   24  C   UNL     1       7.281  29.393  57.775  1.00  0.00     0.028 A 
ENDBRANCH  17  19
ENDBRANCH  14  17
ENDBRANCH   9  13
BRANCH   3  25
HETATM   25  C   UNL     1       4.508  32.148  58.390  1.00  0.00    -0.002 A 
HETATM   26  C   UNL     1       4.983  32.668  57.182  1.00  0.00     0.014 A 
HETATM   27  C   UNL     1       4.559  32.124  55.969  1.00  0.00     0.001 A 
HETATM   28  C   UNL     1       3.666  31.053  55.954  1.00  0.00     0.000 A 
HETATM   29  C   UNL     1       3.196  30.523  57.153  1.00  0.00     0.001 A 
HETATM   30  C   UNL     1       3.618  31.065  58.368  1.00  0.00     0.014 A 
ENDBRANCH   3  25
TORSDOF 4
ENDMDL
MODEL 4
REMARK VINA RESULT:      -8.9      4.007      6.178
REMARK  4 active torsions:
REMARK  status: ('A' for Active; 'I' for Inactive)
REMARK    1  A    between atoms: C_3  and  C_4 
REMARK    2  A    between atoms: C_15  and  C_16 
REMARK       I    between atoms: C_16  and  N_17 
REMARK    3  A    between atoms: N_17  and  C_18 
REMARK    4  A    between atoms: C_18  and  C_19 
ROOT
HETATM    1  C   UNL     1       2.641  30.841  56.275  1.00  0.00     0.055 C 
HETATM    2  C   UNL     1       4.027  30.533  56.757  1.00  0.00     0.024 A 
HETATM    3  C   UNL     1       4.808  31.304  57.537  1.00  0.00     0.096 A 
HETATM    4  O   UNL     1       6.055  30.946  58.014  1.00  0.00    -0.307 OA
HETATM    5  C   UNL     1       6.621  29.765  57.611  1.00  0.00     0.106 A 
HETATM    6  C   UNL     1       5.946  28.892  56.757  1.00  0.00     0.050 A 
HETATM    7  C   UNL     1       4.581  29.229  56.319  1.00  0.00     0.193 A 
HETATM    8  O   UNL     1       3.940  28.461  55.611  1.00  0.00    -0.287 OA
HETATM    9  C   UNL     1       7.903  29.425  58.077  1.00  0.00     0.066 A 
HETATM   10  C   UNL     1       8.491  28.223  57.636  1.00  0.00     0.020 A 
HETATM   11  C   UNL     1       7.816  27.370  56.762  1.00  0.00     0.002 A 
HETATM   12  C   UNL     1       6.537  27.700  56.328  1.00  0.00     0.018 A 
ENDROOT
BRANCH   9  13
HETATM   13  C   UNL     1       8.687  30.225  59.069  1.00  0.00     0.255 C 
HETATM   14  N   UNL     1       8.093  30.533  60.270  1.00  0.00    -0.349 N 
HETATM   15  H   UNL     1       7.156  30.200  60.466  1.00  0.00     0.163 HD
HETATM   16  O   UNL     1       9.830  30.577  58.793  1.00  0.00    -0.268 OA
BRANCH  14  17
HETATM   17  C   UNL     1       8.830  31.145  61.361  1.00  0.00     0.114 C 
HETATM   18  C   UNL     1       9.390  30.065  62.290  1.00  0.00     0.037 C 
BRANCH  17  19
HETATM   19  C   UNL     1       7.950  32.162  62.057  1.00  0.00    -0.033 A 
HETATM   20  C   UNL     1       8.062  32.462  63.418  1.00  0.00     0.028 A 
HETATM   21  C   UNL     1       7.197  33.397  63.970  1.00  0.00     0.116 A 
HETATM   22  N   UNL     1       6.235  34.036  63.275  1.00  0.00    -0.273 NA
HETATM   23  C   UNL     1       6.126  33.723  61.966  1.00  0.00     0.116 A 
HETATM   24  C   UNL     1       6.942  32.805  61.325  1.00  0.00     0.028 A 
ENDBRANCH  17  19
ENDBRANCH  14  17
ENDBRANCH   9  13
BRANCH   3  25
HETATM   25  C   UNL     1       4.418  32.652  57.973  1.00  0.00    -0.002 A 
HETATM   26  C   UNL     1       3.692  32.833  59.156  1.00  0.00     0.014 A 
HETATM   27  C   UNL     1       3.339  34.117  59.573  1.00  0.00     0.001 A 
HETATM   28  C   UNL     1       3.716  35.228  58.820  1.00  0.00     0.000 A 
HETATM   29  C   UNL     1       4.448  35.057  57.646  1.00  0.00     0.001 A 
HETATM   30  C   UNL     1       4.802  33.775  57.226  1.00  0.00     0.014 A 
ENDBRANCH   3  25
TORSDOF 4
ENDMDL
MODEL 5
REMARK VINA RESULT:      -8.9      1.863      4.699
REMARK  4 active torsions:
REMARK  status: ('A' for Active; 'I' for Inactive)
REMARK    1  A    between atoms: C_3  and  C_4 
REMARK    2  A    between atoms: C_15  and  C_16 
REMARK       I    between atoms: C_16  and  N_17 
REMARK    3  A    between atoms: N_17  and  C_18 
REMARK    4  A    between atoms: C_18  and  C_19 
ROOT
HETATM    1  C   UNL     1       5.255  26.002  50.691  1.00  0.00     0.055 C 
HETATM    2  C   UNL     1       5.137  26.859  51.915  1.00  0.00     0.024 A 
HETATM    3  C   UNL     1       5.693  26.639  53.121  1.00  0.00     0.096 A 
HETATM    4  O   UNL     1       5.613  27.495  54.202  1.00  0.00    -0.307 OA
HETATM    5  C   UNL     1       4.838  28.623  54.117  1.00  0.00     0.106 A 
HETATM    6  C   UNL     1       4.157  28.946  52.943  1.00  0.00     0.050 A 
HETATM    7  C   UNL     1       4.312  28.083  51.761  1.00  0.00     0.193 A 
HETATM    8  O   UNL     1       3.769  28.365  50.699  1.00  0.00    -0.287 OA
HETATM    9  C   UNL     1       4.737  29.471  55.233  1.00  0.00     0.066 A 
HETATM   10  C   UNL     1       3.916  30.613  55.149  1.00  0.00     0.020 A 
HETATM   11  C   UNL     1       3.218  30.913  53.978  1.00  0.00     0.002 A 
HETATM   12  C   UNL     1       3.346  30.084  52.869  1.00  0.00     0.018 A 
ENDROOT
BRANCH   9  13
HETATM   13  C   UNL     1       5.493  29.287  56.512  1.00  0.00     0.255 C 
HETATM   14  N   UNL     1       6.620  30.047  56.715  1.00  0.00    -0.349 N 
HETATM   15  H   UNL     1       6.903  30.722  56.014  1.00  0.00     0.163 HD
HETATM   16  O   UNL     1       5.089  28.477  57.341  1.00  0.00    -0.268 OA
BRANCH  14  17
HETATM   17  C   UNL     1       7.314  30.072  57.990  1.00  0.00     0.114 C 
HETATM   18  C   UNL     1       6.805  31.237  58.845  1.00  0.00     0.037 C 
BRANCH  17  19
HETATM   19  C   UNL     1       8.809  30.090  57.750  1.00  0.00    -0.033 A 
HETATM   20  C   UNL     1       9.668  31.011  58.359  1.00  0.00     0.028 A 
HETATM   21  C   UNL     1      11.022  30.959  58.063  1.00  0.00     0.116 A 
HETATM   22  N   UNL     1      11.574  30.075  57.206  1.00  0.00    -0.273 NA
HETATM   23  C   UNL     1      10.731  29.205  56.611  1.00  0.00     0.116 A 
HETATM   24  C   UNL     1       9.364  29.177  56.843  1.00  0.00     0.028 A 
ENDBRANCH  17  19
ENDBRANCH  14  17
ENDBRANCH   9  13
BRANCH   3  25
HETATM   25  C   UNL     1       6.464  25.427  53.435  1.00  0.00    -0.002 A 
HETATM   26  C   UNL     1       6.273  24.760  54.650  1.00  0.00     0.014 A 
HETATM   27  C   UNL     1       6.995  23.600  54.934  1.00  0.00     0.001 A 
HETATM   28  C   UNL     1       7.905  23.094  54.006  1.00  0.00     0.000 A 
HETATM   29  C   UNL     1       8.092  23.747  52.789  1.00  0.00     0.001 A 
HETATM   30  C   UNL     1       7.372  24.907  52.502  1.00  0.00     0.014 A 
ENDBRANCH   3  25
TORSDOF 4
ENDMDL
MODEL 6
REMARK VINA RESULT:      -8.6      1.577      2.694
REMARK  4 active torsions:
REMARK  status: ('A' for Active; 'I' for Inactive)
REMARK    1  A    between atoms: C_3  and  C_4 
REMARK    2  A    between atoms: C_15  and  C_16 
REMARK       I    between atoms: C_16  and  N_17 
REMARK    3  A    between atoms: N_17  and  C_18 
REMARK    4  A    between atoms: C_18  and  C_19 
ROOT
HETATM    1  C   UNL     1       3.649  28.445  50.560  1.00  0.00     0.055 C 
HETATM    2  C   UNL     1       4.581  27.886  51.593  1.00  0.00     0.024 A 
HETATM    3  C   UNL     1       4.823  28.378  52.823  1.00  0.00     0.096 A 
HETATM    4  O   UNL     1       5.639  27.789  53.768  1.00  0.00    -0.307 OA
HETATM    5  C   UNL     1       6.354  26.665  53.442  1.00  0.00     0.106 A 
HETATM    6  C   UNL     1       6.243  26.079  52.180  1.00  0.00     0.050 A 
HETATM    7  C   UNL     1       5.306  26.653  51.201  1.00  0.00     0.193 A 
HETATM    8  O   UNL     1       5.146  26.133  50.102  1.00  0.00    -0.287 OA
HETATM    9  C   UNL     1       7.206  26.091  54.400  1.00  0.00     0.066 A 
HETATM   10  C   UNL     1       7.959  24.954  54.048  1.00  0.00     0.020 A 
HETATM   11  C   UNL     1       7.859  24.391  52.775  1.00  0.00     0.002 A 
HETATM   12  C   UNL     1       6.993  24.948  51.841  1.00  0.00     0.018 A 
ENDROOT
BRANCH   9  13
HETATM   13  C   UNL     1       7.338  26.566  55.814  1.00  0.00     0.255 C 
HETATM   14  N   UNL     1       7.599  27.898  56.030  1.00  0.00    -0.349 N 
HETATM   15  H   UNL     1       7.677  28.529  55.241  1.00  0.00     0.163 HD
HETATM   16  O   UNL     1       7.203  25.765  56.735  1.00  0.00    -0.268 OA
BRANCH  14  17
HETATM   17  C   UNL     1       7.565  28.485  57.358  1.00  0.00     0.114 C 
HETATM   18  C   UNL     1       6.209  29.152  57.605  1.00  0.00     0.037 C 
BRANCH  17  19
HETATM   19  C   UNL     1       8.750  29.412  57.530  1.00  0.00    -0.033 A 
HETATM   20  C   UNL     1       9.988  29.187  56.920  1.00  0.00     0.028 A 
HETATM   21  C   UNL     1      11.021  30.085  57.152  1.00  0.00     0.116 A 
HETATM   22  N   UNL     1      10.912  31.169  57.947  1.00  0.00    -0.273 NA
HETATM   23  C   UNL     1       9.718  31.363  58.544  1.00  0.00     0.116 A 
HETATM   24  C   UNL     1       8.628  30.524  58.373  1.00  0.00     0.028 A 
ENDBRANCH  17  19
ENDBRANCH  14  17
ENDBRANCH   9  13
BRANCH   3  25
HETATM   25  C   UNL     1       4.237  29.636  53.309  1.00  0.00    -0.002 A 
HETATM   26  C   UNL     1       4.052  30.716  52.438  1.00  0.00     0.014 A 
HETATM   27  C   UNL     1       3.479  31.901  52.902  1.00  0.00     0.001 A 
HETATM   28  C   UNL     1       3.080  32.013  54.233  1.00  0.00     0.000 A 
HETATM   29  C   UNL     1       3.251  30.939  55.104  1.00  0.00     0.001 A 
HETATM   30  C   UNL     1       3.824  29.753  54.643  1.00  0.00     0.014 A 
ENDBRANCH   3  25
TORSDOF 4
ENDMDL
MODEL 7
REMARK VINA RESULT:      -8.5      5.833      9.559
REMARK  4 active torsions:
REMARK  status: ('A' for Active; 'I' for Inactive)
REMARK    1  A    between atoms: C_3  and  C_4 
REMARK    2  A    between atoms: C_15  and  C_16 
REMARK       I    between atoms: C_16  and  N_17 
REMARK    3  A    between atoms: N_17  and  C_18 
REMARK    4  A    between atoms: C_18  and  C_19 
ROOT
HETATM    1  C   UNL     1       9.365  30.971  61.552  1.00  0.00     0.055 C 
HETATM    2  C   UNL     1       8.213  31.299  60.651  1.00  0.00     0.024 A 
HETATM    3  C   UNL     1       7.223  32.183  60.882  1.00  0.00     0.096 A 
HETATM    4  O   UNL     1       6.219  32.503  59.989  1.00  0.00    -0.307 OA
HETATM    5  C   UNL     1       6.126  31.826  58.801  1.00  0.00     0.106 A 
HETATM    6  C   UNL     1       7.054  30.842  58.455  1.00  0.00     0.050 A 
HETATM    7  C   UNL     1       8.177  30.562  59.364  1.00  0.00     0.193 A 
HETATM    8  O   UNL     1       9.037  29.741  59.068  1.00  0.00    -0.287 OA
HETATM    9  C   UNL     1       5.083  32.137  57.913  1.00  0.00     0.066 A 
HETATM   10  C   UNL     1       4.977  31.417  56.707  1.00  0.00     0.020 A 
HETATM   11  C   UNL     1       5.895  30.418  56.382  1.00  0.00     0.002 A 
HETATM   12  C   UNL     1       6.941  30.135  57.253  1.00  0.00     0.018 A 
ENDROOT
BRANCH   9  13
HETATM   13  C   UNL     1       4.086  33.235  58.124  1.00  0.00     0.255 C 
HETATM   14  N   UNL     1       4.519  34.401  58.708  1.00  0.00    -0.349 N 
HETATM   15  H   UNL     1       5.494  34.503  58.963  1.00  0.00     0.163 HD
HETATM   16  O   UNL     1       2.923  33.070  57.768  1.00  0.00    -0.268 OA
BRANCH  14  17
HETATM   17  C   UNL     1       3.677  35.581  58.789  1.00  0.00     0.114 C 
HETATM   18  C   UNL     1       4.215  36.677  57.864  1.00  0.00     0.037 C 
BRANCH  17  19
HETATM   19  C   UNL     1       3.541  36.006  60.236  1.00  0.00    -0.033 A 
HETATM   20  C   UNL     1       4.099  37.185  60.739  1.00  0.00     0.028 A 
HETATM   21  C   UNL     1       3.936  37.481  62.085  1.00  0.00     0.116 A 
HETATM   22  N   UNL     1       3.277  36.690  62.956  1.00  0.00    -0.273 NA
HETATM   23  C   UNL     1       2.761  35.545  62.461  1.00  0.00     0.116 A 
HETATM   24  C   UNL     1       2.869  35.164  61.133  1.00  0.00     0.028 A 
ENDBRANCH  17  19
ENDBRANCH  14  17
ENDBRANCH   9  13
BRANCH   3  25
HETATM   25  C   UNL     1       7.091  32.920  62.147  1.00  0.00    -0.002 A 
HETATM   26  C   UNL     1       6.352  34.106  62.203  1.00  0.00     0.014 A 
HETATM   27  C   UNL     1       6.217  34.792  63.412  1.00  0.00     0.001 A 
HETATM   28  C   UNL     1       6.809  34.294  64.571  1.00  0.00     0.000 A 
HETATM   29  C   UNL     1       7.537  33.106  64.526  1.00  0.00     0.001 A 
HETATM   30  C   UNL     1       7.675  32.419  63.320  1.00  0.00     0.014 A 
ENDBRANCH   3  25
TORSDOF 4
ENDMDL
MODEL 8
REMARK VINA RESULT:      -8.5      5.992      9.855
REMARK  4 active torsions:
REMARK  status: ('A' for Active; 'I' for Inactive)
REMARK    1  A    between atoms: C_3  and  C_4 
REMARK    2  A    between atoms: C_15  and  C_16 
REMARK       I    between atoms: C_16  and  N_17 
REMARK    3  A    between atoms: N_17  and  C_18 
REMARK    4  A    between atoms: C_18  and  C_19 
ROOT
HETATM    1  C   UNL     1       7.988  32.938  63.842  1.00  0.00     0.055 C 
HETATM    2  C   UNL     1       7.514  32.594  62.462  1.00  0.00     0.024 A 
HETATM    3  C   UNL     1       6.437  33.088  61.823  1.00  0.00     0.096 A 
HETATM    4  O   UNL     1       6.079  32.792  60.522  1.00  0.00    -0.307 OA
HETATM    5  C   UNL     1       6.791  31.854  59.820  1.00  0.00     0.106 A 
HETATM    6  C   UNL     1       7.899  31.219  60.380  1.00  0.00     0.050 A 
HETATM    7  C   UNL     1       8.337  31.598  61.734  1.00  0.00     0.193 A 
HETATM    8  O   UNL     1       9.337  31.097  62.236  1.00  0.00    -0.287 OA
HETATM    9  C   UNL     1       6.399  31.536  58.508  1.00  0.00     0.066 A 
HETATM   10  C   UNL     1       7.118  30.551  57.803  1.00  0.00     0.020 A 
HETATM   11  C   UNL     1       8.209  29.903  58.382  1.00  0.00     0.002 A 
HETATM   12  C   UNL     1       8.608  30.244  59.670  1.00  0.00     0.018 A 
ENDROOT
BRANCH   9  13
HETATM   13  C   UNL     1       5.292  32.216  57.763  1.00  0.00     0.255 C 
HETATM   14  N   UNL     1       5.045  33.540  58.033  1.00  0.00    -0.349 N 
HETATM   15  H   UNL     1       5.621  34.031  58.707  1.00  0.00     0.163 HD
HETATM   16  O   UNL     1       4.645  31.582  56.934  1.00  0.00    -0.268 OA
BRANCH  14  17
HETATM   17  C   UNL     1       4.120  34.329  57.240  1.00  0.00     0.114 C 
HETATM   18  C   UNL     1       4.874  35.436  56.496  1.00  0.00     0.037 C 
BRANCH  17  19
HETATM   19  C   UNL     1       2.999  34.833  58.124  1.00  0.00    -0.033 A 
HETATM   20  C   UNL     1       1.828  35.407  57.618  1.00  0.00     0.028 A 
HETATM   21  C   UNL     1       0.864  35.856  58.510  1.00  0.00     0.116 A 
HETATM   22  N   UNL     1       0.987  35.786  59.851  1.00  0.00    -0.273 NA
HETATM   23  C   UNL     1       2.130  35.248  60.325  1.00  0.00     0.116 A 
HETATM   24  C   UNL     1       3.149  34.771  59.516  1.00  0.00     0.028 A 
ENDBRANCH  17  19
ENDBRANCH  14  17
ENDBRANCH   9  13
BRANCH   3  25
HETATM   25  C   UNL     1       5.490  34.017  62.457  1.00  0.00    -0.002 A 
HETATM   26  C   UNL     1       4.400  33.532  63.186  1.00  0.00     0.014 A 
HETATM   27  C   UNL     1       3.515  34.420  63.800  1.00  0.00     0.001 A 
HETATM   28  C   UNL     1       3.716  35.795  63.696  1.00  0.00     0.000 A 
HETATM   29  C   UNL     1       4.806  36.287  62.980  1.00  0.00     0.001 A 
HETATM   30  C   UNL     1       5.692  35.402  62.366  1.00  0.00     0.014 A 
ENDBRANCH   3  25
TORSDOF 4
ENDMDL
MODEL 9
REMARK VINA RESULT:      -8.4      1.883      5.013
REMARK  4 active torsions:
REMARK  status: ('A' for Active; 'I' for Inactive)
REMARK    1  A    between atoms: C_3  and  C_4 
REMARK    2  A    between atoms: C_15  and  C_16 
REMARK       I    between atoms: C_16  and  N_17 
REMARK    3  A    between atoms: N_17  and  C_18 
REMARK    4  A    between atoms: C_18  and  C_19 
ROOT
HETATM    1  C   UNL     1       7.503  24.559  52.254  1.00  0.00     0.055 C 
HETATM    2  C   UNL     1       6.661  25.674  52.798  1.00  0.00     0.024 A 
HETATM    3  C   UNL     1       6.580  26.084  54.078  1.00  0.00     0.096 A 
HETATM    4  O   UNL     1       5.841  27.164  54.522  1.00  0.00    -0.307 OA
HETATM    5  C   UNL     1       5.037  27.842  53.643  1.00  0.00     0.106 A 
HETATM    6  C   UNL     1       4.979  27.487  52.294  1.00  0.00     0.050 A 
HETATM    7  C   UNL     1       5.833  26.395  51.801  1.00  0.00     0.193 A 
HETATM    8  O   UNL     1       5.845  26.092  50.613  1.00  0.00    -0.287 OA
HETATM    9  C   UNL     1       4.264  28.918  54.110  1.00  0.00     0.066 A 
HETATM   10  C   UNL     1       3.418  29.592  53.208  1.00  0.00     0.020 A 
HETATM   11  C   UNL     1       3.349  29.213  51.867  1.00  0.00     0.002 A 
HETATM   12  C   UNL     1       4.137  28.165  51.406  1.00  0.00     0.018 A 
ENDROOT
BRANCH   9  13
HETATM   13  C   UNL     1       4.313  29.456  55.507  1.00  0.00     0.255 C 
HETATM   14  N   UNL     1       5.168  30.499  55.772  1.00  0.00    -0.349 N 
HETATM   15  H   UNL     1       5.728  30.892  55.024  1.00  0.00     0.163 HD
HETATM   16  O   UNL     1       3.590  28.964  56.369  1.00  0.00    -0.268 OA
BRANCH  14  17
HETATM   17  C   UNL     1       5.155  31.203  57.042  1.00  0.00     0.114 C 
HETATM   18  C   UNL     1       5.064  32.714  56.806  1.00  0.00     0.037 C 
BRANCH  17  19
HETATM   19  C   UNL     1       6.352  30.778  57.866  1.00  0.00    -0.033 A 
HETATM   20  C   UNL     1       7.054  29.591  57.634  1.00  0.00     0.028 A 
HETATM   21  C   UNL     1       8.128  29.278  58.456  1.00  0.00     0.116 A 
HETATM   22  N   UNL     1       8.539  30.047  59.485  1.00  0.00    -0.273 NA
HETATM   23  C   UNL     1       7.839  31.179  59.710  1.00  0.00     0.116 A 
HETATM   24  C   UNL     1       6.755  31.577  58.944  1.00  0.00     0.028 A 
ENDBRANCH  17  19
ENDBRANCH  14  17
ENDBRANCH   9  13
BRANCH   3  25
HETATM   25  C   UNL     1       7.281  25.407  55.179  1.00  0.00    -0.002 A 
HETATM   26  C   UNL     1       7.450  24.019  55.165  1.00  0.00     0.014 A 
HETATM   27  C   UNL     1       8.132  23.385  56.205  1.00  0.00     0.001 A 
HETATM   28  C   UNL     1       8.656  24.132  57.259  1.00  0.00     0.000 A 
HETATM   29  C   UNL     1       8.502  25.517  57.274  1.00  0.00     0.001 A 
HETATM   30  C   UNL     1       7.820  26.153  56.236  1.00  0.00     0.014 A 
ENDBRANCH   3  25
TORSDOF 4
ENDMDL
MODEL 10
REMARK VINA RESULT:      -8.4      3.692      7.645
REMARK  4 active torsions:
REMARK  status: ('A' for Active; 'I' for Inactive)
REMARK    1  A    between atoms: C_3  and  C_4 
REMARK    2  A    between atoms: C_15  and  C_16 
REMARK       I    between atoms: C_16  and  N_17 
REMARK    3  A    between atoms: N_17  and  C_18 
REMARK    4  A    between atoms: C_18  and  C_19 
ROOT
HETATM    1  C   UNL     1       3.602  34.255  59.421  1.00  0.00     0.055 C 
HETATM    2  C   UNL     1       4.805  33.368  59.544  1.00  0.00     0.024 A 
HETATM    3  C   UNL     1       5.244  32.462  58.650  1.00  0.00     0.096 A 
HETATM    4  O   UNL     1       6.400  31.716  58.776  1.00  0.00    -0.307 OA
HETATM    5  C   UNL     1       7.140  31.802  59.927  1.00  0.00     0.106 A 
HETATM    6  C   UNL     1       6.769  32.661  60.963  1.00  0.00     0.050 A 
HETATM    7  C   UNL     1       5.588  33.523  60.794  1.00  0.00     0.193 A 
HETATM    8  O   UNL     1       5.264  34.325  61.662  1.00  0.00    -0.287 OA
HETATM    9  C   UNL     1       8.296  31.015  60.060  1.00  0.00     0.066 A 
HETATM   10  C   UNL     1       9.036  31.087  61.257  1.00  0.00     0.020 A 
HETATM   11  C   UNL     1       8.642  31.931  62.296  1.00  0.00     0.002 A 
HETATM   12  C   UNL     1       7.512  32.726  62.147  1.00  0.00     0.018 A 
ENDROOT
BRANCH   9  13
HETATM   13  C   UNL     1       8.851  30.132  58.986  1.00  0.00     0.255 C 
HETATM   14  N   UNL     1       8.026  29.179  58.438  1.00  0.00    -0.349 N 
HETATM   15  H   UNL     1       7.065  29.107  58.751  1.00  0.00     0.163 HD
HETATM   16  O   UNL     1      10.014  30.283  58.620  1.00  0.00    -0.268 OA
BRANCH  14  17
HETATM   17  C   UNL     1       8.412  28.401  57.274  1.00  0.00     0.114 C 
HETATM   18  C   UNL     1       8.521  29.308  56.045  1.00  0.00     0.037 C 
BRANCH  17  19
HETATM   19  C   UNL     1       7.455  27.241  57.103  1.00  0.00    -0.033 A 
HETATM   20  C   UNL     1       6.072  27.407  56.970  1.00  0.00     0.028 A 
HETATM   21  C   UNL     1       5.273  26.281  56.835  1.00  0.00     0.116 A 
HETATM   22  N   UNL     1       5.745  25.017  56.835  1.00  0.00    -0.273 NA
HETATM   23  C   UNL     1       7.079  24.871  56.984  1.00  0.00     0.116 A 
HETATM   24  C   UNL     1       7.958  25.933  57.124  1.00  0.00     0.028 A 
ENDBRANCH  17  19
ENDBRANCH  14  17
ENDBRANCH   9  13
BRANCH   3  25
HETATM   25  C   UNL     1       4.519  32.149  57.410  1.00  0.00    -0.002 A 
HETATM   26  C   UNL     1       3.547  31.144  57.390  1.00  0.00     0.014 A 
HETATM   27  C   UNL     1       2.851  30.864  56.213  1.00  0.00     0.001 A 
HETATM   28  C   UNL     1       3.114  31.589  55.052  1.00  0.00     0.000 A 
HETATM   29  C   UNL     1       4.075  32.599  55.066  1.00  0.00     0.001 A 
HETATM   30  C   UNL     1       4.772  32.881  56.241  1.00  0.00     0.014 A 
ENDBRANCH   3  25
TORSDOF 4
ENDMDL
