MODEL 1
REMARK VINA RESULT:      -9.8      0.000      0.000
REMARK  5 active torsions:
REMARK  status: ('A' for Active; 'I' for Inactive)
REMARK    1  A    between atoms: C_5  and  C_6 
REMARK    2  A    between atoms: C_6  and  N_7 
REMARK    3  A    between atoms: C_9  and  C_10 
REMARK       I    between atoms: C_10  and  N_11 
REMARK    4  A    between atoms: N_11  and  C_12 
REMARK    5  A    between atoms: C_12  and  O_13 
ROOT
HETATM    1  N   UNL     1       6.929  26.285  56.851  1.00  0.00    -0.361 N 
HETATM    2  C   UNL     1       7.897  27.149  57.244  1.00  0.00     0.107 A 
HETATM    3  C   UNL     1       7.594  28.478  57.545  1.00  0.00     0.047 A 
HETATM    4  C   UNL     1       6.276  28.914  57.413  1.00  0.00     0.020 A 
HETATM    5  C   UNL     1       5.295  28.012  57.007  1.00  0.00     0.018 A 
HETATM    6  C   UNL     1       5.643  26.691  56.739  1.00  0.00     0.090 A 
ENDROOT
BRANCH   1   7
HETATM    7  C   UNL     1       7.280  24.863  56.597  1.00  0.00     0.167 C 
BRANCH   7   8
HETATM    8  C   UNL     1       7.505  24.516  55.142  1.00  0.00    -0.029 A 
HETATM    9  C   UNL     1       7.675  23.144  54.774  1.00  0.00    -0.018 A 
HETATM   10  C   UNL     1       7.864  22.817  53.406  1.00  0.00    -0.025 A 
HETATM   11  C   UNL     1       7.672  22.069  55.699  1.00  0.00     0.013 A 
HETATM   12  C   UNL     1       8.037  21.481  53.013  1.00  0.00     0.012 A 
HETATM   13  C   UNL     1       7.881  23.830  52.441  1.00  0.00     0.012 A 
HETATM   14  C   UNL     1       8.031  20.451  53.948  1.00  0.00     0.001 A 
HETATM   15  C   UNL     1       7.849  20.743  55.291  1.00  0.00     0.001 A 
HETATM   16  C   UNL     1       7.724  25.162  52.803  1.00  0.00     0.002 A 
HETATM   17  C   UNL     1       7.541  25.505  54.140  1.00  0.00     0.010 A 
ENDBRANCH   7   8
ENDBRANCH   1   7
BRANCH   3  18
HETATM   18  C   UNL     1       8.721  29.334  57.985  1.00  0.00     0.254 C 
HETATM   19  N   UNL     1       9.712  29.611  57.085  1.00  0.00    -0.336 N 
HETATM   20  H   UNL     1       9.703  29.329  56.118  1.00  0.00     0.164 HD
HETATM   21  O   UNL     1       8.699  29.776  59.129  1.00  0.00    -0.268 OA
BRANCH  19  22
HETATM   22  C   UNL     1      10.803  30.462  57.426  1.00  0.00     0.290 C 
BRANCH  22  23
HETATM   23  O   UNL     1      11.945  29.733  57.050  1.00  0.00    -0.382 OA
HETATM   24  H   UNL     1      11.655  29.105  56.366  1.00  0.00     0.211 HD
ENDBRANCH  22  23
ENDBRANCH  19  22
ENDBRANCH   3  18
TORSDOF 5
ENDMDL
MODEL 2
REMARK VINA RESULT:      -9.4      1.419      1.803
REMARK  5 active torsions:
REMARK  status: ('A' for Active; 'I' for Inactive)
REMARK    1  A    between atoms: C_5  and  C_6 
REMARK    2  A    between atoms: C_6  and  N_7 
REMARK    3  A    between atoms: C_9  and  C_10 
REMARK       I    between atoms: C_10  and  N_11 
REMARK    4  A    between atoms: N_11  and  C_12 
REMARK    5  A    between atoms: C_12  and  O_13 
ROOT
HETATM    1  N   UNL     1       6.641  26.354  56.589  1.00  0.00    -0.361 N 
HETATM    2  C   UNL     1       7.277  27.318  57.299  1.00  0.00     0.107 A 
HETATM    3  C   UNL     1       6.677  28.559  57.522  1.00  0.00     0.047 A 
HETATM    4  C   UNL     1       5.416  28.804  56.980  1.00  0.00     0.020 A 
HETATM    5  C   UNL     1       4.779  27.801  56.252  1.00  0.00     0.018 A 
HETATM    6  C   UNL     1       5.408  26.572  56.076  1.00  0.00     0.090 A 
ENDROOT
BRANCH   1   7
HETATM    7  C   UNL     1       7.286  25.025  56.424  1.00  0.00     0.167 C 
BRANCH   7   8
HETATM    8  C   UNL     1       7.525  24.610  54.989  1.00  0.00    -0.029 A 
HETATM    9  C   UNL     1       7.665  23.219  54.683  1.00  0.00    -0.018 A 
HETATM   10  C   UNL     1       7.867  22.830  53.334  1.00  0.00    -0.025 A 
HETATM   11  C   UNL     1       7.617  22.186  55.652  1.00  0.00     0.013 A 
HETATM   12  C   UNL     1       8.011  21.474  53.000  1.00  0.00     0.012 A 
HETATM   13  C   UNL     1       7.927  23.800  52.327  1.00  0.00     0.012 A 
HETATM   14  C   UNL     1       7.961  20.485  53.978  1.00  0.00     0.001 A 
HETATM   15  C   UNL     1       7.765  20.840  55.304  1.00  0.00     0.001 A 
HETATM   16  C   UNL     1       7.800  25.150  52.629  1.00  0.00     0.002 A 
HETATM   17  C   UNL     1       7.604  25.554  53.947  1.00  0.00     0.010 A 
ENDBRANCH   7   8
ENDBRANCH   1   7
BRANCH   3  18
HETATM   18  C   UNL     1       7.448  29.535  58.328  1.00  0.00     0.254 C 
HETATM   19  N   UNL     1       6.776  30.587  58.886  1.00  0.00    -0.336 N 
HETATM   20  H   UNL     1       5.778  30.716  58.845  1.00  0.00     0.164 HD
HETATM   21  O   UNL     1       8.649  29.340  58.478  1.00  0.00    -0.268 OA
BRANCH  19  22
HETATM   22  C   UNL     1       7.445  31.539  59.708  1.00  0.00     0.290 C 
BRANCH  22  23
HETATM   23  O   UNL     1       7.656  30.864  60.923  1.00  0.00    -0.382 OA
HETATM   24  H   UNL     1       6.958  30.188  60.985  1.00  0.00     0.211 HD
ENDBRANCH  22  23
ENDBRANCH  19  22
ENDBRANCH   3  18
TORSDOF 5
ENDMDL
MODEL 3
REMARK VINA RESULT:      -9.3      2.383      3.203
REMARK  5 active torsions:
REMARK  status: ('A' for Active; 'I' for Inactive)
REMARK    1  A    between atoms: C_5  and  C_6 
REMARK    2  A    between atoms: C_6  and  N_7 
REMARK    3  A    between atoms: C_9  and  C_10 
REMARK       I    between atoms: C_10  and  N_11 
REMARK    4  A    between atoms: N_11  and  C_12 
REMARK    5  A    between atoms: C_12  and  O_13 
ROOT
HETATM    1  N   UNL     1       7.058  26.201  56.837  1.00  0.00    -0.361 N 
HETATM    2  C   UNL     1       6.023  27.068  56.953  1.00  0.00     0.107 A 
HETATM    3  C   UNL     1       6.244  28.416  57.242  1.00  0.00     0.047 A 
HETATM    4  C   UNL     1       7.553  28.857  57.436  1.00  0.00     0.020 A 
HETATM    5  C   UNL     1       8.604  27.950  57.315  1.00  0.00     0.018 A 
HETATM    6  C   UNL     1       8.334  26.621  57.003  1.00  0.00     0.090 A 
ENDROOT
BRANCH   1   7
HETATM    7  C   UNL     1       6.787  24.787  56.469  1.00  0.00     0.167 C 
BRANCH   7   8
HETATM    8  C   UNL     1       7.172  24.415  55.054  1.00  0.00    -0.029 A 
HETATM    9  C   UNL     1       7.511  23.056  54.762  1.00  0.00    -0.018 A 
HETATM   10  C   UNL     1       7.851  22.704  53.430  1.00  0.00    -0.025 A 
HETATM   11  C   UNL     1       7.535  22.019  55.728  1.00  0.00     0.013 A 
HETATM   12  C   UNL     1       8.191  21.380  53.110  1.00  0.00     0.012 A 
HETATM   13  C   UNL     1       7.850  23.679  52.426  1.00  0.00     0.012 A 
HETATM   14  C   UNL     1       8.207  20.388  54.086  1.00  0.00     0.001 A 
HETATM   15  C   UNL     1       7.880  20.706  55.395  1.00  0.00     0.001 A 
HETATM   16  C   UNL     1       7.529  24.999  52.716  1.00  0.00     0.002 A 
HETATM   17  C   UNL     1       7.196  25.367  54.016  1.00  0.00     0.010 A 
ENDBRANCH   7   8
ENDBRANCH   1   7
BRANCH   3  18
HETATM   18  C   UNL     1       5.046  29.284  57.325  1.00  0.00     0.254 C 
HETATM   19  N   UNL     1       5.038  30.290  58.252  1.00  0.00    -0.336 N 
HETATM   20  H   UNL     1       5.818  30.529  58.843  1.00  0.00     0.164 HD
HETATM   21  O   UNL     1       4.126  29.077  56.541  1.00  0.00    -0.268 OA
BRANCH  19  22
HETATM   22  C   UNL     1       3.938  31.188  58.358  1.00  0.00     0.290 C 
BRANCH  22  23
HETATM   23  O   UNL     1       2.980  30.480  59.104  1.00  0.00    -0.382 OA
HETATM   24  H   UNL     1       2.996  30.860  60.000  1.00  0.00     0.211 HD
ENDBRANCH  22  23
ENDBRANCH  19  22
ENDBRANCH   3  18
TORSDOF 5
ENDMDL
MODEL 4
REMARK VINA RESULT:      -9.0      4.788      6.180
REMARK  5 active torsions:
REMARK  status: ('A' for Active; 'I' for Inactive)
REMARK    1  A    between atoms: C_5  and  C_6 
REMARK    2  A    between atoms: C_6  and  N_7 
REMARK    3  A    between atoms: C_9  and  C_10 
REMARK       I    between atoms: C_10  and  N_11 
REMARK    4  A    between atoms: N_11  and  C_12 
REMARK    5  A    between atoms: C_12  and  O_13 
ROOT
HETATM    1  N   UNL     1       6.927  25.326  52.907  1.00  0.00    -0.361 N 
HETATM    2  C   UNL     1       6.480  25.544  51.646  1.00  0.00     0.107 A 
HETATM    3  C   UNL     1       5.289  26.236  51.417  1.00  0.00     0.047 A 
HETATM    4  C   UNL     1       4.548  26.681  52.510  1.00  0.00     0.020 A 
HETATM    5  C   UNL     1       5.023  26.445  53.799  1.00  0.00     0.018 A 
HETATM    6  C   UNL     1       6.228  25.771  53.976  1.00  0.00     0.090 A 
ENDROOT
BRANCH   1   7
HETATM    7  C   UNL     1       8.229  24.639  53.109  1.00  0.00     0.167 C 
BRANCH   7   8
HETATM    8  C   UNL     1       8.124  23.173  53.470  1.00  0.00    -0.029 A 
HETATM    9  C   UNL     1       8.204  22.790  54.846  1.00  0.00    -0.018 A 
HETATM   10  C   UNL     1       8.083  21.417  55.184  1.00  0.00    -0.025 A 
HETATM   11  C   UNL     1       8.402  23.701  55.913  1.00  0.00     0.013 A 
HETATM   12  C   UNL     1       8.159  21.007  56.525  1.00  0.00     0.012 A 
HETATM   13  C   UNL     1       7.888  20.462  54.180  1.00  0.00     0.012 A 
HETATM   14  C   UNL     1       8.358  21.930  57.548  1.00  0.00     0.001 A 
HETATM   15  C   UNL     1       8.480  23.277  57.243  1.00  0.00     0.001 A 
HETATM   16  C   UNL     1       7.820  20.838  52.844  1.00  0.00     0.002 A 
HETATM   17  C   UNL     1       7.939  22.179  52.489  1.00  0.00     0.010 A 
ENDBRANCH   7   8
ENDBRANCH   1   7
BRANCH   3  18
HETATM   18  C   UNL     1       4.901  26.440  50.001  1.00  0.00     0.254 C 
HETATM   19  N   UNL     1       5.457  27.489  49.322  1.00  0.00    -0.336 N 
HETATM   20  H   UNL     1       6.166  28.100  49.693  1.00  0.00     0.164 HD
HETATM   21  O   UNL     1       4.117  25.644  49.496  1.00  0.00    -0.268 OA
BRANCH  19  22
HETATM   22  C   UNL     1       5.162  27.718  47.947  1.00  0.00     0.290 C 
BRANCH  22  23
HETATM   23  O   UNL     1       5.687  26.595  47.285  1.00  0.00    -0.382 OA
HETATM   24  H   UNL     1       5.617  25.852  47.910  1.00  0.00     0.211 HD
ENDBRANCH  22  23
ENDBRANCH  19  22
ENDBRANCH   3  18
TORSDOF 5
ENDMDL
MODEL 5
REMARK VINA RESULT:      -8.8      4.568      6.039
REMARK  5 active torsions:
REMARK  status: ('A' for Active; 'I' for Inactive)
REMARK    1  A    between atoms: C_5  and  C_6 
REMARK    2  A    between atoms: C_6  and  N_7 
REMARK    3  A    between atoms: C_9  and  C_10 
REMARK       I    between atoms: C_10  and  N_11 
REMARK    4  A    between atoms: N_11  and  C_12 
REMARK    5  A    between atoms: C_12  and  O_13 
ROOT
HETATM    1  N   UNL     1       6.569  26.204  52.885  1.00  0.00    -0.361 N 
HETATM    2  C   UNL     1       6.074  26.403  51.639  1.00  0.00     0.107 A 
HETATM    3  C   UNL     1       4.934  27.182  51.435  1.00  0.00     0.047 A 
HETATM    4  C   UNL     1       4.292  27.738  52.541  1.00  0.00     0.020 A 
HETATM    5  C   UNL     1       4.815  27.521  53.815  1.00  0.00     0.018 A 
HETATM    6  C   UNL     1       5.967  26.755  53.965  1.00  0.00     0.090 A 
ENDROOT
BRANCH   1   7
HETATM    7  C   UNL     1       7.819  25.419  53.057  1.00  0.00     0.167 C 
BRANCH   7   8
HETATM    8  C   UNL     1       7.879  24.590  54.321  1.00  0.00    -0.029 A 
HETATM    9  C   UNL     1       7.927  23.164  54.213  1.00  0.00    -0.018 A 
HETATM   10  C   UNL     1       8.005  22.388  55.399  1.00  0.00    -0.025 A 
HETATM   11  C   UNL     1       7.898  22.460  52.983  1.00  0.00     0.013 A 
HETATM   12  C   UNL     1       8.051  20.987  55.328  1.00  0.00     0.012 A 
HETATM   13  C   UNL     1       8.035  23.019  56.648  1.00  0.00     0.012 A 
HETATM   14  C   UNL     1       8.018  20.328  54.103  1.00  0.00     0.001 A 
HETATM   15  C   UNL     1       7.941  21.063  52.930  1.00  0.00     0.001 A 
HETATM   16  C   UNL     1       7.980  24.403  56.748  1.00  0.00     0.002 A 
HETATM   17  C   UNL     1       7.899  25.184  55.598  1.00  0.00     0.010 A 
ENDBRANCH   7   8
ENDBRANCH   1   7
BRANCH   3  18
HETATM   18  C   UNL     1       4.487  27.354  50.033  1.00  0.00     0.254 C 
HETATM   19  N   UNL     1       5.229  26.771  49.042  1.00  0.00    -0.336 N 
HETATM   20  H   UNL     1       6.025  26.175  49.198  1.00  0.00     0.164 HD
HETATM   21  O   UNL     1       3.459  27.988  49.827  1.00  0.00    -0.268 OA
BRANCH  19  22
HETATM   22  C   UNL     1       4.835  26.859  47.676  1.00  0.00     0.290 C 
BRANCH  22  23
HETATM   23  O   UNL     1       6.047  26.929  46.967  1.00  0.00    -0.382 OA
HETATM   24  H   UNL     1       6.395  27.826  47.110  1.00  0.00     0.211 HD
ENDBRANCH  22  23
ENDBRANCH  19  22
ENDBRANCH   3  18
TORSDOF 5
ENDMDL
MODEL 6
REMARK VINA RESULT:      -8.4      2.249      2.816
REMARK  5 active torsions:
REMARK  status: ('A' for Active; 'I' for Inactive)
REMARK    1  A    between atoms: C_5  and  C_6 
REMARK    2  A    between atoms: C_6  and  N_7 
REMARK    3  A    between atoms: C_9  and  C_10 
REMARK       I    between atoms: C_10  and  N_11 
REMARK    4  A    between atoms: N_11  and  C_12 
REMARK    5  A    between atoms: C_12  and  O_13 
ROOT
HETATM    1  N   UNL     1       6.618  26.612  56.395  1.00  0.00    -0.361 N 
HETATM    2  C   UNL     1       5.939  27.775  56.550  1.00  0.00     0.107 A 
HETATM    3  C   UNL     1       6.558  28.899  57.100  1.00  0.00     0.047 A 
HETATM    4  C   UNL     1       7.886  28.802  57.514  1.00  0.00     0.020 A 
HETATM    5  C   UNL     1       8.566  27.598  57.348  1.00  0.00     0.018 A 
HETATM    6  C   UNL     1       7.914  26.511  56.773  1.00  0.00     0.090 A 
ENDROOT
BRANCH   1   7
HETATM    7  C   UNL     1       5.944  25.455  55.750  1.00  0.00     0.167 C 
BRANCH   7   8
HETATM    8  C   UNL     1       6.568  25.003  54.448  1.00  0.00    -0.029 A 
HETATM    9  C   UNL     1       7.161  23.703  54.378  1.00  0.00    -0.018 A 
HETATM   10  C   UNL     1       7.727  23.272  53.150  1.00  0.00    -0.025 A 
HETATM   11  C   UNL     1       7.228  22.802  55.470  1.00  0.00     0.013 A 
HETATM   12  C   UNL     1       8.319  22.003  53.048  1.00  0.00     0.012 A 
HETATM   13  C   UNL     1       7.698  24.112  52.032  1.00  0.00     0.012 A 
HETATM   14  C   UNL     1       8.370  21.144  54.143  1.00  0.00     0.001 A 
HETATM   15  C   UNL     1       7.825  21.543  55.354  1.00  0.00     0.001 A 
HETATM   16  C   UNL     1       7.128  25.377  52.107  1.00  0.00     0.002 A 
HETATM   17  C   UNL     1       6.571  25.822  53.302  1.00  0.00     0.010 A 
ENDBRANCH   7   8
ENDBRANCH   1   7
BRANCH   3  18
HETATM   18  C   UNL     1       5.734  30.127  57.207  1.00  0.00     0.254 C 
HETATM   19  N   UNL     1       5.680  30.767  58.414  1.00  0.00    -0.336 N 
HETATM   20  H   UNL     1       6.213  30.504  59.226  1.00  0.00     0.164 HD
HETATM   21  O   UNL     1       5.159  30.526  56.200  1.00  0.00    -0.268 OA
BRANCH  19  22
HETATM   22  C   UNL     1       4.943  31.975  58.577  1.00  0.00     0.290 C 
BRANCH  22  23
HETATM   23  O   UNL     1       5.856  32.990  58.238  1.00  0.00    -0.382 OA
HETATM   24  H   UNL     1       6.743  32.615  58.374  1.00  0.00     0.211 HD
ENDBRANCH  22  23
ENDBRANCH  19  22
ENDBRANCH   3  18
TORSDOF 5
ENDMDL
MODEL 7
REMARK VINA RESULT:      -8.4      1.959      3.117
REMARK  5 active torsions:
REMARK  status: ('A' for Active; 'I' for Inactive)
REMARK    1  A    between atoms: C_5  and  C_6 
REMARK    2  A    between atoms: C_6  and  N_7 
REMARK    3  A    between atoms: C_9  and  C_10 
REMARK       I    between atoms: C_10  and  N_11 
REMARK    4  A    between atoms: N_11  and  C_12 
REMARK    5  A    between atoms: C_12  and  O_13 
ROOT
HETATM    1  N   UNL     1       6.597  26.503  53.815  1.00  0.00    -0.361 N 
HETATM    2  C   UNL     1       6.821  27.489  54.718  1.00  0.00     0.107 A 
HETATM    3  C   UNL     1       5.828  28.420  55.025  1.00  0.00     0.047 A 
HETATM    4  C   UNL     1       4.601  28.337  54.368  1.00  0.00     0.020 A 
HETATM    5  C   UNL     1       4.390  27.318  53.441  1.00  0.00     0.018 A 
HETATM    6  C   UNL     1       5.403  26.399  53.185  1.00  0.00     0.090 A 
ENDROOT
BRANCH   1   7
HETATM    7  C   UNL     1       7.658  25.494  53.558  1.00  0.00     0.167 C 
BRANCH   7   8
HETATM    8  C   UNL     1       7.872  24.500  54.679  1.00  0.00    -0.029 A 
HETATM    9  C   UNL     1       7.955  23.107  54.364  1.00  0.00    -0.018 A 
HETATM   10  C   UNL     1       8.178  22.178  55.413  1.00  0.00    -0.025 A 
HETATM   11  C   UNL     1       7.825  22.581  53.054  1.00  0.00     0.013 A 
HETATM   12  C   UNL     1       8.262  20.804  55.138  1.00  0.00     0.012 A 
HETATM   13  C   UNL     1       8.313  22.629  56.731  1.00  0.00     0.012 A 
HETATM   14  C   UNL     1       8.126  20.322  53.840  1.00  0.00     0.001 A 
HETATM   15  C   UNL     1       7.907  21.209  52.798  1.00  0.00     0.001 A 
HETATM   16  C   UNL     1       8.223  23.982  57.033  1.00  0.00     0.002 A 
HETATM   17  C   UNL     1       8.002  24.911  56.020  1.00  0.00     0.010 A 
ENDBRANCH   7   8
ENDBRANCH   1   7
BRANCH   3  18
HETATM   18  C   UNL     1       6.168  29.444  56.041  1.00  0.00     0.254 C 
HETATM   19  N   UNL     1       7.010  29.091  57.059  1.00  0.00    -0.336 N 
HETATM   20  H   UNL     1       7.474  28.200  57.136  1.00  0.00     0.164 HD
HETATM   21  O   UNL     1       5.697  30.569  55.909  1.00  0.00    -0.268 OA
BRANCH  19  22
HETATM   22  C   UNL     1       7.414  30.036  58.045  1.00  0.00     0.290 C 
BRANCH  22  23
HETATM   23  O   UNL     1       7.902  29.249  59.103  1.00  0.00    -0.382 OA
HETATM   24  H   UNL     1       8.584  29.782  59.548  1.00  0.00     0.211 HD
ENDBRANCH  22  23
ENDBRANCH  19  22
ENDBRANCH   3  18
TORSDOF 5
ENDMDL
MODEL 8
REMARK VINA RESULT:      -8.2      2.159      3.905
REMARK  5 active torsions:
REMARK  status: ('A' for Active; 'I' for Inactive)
REMARK    1  A    between atoms: C_5  and  C_6 
REMARK    2  A    between atoms: C_6  and  N_7 
REMARK    3  A    between atoms: C_9  and  C_10 
REMARK       I    between atoms: C_10  and  N_11 
REMARK    4  A    between atoms: N_11  and  C_12 
REMARK    5  A    between atoms: C_12  and  O_13 
ROOT
HETATM    1  N   UNL     1       7.013  25.130  53.178  1.00  0.00    -0.361 N 
HETATM    2  C   UNL     1       7.004  26.213  53.994  1.00  0.00     0.107 A 
HETATM    3  C   UNL     1       5.825  26.923  54.230  1.00  0.00     0.047 A 
HETATM    4  C   UNL     1       4.654  26.516  53.591  1.00  0.00     0.020 A 
HETATM    5  C   UNL     1       4.685  25.403  52.754  1.00  0.00     0.018 A 
HETATM    6  C   UNL     1       5.879  24.713  52.568  1.00  0.00     0.090 A 
ENDROOT
BRANCH   1   7
HETATM    7  C   UNL     1       8.274  24.363  52.999  1.00  0.00     0.167 C 
BRANCH   7   8
HETATM    8  C   UNL     1       8.209  22.922  53.453  1.00  0.00    -0.029 A 
HETATM    9  C   UNL     1       8.267  22.632  54.853  1.00  0.00    -0.018 A 
HETATM   10  C   UNL     1       8.185  21.281  55.278  1.00  0.00    -0.025 A 
HETATM   11  C   UNL     1       8.407  23.618  55.861  1.00  0.00     0.013 A 
HETATM   12  C   UNL     1       8.241  20.962  56.644  1.00  0.00     0.012 A 
HETATM   13  C   UNL     1       8.049  20.256  54.335  1.00  0.00     0.012 A 
HETATM   14  C   UNL     1       8.382  21.957  57.608  1.00  0.00     0.001 A 
HETATM   15  C   UNL     1       8.466  23.284  57.218  1.00  0.00     0.001 A 
HETATM   16  C   UNL     1       8.002  20.541  52.976  1.00  0.00     0.002 A 
HETATM   17  C   UNL     1       8.084  21.860  52.536  1.00  0.00     0.010 A 
ENDBRANCH   7   8
ENDBRANCH   1   7
BRANCH   3  18
HETATM   18  C   UNL     1       5.919  28.078  55.154  1.00  0.00     0.254 C 
HETATM   19  N   UNL     1       6.504  27.883  56.375  1.00  0.00    -0.336 N 
HETATM   20  H   UNL     1       6.939  27.024  56.671  1.00  0.00     0.164 HD
HETATM   21  O   UNL     1       5.490  29.161  54.772  1.00  0.00    -0.268 OA
BRANCH  19  22
HETATM   22  C   UNL     1       6.666  28.958  57.296  1.00  0.00     0.290 C 
BRANCH  22  23
HETATM   23  O   UNL     1       7.651  29.773  56.711  1.00  0.00    -0.382 OA
HETATM   24  H   UNL     1       8.100  30.228  57.445  1.00  0.00     0.211 HD
ENDBRANCH  22  23
ENDBRANCH  19  22
ENDBRANCH   3  18
TORSDOF 5
ENDMDL
MODEL 9
REMARK VINA RESULT:      -8.2      3.102      4.414
REMARK  5 active torsions:
REMARK  status: ('A' for Active; 'I' for Inactive)
REMARK    1  A    between atoms: C_5  and  C_6 
REMARK    2  A    between atoms: C_6  and  N_7 
REMARK    3  A    between atoms: C_9  and  C_10 
REMARK       I    between atoms: C_10  and  N_11 
REMARK    4  A    between atoms: N_11  and  C_12 
REMARK    5  A    between atoms: C_12  and  O_13 
ROOT
HETATM    1  N   UNL     1       6.758  26.216  52.444  1.00  0.00    -0.361 N 
HETATM    2  C   UNL     1       6.345  27.199  53.281  1.00  0.00     0.107 A 
HETATM    3  C   UNL     1       5.205  27.953  52.996  1.00  0.00     0.047 A 
HETATM    4  C   UNL     1       4.505  27.696  51.818  1.00  0.00     0.020 A 
HETATM    5  C   UNL     1       4.945  26.683  50.969  1.00  0.00     0.018 A 
HETATM    6  C   UNL     1       6.075  25.943  51.307  1.00  0.00     0.090 A 
ENDROOT
BRANCH   1   7
HETATM    7  C   UNL     1       7.941  25.395  52.810  1.00  0.00     0.167 C 
BRANCH   7   8
HETATM    8  C   UNL     1       7.811  24.642  54.116  1.00  0.00    -0.029 A 
HETATM    9  C   UNL     1       7.872  23.213  54.103  1.00  0.00    -0.018 A 
HETATM   10  C   UNL     1       7.772  22.510  55.331  1.00  0.00    -0.025 A 
HETATM   11  C   UNL     1       8.026  22.437  52.926  1.00  0.00     0.013 A 
HETATM   12  C   UNL     1       7.826  21.107  55.352  1.00  0.00     0.012 A 
HETATM   13  C   UNL     1       7.616  23.213  56.530  1.00  0.00     0.012 A 
HETATM   14  C   UNL     1       7.975  20.377  54.176  1.00  0.00     0.001 A 
HETATM   15  C   UNL     1       8.075  21.041  52.964  1.00  0.00     0.001 A 
HETATM   16  C   UNL     1       7.548  24.601  56.538  1.00  0.00     0.002 A 
HETATM   17  C   UNL     1       7.641  25.311  55.345  1.00  0.00     0.010 A 
ENDBRANCH   7   8
ENDBRANCH   1   7
BRANCH   3  18
HETATM   18  C   UNL     1       4.828  28.989  53.987  1.00  0.00     0.254 C 
HETATM   19  N   UNL     1       5.779  29.414  54.873  1.00  0.00    -0.336 N 
HETATM   20  H   UNL     1       6.743  29.122  54.861  1.00  0.00     0.164 HD
HETATM   21  O   UNL     1       3.687  29.436  53.951  1.00  0.00    -0.268 OA
BRANCH  19  22
HETATM   22  C   UNL     1       5.500  30.437  55.823  1.00  0.00     0.290 C 
BRANCH  22  23
HETATM   23  O   UNL     1       5.210  31.569  55.043  1.00  0.00    -0.382 OA
HETATM   24  H   UNL     1       4.531  31.294  54.402  1.00  0.00     0.211 HD
ENDBRANCH  22  23
ENDBRANCH  19  22
ENDBRANCH   3  18
TORSDOF 5
ENDMDL
MODEL 10
REMARK VINA RESULT:      -8.2      1.804      2.830
REMARK  5 active torsions:
REMARK  status: ('A' for Active; 'I' for Inactive)
REMARK    1  A    between atoms: C_5  and  C_6 
REMARK    2  A    between atoms: C_6  and  N_7 
REMARK    3  A    between atoms: C_9  and  C_10 
REMARK       I    between atoms: C_10  and  N_11 
REMARK    4  A    between atoms: N_11  and  C_12 
REMARK    5  A    between atoms: C_12  and  O_13 
ROOT
HETATM    1  N   UNL     1       6.394  27.960  55.660  1.00  0.00    -0.361 N 
HETATM    2  C   UNL     1       7.138  28.633  56.572  1.00  0.00     0.107 A 
HETATM    3  C   UNL     1       6.544  29.532  57.460  1.00  0.00     0.047 A 
HETATM    4  C   UNL     1       5.169  29.748  57.381  1.00  0.00     0.020 A 
HETATM    5  C   UNL     1       4.421  29.049  56.435  1.00  0.00     0.018 A 
HETATM    6  C   UNL     1       5.055  28.146  55.586  1.00  0.00     0.090 A 
ENDROOT
BRANCH   1   7
HETATM    7  C   UNL     1       7.052  26.968  54.772  1.00  0.00     0.167 C 
BRANCH   7   8
HETATM    8  C   UNL     1       7.591  25.743  55.479  1.00  0.00    -0.029 A 
HETATM    9  C   UNL     1       7.782  24.538  54.732  1.00  0.00    -0.018 A 
HETATM   10  C   UNL     1       8.308  23.397  55.391  1.00  0.00    -0.025 A 
HETATM   11  C   UNL     1       7.473  24.402  53.355  1.00  0.00     0.013 A 
HETATM   12  C   UNL     1       8.505  22.199  54.687  1.00  0.00     0.012 A 
HETATM   13  C   UNL     1       8.633  23.462  56.751  1.00  0.00     0.012 A 
HETATM   14  C   UNL     1       8.187  22.099  53.336  1.00  0.00     0.001 A 
HETATM   15  C   UNL     1       7.671  23.199  52.669  1.00  0.00     0.001 A 
HETATM   16  C   UNL     1       8.438  24.632  57.474  1.00  0.00     0.002 A 
HETATM   17  C   UNL     1       7.920  25.762  56.848  1.00  0.00     0.010 A 
ENDBRANCH   7   8
ENDBRANCH   1   7
BRANCH   3  18
HETATM   18  C   UNL     1       7.444  30.200  58.431  1.00  0.00     0.254 C 
HETATM   19  N   UNL     1       6.910  31.144  59.263  1.00  0.00    -0.336 N 
HETATM   20  H   UNL     1       5.931  31.378  59.312  1.00  0.00     0.164 HD
HETATM   21  O   UNL     1       8.620  29.855  58.461  1.00  0.00    -0.268 OA
BRANCH  19  22
HETATM   22  C   UNL     1       7.706  31.795  60.249  1.00  0.00     0.290 C 
BRANCH  22  23
HETATM   23  O   UNL     1       8.614  32.572  59.508  1.00  0.00    -0.382 OA
HETATM   24  H   UNL     1       8.697  32.141  58.640  1.00  0.00     0.211 HD
ENDBRANCH  22  23
ENDBRANCH  19  22
ENDBRANCH   3  18
TORSDOF 5
ENDMDL
