MODEL 1
REMARK VINA RESULT:     -12.2      0.000      0.000
REMARK  4 active torsions:
REMARK  status: ('A' for Active; 'I' for Inactive)
REMARK    1  A    between atoms: C_2  and  C_3 
REMARK    2  A    between atoms: N_16  and  C_17 
REMARK    3  A    between atoms: C_17  and  C_18 
REMARK       I    between atoms: C_18  and  N_19 
REMARK    4  A    between atoms: N_19  and  C_20 
ROOT
HETATM    1  C   UNL     1       5.214  26.426  53.293  1.00  0.00     0.054 C 
HETATM    2  C   UNL     1       5.959  26.339  54.628  1.00  0.00     0.140 A 
HETATM    3  N   UNL     1       5.063  26.726  55.698  1.00  0.00    -0.321 N 
HETATM    4  C   UNL     1       5.447  27.881  56.330  1.00  0.00     0.326 A 
HETATM    5  O   UNL     1       4.821  28.393  57.241  1.00  0.00    -0.247 OA
HETATM    6  N   UNL     1       6.594  28.329  55.759  1.00  0.00    -0.259 N 
HETATM    7  C   UNL     1       6.975  27.504  54.740  1.00  0.00     0.261 A 
HETATM    8  O   UNL     1       7.959  27.675  54.033  1.00  0.00    -0.270 OA
HETATM    9  H   UNL     1       4.213  26.245  55.959  1.00  0.00     0.165 HD
ENDROOT
BRANCH   6  10
HETATM   10  C   UNL     1       7.282  29.536  56.168  1.00  0.00     0.240 C 
BRANCH  10  11
HETATM   11  C   UNL     1       7.713  29.474  57.633  1.00  0.00     0.240 C 
HETATM   12  N   UNL     1       7.593  30.669  58.311  1.00  0.00    -0.324 N 
HETATM   13  H   UNL     1       7.075  31.433  57.875  1.00  0.00     0.169 HD
HETATM   14  O   UNL     1       7.999  28.395  58.149  1.00  0.00    -0.271 OA
BRANCH  12  15
HETATM   15  C   UNL     1       7.985  30.961  59.640  1.00  0.00     0.064 A 
HETATM   16  C   UNL     1       7.145  31.832  60.353  1.00  0.00     0.093 A 
HETATM   17  C   UNL     1       7.494  32.167  61.680  1.00  0.00    -0.005 A 
HETATM   18  N   UNL     1       6.030  32.325  59.763  1.00  0.00    -0.258 NA
HETATM   19  C   UNL     1       6.647  33.028  62.390  1.00  0.00     0.015 A 
HETATM   20  C   UNL     1       8.661  31.644  62.260  1.00  0.00     0.014 A 
HETATM   21  C   UNL     1       5.503  33.530  61.784  1.00  0.00     0.020 A 
HETATM   22  C   UNL     1       5.242  33.155  60.480  1.00  0.00     0.117 A 
HETATM   23  C   UNL     1       9.486  30.792  61.532  1.00  0.00     0.003 A 
HETATM   24  C   UNL     1       9.148  30.450  60.224  1.00  0.00     0.032 A 
ENDBRANCH  12  15
ENDBRANCH  10  11
ENDBRANCH   6  10
BRANCH   2  25
HETATM   25  C   UNL     1       6.619  24.983  54.851  1.00  0.00    -0.020 A 
HETATM   26  C   UNL     1       6.871  24.083  53.798  1.00  0.00     0.022 A 
HETATM   27  C   UNL     1       7.491  22.838  54.018  1.00  0.00    -0.025 A 
HETATM   28  C   UNL     1       7.869  22.472  55.327  1.00  0.00    -0.026 A 
HETATM   29  C   UNL     1       7.744  21.949  52.959  1.00  0.00     0.012 A 
HETATM   30  C   UNL     1       7.612  23.357  56.381  1.00  0.00     0.013 A 
HETATM   31  C   UNL     1       8.489  21.232  55.545  1.00  0.00     0.012 A 
HETATM   32  C   UNL     1       6.996  24.590  56.146  1.00  0.00     0.011 A 
HETATM   33  C   UNL     1       8.736  20.362  54.483  1.00  0.00     0.001 A 
HETATM   34  C   UNL     1       8.363  20.720  53.190  1.00  0.00     0.001 A 
ENDBRANCH   2  25
TORSDOF 4
ENDMDL
MODEL 2
REMARK VINA RESULT:     -12.1      1.269      2.708
REMARK  4 active torsions:
REMARK  status: ('A' for Active; 'I' for Inactive)
REMARK    1  A    between atoms: C_2  and  C_3 
REMARK    2  A    between atoms: N_16  and  C_17 
REMARK    3  A    between atoms: C_17  and  C_18 
REMARK       I    between atoms: C_18  and  N_19 
REMARK    4  A    between atoms: N_19  and  C_20 
ROOT
HETATM    1  C   UNL     1       4.942  25.245  57.226  1.00  0.00     0.054 C 
HETATM    2  C   UNL     1       6.198  25.691  56.472  1.00  0.00     0.140 A 
HETATM    3  N   UNL     1       7.191  26.138  57.427  1.00  0.00    -0.321 N 
HETATM    4  C   UNL     1       7.473  27.476  57.322  1.00  0.00     0.326 A 
HETATM    5  O   UNL     1       8.262  28.058  58.045  1.00  0.00    -0.247 OA
HETATM    6  N   UNL     1       6.727  28.001  56.317  1.00  0.00    -0.259 N 
HETATM    7  C   UNL     1       5.934  27.040  55.759  1.00  0.00     0.261 A 
HETATM    8  O   UNL     1       5.139  27.233  54.847  1.00  0.00    -0.270 OA
HETATM    9  H   UNL     1       7.626  25.565  58.138  1.00  0.00     0.165 HD
ENDROOT
BRANCH   6  10
HETATM   10  C   UNL     1       6.761  29.396  55.931  1.00  0.00     0.240 C 
BRANCH  10  11
HETATM   11  C   UNL     1       6.034  30.282  56.942  1.00  0.00     0.240 C 
HETATM   12  N   UNL     1       6.866  30.923  57.836  1.00  0.00    -0.324 N 
HETATM   13  H   UNL     1       7.873  30.920  57.663  1.00  0.00     0.169 HD
HETATM   14  O   UNL     1       4.825  30.483  56.834  1.00  0.00    -0.271 OA
BRANCH  12  15
HETATM   15  C   UNL     1       6.504  31.736  58.938  1.00  0.00     0.064 A 
HETATM   16  C   UNL     1       7.302  31.610  60.086  1.00  0.00     0.093 A 
HETATM   17  C   UNL     1       6.978  32.389  61.219  1.00  0.00    -0.005 A 
HETATM   18  N   UNL     1       8.354  30.758  60.085  1.00  0.00    -0.258 NA
HETATM   19  C   UNL     1       7.785  32.268  62.358  1.00  0.00     0.015 A 
HETATM   20  C   UNL     1       5.876  33.259  61.191  1.00  0.00     0.014 A 
HETATM   21  C   UNL     1       8.865  31.395  62.353  1.00  0.00     0.020 A 
HETATM   22  C   UNL     1       9.104  30.667  61.204  1.00  0.00     0.117 A 
HETATM   23  C   UNL     1       5.091  33.360  60.047  1.00  0.00     0.003 A 
HETATM   24  C   UNL     1       5.404  32.600  58.921  1.00  0.00     0.032 A 
ENDBRANCH  12  15
ENDBRANCH  10  11
ENDBRANCH   6  10
BRANCH   2  25
HETATM   25  C   UNL     1       6.719  24.629  55.509  1.00  0.00    -0.020 A 
HETATM   26  C   UNL     1       7.153  23.362  55.945  1.00  0.00     0.022 A 
HETATM   27  C   UNL     1       7.621  22.388  55.042  1.00  0.00    -0.025 A 
HETATM   28  C   UNL     1       7.664  22.682  53.663  1.00  0.00    -0.026 A 
HETATM   29  C   UNL     1       8.046  21.124  55.485  1.00  0.00     0.012 A 
HETATM   30  C   UNL     1       7.243  23.943  53.224  1.00  0.00     0.013 A 
HETATM   31  C   UNL     1       8.128  21.709  52.764  1.00  0.00     0.012 A 
HETATM   32  C   UNL     1       6.781  24.900  54.132  1.00  0.00     0.011 A 
HETATM   33  C   UNL     1       8.544  20.458  53.220  1.00  0.00     0.001 A 
HETATM   34  C   UNL     1       8.504  20.165  54.580  1.00  0.00     0.001 A 
ENDBRANCH   2  25
TORSDOF 4
ENDMDL
MODEL 3
REMARK VINA RESULT:     -11.3      4.084      7.369
REMARK  4 active torsions:
REMARK  status: ('A' for Active; 'I' for Inactive)
REMARK    1  A    between atoms: C_2  and  C_3 
REMARK    2  A    between atoms: N_16  and  C_17 
REMARK    3  A    between atoms: C_17  and  C_18 
REMARK       I    between atoms: C_18  and  N_19 
REMARK    4  A    between atoms: N_19  and  C_20 
ROOT
HETATM    1  C   UNL     1       7.435  25.769  57.777  1.00  0.00     0.054 C 
HETATM    2  C   UNL     1       7.442  26.041  56.270  1.00  0.00     0.140 A 
HETATM    3  N   UNL     1       8.373  27.113  55.985  1.00  0.00    -0.321 N 
HETATM    4  C   UNL     1       7.761  28.242  55.502  1.00  0.00     0.326 A 
HETATM    5  O   UNL     1       8.359  29.266  55.222  1.00  0.00    -0.247 OA
HETATM    6  N   UNL     1       6.426  28.012  55.419  1.00  0.00    -0.259 N 
HETATM    7  C   UNL     1       6.130  26.753  55.857  1.00  0.00     0.261 A 
HETATM    8  O   UNL     1       5.001  26.282  55.917  1.00  0.00    -0.270 OA
HETATM    9  H   UNL     1       9.370  27.087  56.147  1.00  0.00     0.165 HD
ENDROOT
BRANCH   6  10
HETATM   10  C   UNL     1       5.465  28.992  54.958  1.00  0.00     0.240 C 
BRANCH  10  11
HETATM   11  C   UNL     1       4.792  28.557  53.656  1.00  0.00     0.240 C 
HETATM   12  N   UNL     1       5.664  28.348  52.608  1.00  0.00    -0.324 N 
HETATM   13  H   UNL     1       6.666  28.313  52.800  1.00  0.00     0.169 HD
HETATM   14  O   UNL     1       3.590  28.293  53.638  1.00  0.00    -0.271 OA
BRANCH  12  15
HETATM   15  C   UNL     1       5.352  28.027  51.265  1.00  0.00     0.064 A 
HETATM   16  C   UNL     1       5.365  29.097  50.356  1.00  0.00     0.093 A 
HETATM   17  C   UNL     1       5.050  28.836  49.004  1.00  0.00    -0.005 A 
HETATM   18  N   UNL     1       5.678  30.342  50.787  1.00  0.00    -0.258 NA
HETATM   19  C   UNL     1       5.076  29.905  48.099  1.00  0.00     0.015 A 
HETATM   20  C   UNL     1       4.724  27.534  48.591  1.00  0.00     0.014 A 
HETATM   21  C   UNL     1       5.400  31.180  48.543  1.00  0.00     0.020 A 
HETATM   22  C   UNL     1       5.688  31.346  49.884  1.00  0.00     0.117 A 
HETATM   23  C   UNL     1       4.705  26.489  49.510  1.00  0.00     0.003 A 
HETATM   24  C   UNL     1       5.019  26.735  50.845  1.00  0.00     0.032 A 
ENDBRANCH  12  15
ENDBRANCH  10  11
ENDBRANCH   6  10
BRANCH   2  25
HETATM   25  C   UNL     1       7.694  24.784  55.443  1.00  0.00    -0.020 A 
HETATM   26  C   UNL     1       7.979  23.538  56.032  1.00  0.00     0.022 A 
HETATM   27  C   UNL     1       8.198  22.383  55.255  1.00  0.00    -0.025 A 
HETATM   28  C   UNL     1       8.138  22.471  53.848  1.00  0.00    -0.026 A 
HETATM   29  C   UNL     1       8.475  21.142  55.852  1.00  0.00     0.012 A 
HETATM   30  C   UNL     1       7.865  23.709  53.256  1.00  0.00     0.013 A 
HETATM   31  C   UNL     1       8.354  21.320  53.075  1.00  0.00     0.012 A 
HETATM   32  C   UNL     1       7.649  24.846  54.041  1.00  0.00     0.011 A 
HETATM   33  C   UNL     1       8.626  20.094  53.683  1.00  0.00     0.001 A 
HETATM   34  C   UNL     1       8.687  20.005  55.071  1.00  0.00     0.001 A 
ENDBRANCH   2  25
TORSDOF 4
ENDMDL
MODEL 4
REMARK VINA RESULT:     -11.2      1.800      3.241
REMARK  4 active torsions:
REMARK  status: ('A' for Active; 'I' for Inactive)
REMARK    1  A    between atoms: C_2  and  C_3 
REMARK    2  A    between atoms: N_16  and  C_17 
REMARK    3  A    between atoms: C_17  and  C_18 
REMARK       I    between atoms: C_18  and  N_19 
REMARK    4  A    between atoms: N_19  and  C_20 
ROOT
HETATM    1  C   UNL     1       8.535  28.408  54.414  1.00  0.00     0.054 C 
HETATM    2  C   UNL     1       7.214  27.662  54.209  1.00  0.00     0.140 A 
HETATM    3  N   UNL     1       6.432  28.348  53.201  1.00  0.00    -0.321 N 
HETATM    4  C   UNL     1       5.272  28.887  53.696  1.00  0.00     0.326 A 
HETATM    5  O   UNL     1       4.483  29.524  53.022  1.00  0.00    -0.247 OA
HETATM    6  N   UNL     1       5.188  28.600  55.020  1.00  0.00    -0.259 N 
HETATM    7  C   UNL     1       6.284  27.894  55.426  1.00  0.00     0.261 A 
HETATM    8  O   UNL     1       6.488  27.520  56.574  1.00  0.00    -0.270 OA
HETATM    9  H   UNL     1       6.696  28.473  52.234  1.00  0.00     0.165 HD
ENDROOT
BRANCH   6  10
HETATM   10  C   UNL     1       4.095  29.023  55.870  1.00  0.00     0.240 C 
BRANCH  10  11
HETATM   11  C   UNL     1       4.414  30.330  56.595  1.00  0.00     0.240 C 
HETATM   12  N   UNL     1       5.107  30.170  57.776  1.00  0.00    -0.324 N 
HETATM   13  H   UNL     1       5.511  29.257  57.991  1.00  0.00     0.169 HD
HETATM   14  O   UNL     1       4.175  31.411  56.057  1.00  0.00    -0.271 OA
BRANCH  12  15
HETATM   15  C   UNL     1       5.474  31.166  58.714  1.00  0.00     0.064 A 
HETATM   16  C   UNL     1       6.850  31.298  58.966  1.00  0.00     0.093 A 
HETATM   17  C   UNL     1       7.271  32.267  59.903  1.00  0.00    -0.005 A 
HETATM   18  N   UNL     1       7.733  30.506  58.314  1.00  0.00    -0.258 NA
HETATM   19  C   UNL     1       8.645  32.403  60.142  1.00  0.00     0.015 A 
HETATM   20  C   UNL     1       6.329  33.069  60.568  1.00  0.00     0.014 A 
HETATM   21  C   UNL     1       9.549  31.592  59.469  1.00  0.00     0.020 A 
HETATM   22  C   UNL     1       9.048  30.665  58.575  1.00  0.00     0.117 A 
HETATM   23  C   UNL     1       4.970  32.913  60.313  1.00  0.00     0.003 A 
HETATM   24  C   UNL     1       4.543  31.963  59.387  1.00  0.00     0.032 A 
ENDBRANCH  12  15
ENDBRANCH  10  11
ENDBRANCH   6  10
BRANCH   2  25
HETATM   25  C   UNL     1       7.411  26.178  53.916  1.00  0.00    -0.020 A 
HETATM   26  C   UNL     1       7.431  25.204  54.933  1.00  0.00     0.022 A 
HETATM   27  C   UNL     1       7.604  23.836  54.646  1.00  0.00    -0.025 A 
HETATM   28  C   UNL     1       7.766  23.423  53.306  1.00  0.00    -0.026 A 
HETATM   29  C   UNL     1       7.616  22.870  55.666  1.00  0.00     0.012 A 
HETATM   30  C   UNL     1       7.757  24.386  52.292  1.00  0.00     0.013 A 
HETATM   31  C   UNL     1       7.935  22.058  53.021  1.00  0.00     0.012 A 
HETATM   32  C   UNL     1       7.585  25.741  52.593  1.00  0.00     0.011 A 
HETATM   33  C   UNL     1       7.943  21.112  54.046  1.00  0.00     0.001 A 
HETATM   34  C   UNL     1       7.784  21.517  55.368  1.00  0.00     0.001 A 
ENDBRANCH   2  25
TORSDOF 4
ENDMDL
MODEL 5
REMARK VINA RESULT:     -11.1      4.191      7.994
REMARK  4 active torsions:
REMARK  status: ('A' for Active; 'I' for Inactive)
REMARK    1  A    between atoms: C_2  and  C_3 
REMARK    2  A    between atoms: N_16  and  C_17 
REMARK    3  A    between atoms: C_17  and  C_18 
REMARK       I    between atoms: C_18  and  N_19 
REMARK    4  A    between atoms: N_19  and  C_20 
ROOT
HETATM    1  C   UNL     1       7.581  26.389  57.622  1.00  0.00     0.054 C 
HETATM    2  C   UNL     1       7.378  25.976  56.162  1.00  0.00     0.140 A 
HETATM    3  N   UNL     1       8.095  26.897  55.304  1.00  0.00    -0.321 N 
HETATM    4  C   UNL     1       7.267  27.642  54.504  1.00  0.00     0.326 A 
HETATM    5  O   UNL     1       7.664  28.491  53.726  1.00  0.00    -0.247 OA
HETATM    6  N   UNL     1       5.982  27.278  54.748  1.00  0.00    -0.259 N 
HETATM    7  C   UNL     1       5.934  26.315  55.715  1.00  0.00     0.261 A 
HETATM    8  O   UNL     1       4.905  25.816  56.153  1.00  0.00    -0.270 OA
HETATM    9  H   UNL     1       9.096  27.035  55.293  1.00  0.00     0.165 HD
ENDROOT
BRANCH   6  10
HETATM   10  C   UNL     1       4.836  27.868  54.088  1.00  0.00     0.240 C 
BRANCH  10  11
HETATM   11  C   UNL     1       4.546  27.193  52.747  1.00  0.00     0.240 C 
HETATM   12  N   UNL     1       4.573  28.047  51.664  1.00  0.00    -0.324 N 
HETATM   13  H   UNL     1       4.951  28.987  51.787  1.00  0.00     0.169 HD
HETATM   14  O   UNL     1       4.444  25.969  52.679  1.00  0.00    -0.271 OA
BRANCH  12  15
HETATM   15  C   UNL     1       4.266  27.753  50.314  1.00  0.00     0.064 A 
HETATM   16  C   UNL     1       3.196  28.472  49.754  1.00  0.00     0.093 A 
HETATM   17  C   UNL     1       2.838  28.210  48.414  1.00  0.00    -0.005 A 
HETATM   18  N   UNL     1       2.540  29.391  50.501  1.00  0.00    -0.258 NA
HETATM   19  C   UNL     1       1.778  28.938  47.857  1.00  0.00     0.015 A 
HETATM   20  C   UNL     1       3.535  27.246  47.668  1.00  0.00     0.014 A 
HETATM   21  C   UNL     1       1.108  29.882  48.624  1.00  0.00     0.020 A 
HETATM   22  C   UNL     1       1.521  30.068  49.930  1.00  0.00     0.117 A 
HETATM   23  C   UNL     1       4.584  26.536  48.245  1.00  0.00     0.003 A 
HETATM   24  C   UNL     1       4.950  26.789  49.566  1.00  0.00     0.032 A 
ENDBRANCH  12  15
ENDBRANCH  10  11
ENDBRANCH   6  10
BRANCH   2  25
HETATM   25  C   UNL     1       7.727  24.514  55.905  1.00  0.00    -0.020 A 
HETATM   26  C   UNL     1       7.662  23.935  54.624  1.00  0.00     0.022 A 
HETATM   27  C   UNL     1       7.998  22.586  54.401  1.00  0.00    -0.025 A 
HETATM   28  C   UNL     1       8.406  21.784  55.488  1.00  0.00    -0.026 A 
HETATM   29  C   UNL     1       7.936  22.018  53.117  1.00  0.00     0.012 A 
HETATM   30  C   UNL     1       8.464  22.349  56.766  1.00  0.00     0.013 A 
HETATM   31  C   UNL     1       8.743  20.439  55.264  1.00  0.00     0.012 A 
HETATM   32  C   UNL     1       8.127  23.691  56.971  1.00  0.00     0.011 A 
HETATM   33  C   UNL     1       8.679  19.892  53.983  1.00  0.00     0.001 A 
HETATM   34  C   UNL     1       8.275  20.681  52.909  1.00  0.00     0.001 A 
ENDBRANCH   2  25
TORSDOF 4
ENDMDL
MODEL 6
REMARK VINA RESULT:     -11.1      1.704      9.755
REMARK  4 active torsions:
REMARK  status: ('A' for Active; 'I' for Inactive)
REMARK    1  A    between atoms: C_2  and  C_3 
REMARK    2  A    between atoms: N_16  and  C_17 
REMARK    3  A    between atoms: C_17  and  C_18 
REMARK       I    between atoms: C_18  and  N_19 
REMARK    4  A    between atoms: N_19  and  C_20 
ROOT
HETATM    1  C   UNL     1       8.752  29.915  56.545  1.00  0.00     0.054 C 
HETATM    2  C   UNL     1       7.800  29.374  57.616  1.00  0.00     0.140 A 
HETATM    3  N   UNL     1       8.326  28.128  58.133  1.00  0.00    -0.321 N 
HETATM    4  C   UNL     1       7.532  27.048  57.843  1.00  0.00     0.326 A 
HETATM    5  O   UNL     1       7.802  25.905  58.165  1.00  0.00    -0.247 OA
HETATM    6  N   UNL     1       6.448  27.479  57.148  1.00  0.00    -0.259 N 
HETATM    7  C   UNL     1       6.513  28.828  56.949  1.00  0.00     0.261 A 
HETATM    8  O   UNL     1       5.683  29.484  56.333  1.00  0.00    -0.270 OA
HETATM    9  H   UNL     1       9.202  28.016  58.626  1.00  0.00     0.165 HD
ENDROOT
BRANCH   6  10
HETATM   10  C   UNL     1       5.398  26.605  56.666  1.00  0.00     0.240 C 
BRANCH  10  11
HETATM   11  C   UNL     1       5.827  25.841  55.414  1.00  0.00     0.240 C 
HETATM   12  N   UNL     1       6.454  24.640  55.669  1.00  0.00    -0.324 N 
HETATM   13  H   UNL     1       6.427  24.261  56.617  1.00  0.00     0.169 HD
HETATM   14  O   UNL     1       5.491  26.240  54.299  1.00  0.00    -0.271 OA
BRANCH  12  15
HETATM   15  C   UNL     1       7.040  23.747  54.739  1.00  0.00     0.064 A 
HETATM   16  C   UNL     1       7.696  22.631  55.285  1.00  0.00     0.093 A 
HETATM   17  C   UNL     1       8.309  21.713  54.404  1.00  0.00    -0.005 A 
HETATM   18  N   UNL     1       7.725  22.458  56.628  1.00  0.00    -0.258 NA
HETATM   19  C   UNL     1       8.952  20.596  54.954  1.00  0.00     0.015 A 
HETATM   20  C   UNL     1       8.267  21.925  53.017  1.00  0.00     0.014 A 
HETATM   21  C   UNL     1       8.978  20.419  56.330  1.00  0.00     0.020 A 
HETATM   22  C   UNL     1       8.358  21.371  57.118  1.00  0.00     0.117 A 
HETATM   23  C   UNL     1       7.623  23.044  52.497  1.00  0.00     0.003 A 
HETATM   24  C   UNL     1       7.010  23.954  53.356  1.00  0.00     0.032 A 
ENDBRANCH  12  15
ENDBRANCH  10  11
ENDBRANCH   6  10
BRANCH   2  25
HETATM   25  C   UNL     1       7.490  30.398  58.704  1.00  0.00    -0.020 A 
HETATM   26  C   UNL     1       8.149  30.401  59.948  1.00  0.00     0.022 A 
HETATM   27  C   UNL     1       7.859  31.360  60.938  1.00  0.00    -0.025 A 
HETATM   28  C   UNL     1       6.879  32.344  60.686  1.00  0.00    -0.026 A 
HETATM   29  C   UNL     1       8.526  31.359  62.175  1.00  0.00     0.012 A 
HETATM   30  C   UNL     1       6.213  32.340  59.456  1.00  0.00     0.013 A 
HETATM   31  C   UNL     1       6.593  33.300  61.673  1.00  0.00     0.012 A 
HETATM   32  C   UNL     1       6.512  31.382  58.482  1.00  0.00     0.011 A 
HETATM   33  C   UNL     1       7.267  33.287  62.895  1.00  0.00     0.001 A 
HETATM   34  C   UNL     1       8.233  32.317  63.146  1.00  0.00     0.001 A 
ENDBRANCH   2  25
TORSDOF 4
ENDMDL
MODEL 7
REMARK VINA RESULT:     -11.1      1.561      9.814
REMARK  4 active torsions:
REMARK  status: ('A' for Active; 'I' for Inactive)
REMARK    1  A    between atoms: C_2  and  C_3 
REMARK    2  A    between atoms: N_16  and  C_17 
REMARK    3  A    between atoms: C_17  and  C_18 
REMARK       I    between atoms: C_18  and  N_19 
REMARK    4  A    between atoms: N_19  and  C_20 
ROOT
HETATM    1  C   UNL     1       9.450  31.371  58.106  1.00  0.00     0.054 C 
HETATM    2  C   UNL     1       8.317  30.717  58.901  1.00  0.00     0.140 A 
HETATM    3  N   UNL     1       8.514  29.283  58.918  1.00  0.00    -0.321 N 
HETATM    4  C   UNL     1       7.531  28.598  58.250  1.00  0.00     0.326 A 
HETATM    5  O   UNL     1       7.519  27.386  58.124  1.00  0.00    -0.247 OA
HETATM    6  N   UNL     1       6.630  29.490  57.765  1.00  0.00    -0.259 N 
HETATM    7  C   UNL     1       7.003  30.765  58.081  1.00  0.00     0.261 A 
HETATM    8  O   UNL     1       6.391  31.773  57.753  1.00  0.00    -0.270 OA
HETATM    9  H   UNL     1       9.299  28.800  59.333  1.00  0.00     0.165 HD
ENDROOT
BRANCH   6  10
HETATM   10  C   UNL     1       5.461  29.120  56.995  1.00  0.00     0.240 C 
BRANCH  10  11
HETATM   11  C   UNL     1       5.838  28.376  55.715  1.00  0.00     0.240 C 
HETATM   12  N   UNL     1       5.434  27.057  55.684  1.00  0.00    -0.324 N 
HETATM   13  H   UNL     1       4.779  26.726  56.394  1.00  0.00     0.169 HD
HETATM   14  O   UNL     1       6.332  28.985  54.767  1.00  0.00    -0.271 OA
BRANCH  12  15
HETATM   15  C   UNL     1       5.701  26.086  54.690  1.00  0.00     0.064 A 
HETATM   16  C   UNL     1       6.618  25.081  55.039  1.00  0.00     0.093 A 
HETATM   17  C   UNL     1       6.930  24.092  54.080  1.00  0.00    -0.005 A 
HETATM   18  N   UNL     1       7.176  25.079  56.273  1.00  0.00    -0.258 NA
HETATM   19  C   UNL     1       7.837  23.086  54.438  1.00  0.00     0.015 A 
HETATM   20  C   UNL     1       6.339  24.127  52.807  1.00  0.00     0.014 A 
HETATM   21  C   UNL     1       8.405  23.084  55.705  1.00  0.00     0.020 A 
HETATM   22  C   UNL     1       8.048  24.094  56.577  1.00  0.00     0.117 A 
HETATM   23  C   UNL     1       5.442  25.138  52.477  1.00  0.00     0.003 A 
HETATM   24  C   UNL     1       5.123  26.116  53.416  1.00  0.00     0.032 A 
ENDBRANCH  12  15
ENDBRANCH  10  11
ENDBRANCH   6  10
BRANCH   2  25
HETATM   25  C   UNL     1       8.144  31.322  60.291  1.00  0.00    -0.020 A 
HETATM   26  C   UNL     1       7.289  32.412  60.539  1.00  0.00     0.022 A 
HETATM   27  C   UNL     1       7.132  32.952  61.830  1.00  0.00    -0.025 A 
HETATM   28  C   UNL     1       7.851  32.394  62.909  1.00  0.00    -0.026 A 
HETATM   29  C   UNL     1       6.272  34.037  62.070  1.00  0.00     0.012 A 
HETATM   30  C   UNL     1       8.711  31.317  62.667  1.00  0.00     0.013 A 
HETATM   31  C   UNL     1       7.692  32.932  64.196  1.00  0.00     0.012 A 
HETATM   32  C   UNL     1       8.856  30.791  61.380  1.00  0.00     0.011 A 
HETATM   33  C   UNL     1       6.832  34.007  64.417  1.00  0.00     0.001 A 
HETATM   34  C   UNL     1       6.122  34.560  63.355  1.00  0.00     0.001 A 
ENDBRANCH   2  25
TORSDOF 4
ENDMDL
MODEL 8
REMARK VINA RESULT:     -10.8      3.711      8.240
REMARK  4 active torsions:
REMARK  status: ('A' for Active; 'I' for Inactive)
REMARK    1  A    between atoms: C_2  and  C_3 
REMARK    2  A    between atoms: N_16  and  C_17 
REMARK    3  A    between atoms: C_17  and  C_18 
REMARK       I    between atoms: C_18  and  N_19 
REMARK    4  A    between atoms: N_19  and  C_20 
ROOT
HETATM    1  C   UNL     1       4.318  29.522  56.703  1.00  0.00     0.054 C 
HETATM    2  C   UNL     1       4.838  28.273  55.986  1.00  0.00     0.140 A 
HETATM    3  N   UNL     1       4.186  27.103  56.537  1.00  0.00    -0.321 N 
HETATM    4  C   UNL     1       5.052  26.264  57.191  1.00  0.00     0.326 A 
HETATM    5  O   UNL     1       4.706  25.236  57.746  1.00  0.00    -0.247 OA
HETATM    6  N   UNL     1       6.303  26.784  57.117  1.00  0.00    -0.259 N 
HETATM    7  C   UNL     1       6.288  27.970  56.441  1.00  0.00     0.261 A 
HETATM    8  O   UNL     1       7.270  28.674  56.242  1.00  0.00    -0.270 OA
HETATM    9  H   UNL     1       3.195  26.907  56.500  1.00  0.00     0.165 HD
ENDROOT
BRANCH   6  10
HETATM   10  C   UNL     1       7.471  26.166  57.709  1.00  0.00     0.240 C 
BRANCH  10  11
HETATM   11  C   UNL     1       8.137  25.179  56.752  1.00  0.00     0.240 C 
HETATM   12  N   UNL     1       7.318  24.731  55.737  1.00  0.00    -0.324 N 
HETATM   13  H   UNL     1       6.425  25.202  55.580  1.00  0.00     0.169 HD
HETATM   14  O   UNL     1       9.342  24.947  56.840  1.00  0.00    -0.271 OA
BRANCH  12  15
HETATM   15  C   UNL     1       7.604  23.758  54.749  1.00  0.00     0.064 A 
HETATM   16  C   UNL     1       7.927  22.475  55.223  1.00  0.00     0.093 A 
HETATM   17  C   UNL     1       8.233  21.468  54.281  1.00  0.00    -0.005 A 
HETATM   18  N   UNL     1       7.936  22.233  56.555  1.00  0.00    -0.258 NA
HETATM   19  C   UNL     1       8.543  20.188  54.759  1.00  0.00     0.015 A 
HETATM   20  C   UNL     1       8.221  21.754  52.907  1.00  0.00     0.014 A 
HETATM   21  C   UNL     1       8.549  19.941  56.125  1.00  0.00     0.020 A 
HETATM   22  C   UNL     1       8.245  20.987  56.975  1.00  0.00     0.117 A 
HETATM   23  C   UNL     1       7.910  23.035  52.459  1.00  0.00     0.003 A 
HETATM   24  C   UNL     1       7.601  24.036  53.379  1.00  0.00     0.032 A 
ENDBRANCH  12  15
ENDBRANCH  10  11
ENDBRANCH   6  10
BRANCH   2  25
HETATM   25  C   UNL     1       4.725  28.371  54.469  1.00  0.00    -0.020 A 
HETATM   26  C   UNL     1       4.969  27.275  53.620  1.00  0.00     0.022 A 
HETATM   27  C   UNL     1       4.850  27.379  52.221  1.00  0.00    -0.025 A 
HETATM   28  C   UNL     1       4.480  28.612  51.645  1.00  0.00    -0.026 A 
HETATM   29  C   UNL     1       5.090  26.277  51.382  1.00  0.00     0.012 A 
HETATM   30  C   UNL     1       4.245  29.709  52.481  1.00  0.00     0.013 A 
HETATM   31  C   UNL     1       4.359  28.714  50.250  1.00  0.00     0.012 A 
HETATM   32  C   UNL     1       4.367  29.591  53.869  1.00  0.00     0.011 A 
HETATM   33  C   UNL     1       4.598  27.610  49.432  1.00  0.00     0.001 A 
HETATM   34  C   UNL     1       4.964  26.392  49.997  1.00  0.00     0.001 A 
ENDBRANCH   2  25
TORSDOF 4
ENDMDL
MODEL 9
REMARK VINA RESULT:     -10.7      2.279      9.049
REMARK  4 active torsions:
REMARK  status: ('A' for Active; 'I' for Inactive)
REMARK    1  A    between atoms: C_2  and  C_3 
REMARK    2  A    between atoms: N_16  and  C_17 
REMARK    3  A    between atoms: C_17  and  C_18 
REMARK       I    between atoms: C_18  and  N_19 
REMARK    4  A    between atoms: N_19  and  C_20 
ROOT
HETATM    1  C   UNL     1       4.963  26.383  57.307  1.00  0.00     0.054 C 
HETATM    2  C   UNL     1       5.485  27.512  56.415  1.00  0.00     0.140 A 
HETATM    3  N   UNL     1       4.507  27.794  55.385  1.00  0.00    -0.321 N 
HETATM    4  C   UNL     1       4.955  27.500  54.123  1.00  0.00     0.326 A 
HETATM    5  O   UNL     1       4.282  27.641  53.117  1.00  0.00    -0.247 OA
HETATM    6  N   UNL     1       6.225  27.030  54.210  1.00  0.00    -0.259 N 
HETATM    7  C   UNL     1       6.629  26.984  55.513  1.00  0.00     0.261 A 
HETATM    8  O   UNL     1       7.721  26.580  55.892  1.00  0.00    -0.270 OA
HETATM    9  H   UNL     1       3.568  28.135  55.541  1.00  0.00     0.165 HD
ENDROOT
BRANCH   6  10
HETATM   10  C   UNL     1       7.011  26.609  53.068  1.00  0.00     0.240 C 
BRANCH  10  11
HETATM   11  C   UNL     1       6.941  25.097  52.858  1.00  0.00     0.240 C 
HETATM   12  N   UNL     1       7.684  24.363  53.758  1.00  0.00    -0.324 N 
HETATM   13  H   UNL     1       8.064  24.832  54.582  1.00  0.00     0.169 HD
HETATM   14  O   UNL     1       6.162  24.622  52.033  1.00  0.00    -0.271 OA
BRANCH  12  15
HETATM   15  C   UNL     1       7.895  22.963  53.780  1.00  0.00     0.064 A 
HETATM   16  C   UNL     1       8.106  22.391  55.045  1.00  0.00     0.093 A 
HETATM   17  C   UNL     1       8.334  20.999  55.124  1.00  0.00    -0.005 A 
HETATM   18  N   UNL     1       8.086  23.173  56.149  1.00  0.00    -0.258 NA
HETATM   19  C   UNL     1       8.533  20.432  56.389  1.00  0.00     0.015 A 
HETATM   20  C   UNL     1       8.356  20.216  53.958  1.00  0.00     0.014 A 
HETATM   21  C   UNL     1       8.508  21.236  57.521  1.00  0.00     0.020 A 
HETATM   22  C   UNL     1       8.286  22.589  57.350  1.00  0.00     0.117 A 
HETATM   23  C   UNL     1       8.156  20.805  52.713  1.00  0.00     0.003 A 
HETATM   24  C   UNL     1       7.926  22.177  52.623  1.00  0.00     0.032 A 
ENDBRANCH  12  15
ENDBRANCH  10  11
ENDBRANCH   6  10
BRANCH   2  25
HETATM   25  C   UNL     1       5.905  28.746  57.206  1.00  0.00    -0.020 A 
HETATM   26  C   UNL     1       7.183  28.875  57.781  1.00  0.00     0.022 A 
HETATM   27  C   UNL     1       7.560  30.026  58.500  1.00  0.00    -0.025 A 
HETATM   28  C   UNL     1       6.636  31.081  58.657  1.00  0.00    -0.026 A 
HETATM   29  C   UNL     1       8.841  30.150  59.066  1.00  0.00     0.012 A 
HETATM   30  C   UNL     1       5.360  30.955  58.096  1.00  0.00     0.013 A 
HETATM   31  C   UNL     1       7.013  32.229  59.372  1.00  0.00     0.012 A 
HETATM   32  C   UNL     1       5.001  29.806  57.385  1.00  0.00     0.011 A 
HETATM   33  C   UNL     1       8.289  32.336  59.924  1.00  0.00     0.001 A 
HETATM   34  C   UNL     1       9.203  31.297  59.772  1.00  0.00     0.001 A 
ENDBRANCH   2  25
TORSDOF 4
ENDMDL
MODEL 10
REMARK VINA RESULT:     -10.5      3.098      4.908
REMARK  4 active torsions:
REMARK  status: ('A' for Active; 'I' for Inactive)
REMARK    1  A    between atoms: C_2  and  C_3 
REMARK    2  A    between atoms: N_16  and  C_17 
REMARK    3  A    between atoms: C_17  and  C_18 
REMARK       I    between atoms: C_18  and  N_19 
REMARK    4  A    between atoms: N_19  and  C_20 
ROOT
HETATM    1  C   UNL     1       5.496  25.595  56.091  1.00  0.00     0.054 C 
HETATM    2  C   UNL     1       6.288  25.621  54.781  1.00  0.00     0.140 A 
HETATM    3  N   UNL     1       7.232  26.719  54.818  1.00  0.00    -0.321 N 
HETATM    4  C   UNL     1       6.962  27.690  53.888  1.00  0.00     0.326 A 
HETATM    5  O   UNL     1       7.618  28.709  53.766  1.00  0.00    -0.247 OA
HETATM    6  N   UNL     1       5.867  27.320  53.177  1.00  0.00    -0.259 N 
HETATM    7  C   UNL     1       5.385  26.125  53.628  1.00  0.00     0.261 A 
HETATM    8  O   UNL     1       4.391  25.562  53.188  1.00  0.00    -0.270 OA
HETATM    9  H   UNL     1       7.997  26.817  55.470  1.00  0.00     0.165 HD
ENDROOT
BRANCH   6  10
HETATM   10  C   UNL     1       5.288  28.115  52.113  1.00  0.00     0.240 C 
BRANCH  10  11
HETATM   11  C   UNL     1       4.234  29.087  52.641  1.00  0.00     0.240 C 
HETATM   12  N   UNL     1       4.744  30.130  53.385  1.00  0.00    -0.324 N 
HETATM   13  H   UNL     1       5.753  30.291  53.381  1.00  0.00     0.169 HD
HETATM   14  O   UNL     1       3.061  28.982  52.285  1.00  0.00    -0.271 OA
BRANCH  12  15
HETATM   15  C   UNL     1       4.032  31.139  54.077  1.00  0.00     0.064 A 
HETATM   16  C   UNL     1       4.180  31.151  55.474  1.00  0.00     0.093 A 
HETATM   17  C   UNL     1       3.482  32.129  56.216  1.00  0.00    -0.005 A 
HETATM   18  N   UNL     1       4.980  30.237  56.073  1.00  0.00    -0.258 NA
HETATM   19  C   UNL     1       3.642  32.143  57.608  1.00  0.00     0.015 A 
HETATM   20  C   UNL     1       2.655  33.058  55.564  1.00  0.00     0.014 A 
HETATM   21  C   UNL     1       4.465  31.207  58.220  1.00  0.00     0.020 A 
HETATM   22  C   UNL     1       5.104  30.282  57.417  1.00  0.00     0.117 A 
HETATM   23  C   UNL     1       2.513  33.021  54.180  1.00  0.00     0.003 A 
HETATM   24  C   UNL     1       3.200  32.064  53.437  1.00  0.00     0.032 A 
ENDBRANCH  12  15
ENDBRANCH  10  11
ENDBRANCH   6  10
BRANCH   2  25
HETATM   25  C   UNL     1       6.934  24.278  54.454  1.00  0.00    -0.020 A 
HETATM   26  C   UNL     1       7.229  23.321  55.443  1.00  0.00     0.022 A 
HETATM   27  C   UNL     1       7.815  22.081  55.124  1.00  0.00    -0.025 A 
HETATM   28  C   UNL     1       8.124  21.785  53.780  1.00  0.00    -0.026 A 
HETATM   29  C   UNL     1       8.100  21.129  56.118  1.00  0.00     0.012 A 
HETATM   30  C   UNL     1       7.844  22.735  52.792  1.00  0.00     0.013 A 
HETATM   31  C   UNL     1       8.707  20.547  53.463  1.00  0.00     0.012 A 
HETATM   32  C   UNL     1       7.261  23.962  53.125  1.00  0.00     0.011 A 
HETATM   33  C   UNL     1       8.981  19.612  54.461  1.00  0.00     0.001 A 
HETATM   34  C   UNL     1       8.678  19.902  55.788  1.00  0.00     0.001 A 
ENDBRANCH   2  25
TORSDOF 4
ENDMDL
