MODEL 1
REMARK VINA RESULT:      -9.8      0.000      0.000
REMARK  6 active torsions:
REMARK  status: ('A' for Active; 'I' for Inactive)
REMARK    1  A    between atoms: C_2  and  O_3 
REMARK    2  A    between atoms: C_2  and  C_4 
REMARK    3  A    between atoms: C_2  and  C_11 
REMARK    4  A    between atoms: C_11  and  N_12 
REMARK       I    between atoms: N_12  and  C_13 
REMARK    5  A    between atoms: C_13  and  C_14 
REMARK    6  A    between atoms: C_18  and  C_19 
ROOT
HETATM    1  N   UNL     1       7.552  28.871  57.849  1.00  0.00    -0.352 N 
HETATM    2  C   UNL     1       6.577  28.001  57.422  1.00  0.00     0.272 C 
HETATM    3  O   UNL     1       5.403  28.324  57.261  1.00  0.00    -0.266 OA
HETATM    4  H   UNL     1       8.507  28.522  57.826  1.00  0.00     0.162 HD
ENDROOT
BRANCH   2   5
HETATM    5  C   UNL     1       7.071  26.642  57.154  1.00  0.00     0.146 A 
HETATM    6  N   UNL     1       7.801  25.947  58.049  1.00  0.00    -0.169 NA
HETATM    7  N   UNL     1       8.057  24.785  57.426  1.00  0.00    -0.277 N 
HETATM    8  H   UNL     1       8.628  24.101  57.911  1.00  0.00     0.189 HD
HETATM    9  C   UNL     1       7.514  24.677  56.171  1.00  0.00     0.063 A 
HETATM   10  C   UNL     1       6.875  25.886  55.970  1.00  0.00     0.071 A 
BRANCH   9  11
HETATM   11  C   UNL     1       7.665  23.508  55.307  1.00  0.00    -0.008 A 
HETATM   12  C   UNL     1       7.734  22.210  55.840  1.00  0.00     0.017 A 
HETATM   13  C   UNL     1       7.876  21.102  54.999  1.00  0.00     0.043 A 
HETATM   14  C   UNL     1       7.948  21.288  53.625  1.00  0.00     0.116 A 
HETATM   15  F   UNL     1       8.085  20.224  52.822  1.00  0.00    -0.206 F 
HETATM   16  C   UNL     1       7.877  22.559  53.074  1.00  0.00     0.043 A 
HETATM   17  C   UNL     1       7.733  23.666  53.914  1.00  0.00     0.017 A 
ENDBRANCH   9  11
ENDBRANCH   2   5
BRANCH   1  18
HETATM   18  C   UNL     1       7.329  30.294  58.039  1.00  0.00     0.165 C 
BRANCH  18  19
HETATM   19  C   UNL     1       8.045  30.874  59.302  1.00  0.00     0.099 C 
HETATM   20  C   UNL     1       9.370  31.537  58.889  1.00  0.00     0.053 C 
BRANCH  19  21
HETATM   21  O   UNL     1       8.336  29.720  60.112  1.00  0.00    -0.384 OA
HETATM   22  H   UNL     1       9.266  29.787  60.390  1.00  0.00     0.211 HD
ENDBRANCH  19  21
BRANCH  19  23
HETATM   23  C   UNL     1       7.189  31.874  60.104  1.00  0.00    -0.001 A 
HETATM   24  C   UNL     1       7.585  32.410  61.350  1.00  0.00     0.043 A 
HETATM   25 CL   UNL     1       9.074  31.991  62.133  1.00  0.00    -0.084 Cl
HETATM   26  C   UNL     1       6.785  33.339  62.034  1.00  0.00     0.024 A 
HETATM   27  C   UNL     1       5.578  33.767  61.494  1.00  0.00     0.002 A 
HETATM   28  C   UNL     1       5.168  33.270  60.265  1.00  0.00     0.001 A 
HETATM   29  C   UNL     1       5.963  32.343  59.580  1.00  0.00     0.012 A 
ENDBRANCH  19  23
ENDBRANCH  18  19
ENDBRANCH   1  18
TORSDOF 6
ENDMDL
MODEL 2
REMARK VINA RESULT:      -9.5      2.651      4.062
REMARK  6 active torsions:
REMARK  status: ('A' for Active; 'I' for Inactive)
REMARK    1  A    between atoms: C_2  and  O_3 
REMARK    2  A    between atoms: C_2  and  C_4 
REMARK    3  A    between atoms: C_2  and  C_11 
REMARK    4  A    between atoms: C_11  and  N_12 
REMARK       I    between atoms: N_12  and  C_13 
REMARK    5  A    between atoms: C_13  and  C_14 
REMARK    6  A    between atoms: C_18  and  C_19 
ROOT
HETATM    1  N   UNL     1       7.296  31.173  59.887  1.00  0.00    -0.352 N 
HETATM    2  C   UNL     1       8.369  31.283  59.033  1.00  0.00     0.272 C 
HETATM    3  O   UNL     1       9.081  32.282  58.967  1.00  0.00    -0.266 OA
HETATM    4  H   UNL     1       6.858  30.256  59.941  1.00  0.00     0.162 HD
ENDROOT
BRANCH   2   5
HETATM    5  C   UNL     1       8.601  30.085  58.214  1.00  0.00     0.146 A 
HETATM    6  N   UNL     1       9.698  29.933  57.447  1.00  0.00    -0.169 NA
HETATM    7  N   UNL     1       9.524  28.735  56.865  1.00  0.00    -0.277 N 
HETATM    8  H   UNL     1      10.230  28.418  56.209  1.00  0.00     0.189 HD
HETATM    9  C   UNL     1       8.371  28.086  57.227  1.00  0.00     0.063 A 
HETATM   10  C   UNL     1       7.748  28.958  58.100  1.00  0.00     0.071 A 
BRANCH   9  11
HETATM   11  C   UNL     1       7.970  26.776  56.717  1.00  0.00    -0.008 A 
HETATM   12  C   UNL     1       7.305  26.643  55.487  1.00  0.00     0.017 A 
HETATM   13  C   UNL     1       6.930  25.383  55.013  1.00  0.00     0.043 A 
HETATM   14  C   UNL     1       7.220  24.252  55.765  1.00  0.00     0.116 A 
HETATM   15  F   UNL     1       6.859  23.045  55.308  1.00  0.00    -0.206 F 
HETATM   16  C   UNL     1       7.881  24.356  56.981  1.00  0.00     0.043 A 
HETATM   17  C   UNL     1       8.257  25.615  57.454  1.00  0.00     0.017 A 
ENDBRANCH   9  11
ENDBRANCH   2   5
BRANCH   1  18
HETATM   18  C   UNL     1       6.960  32.171  60.887  1.00  0.00     0.165 C 
BRANCH  18  19
HETATM   19  C   UNL     1       7.482  31.821  62.318  1.00  0.00     0.099 C 
HETATM   20  C   UNL     1       9.005  32.022  62.379  1.00  0.00     0.053 C 
BRANCH  19  21
HETATM   21  O   UNL     1       7.191  30.420  62.473  1.00  0.00    -0.384 OA
HETATM   22  H   UNL     1       7.779  30.076  63.169  1.00  0.00     0.211 HD
ENDBRANCH  19  21
BRANCH  19  23
HETATM   23  C   UNL     1       6.805  32.624  63.446  1.00  0.00    -0.001 A 
HETATM   24  C   UNL     1       5.404  32.772  63.560  1.00  0.00     0.043 A 
HETATM   25 CL   UNL     1       4.282  32.081  62.433  1.00  0.00    -0.084 Cl
HETATM   26  C   UNL     1       4.828  33.491  64.619  1.00  0.00     0.024 A 
HETATM   27  C   UNL     1       5.627  34.072  65.597  1.00  0.00     0.002 A 
HETATM   28  C   UNL     1       7.005  33.933  65.521  1.00  0.00     0.001 A 
HETATM   29  C   UNL     1       7.583  33.217  64.465  1.00  0.00     0.012 A 
ENDBRANCH  19  23
ENDBRANCH  18  19
ENDBRANCH   1  18
TORSDOF 6
ENDMDL
MODEL 3
REMARK VINA RESULT:      -9.5      4.252      9.794
REMARK  6 active torsions:
REMARK  status: ('A' for Active; 'I' for Inactive)
REMARK    1  A    between atoms: C_2  and  O_3 
REMARK    2  A    between atoms: C_2  and  C_4 
REMARK    3  A    between atoms: C_2  and  C_11 
REMARK    4  A    between atoms: C_11  and  N_12 
REMARK       I    between atoms: N_12  and  C_13 
REMARK    5  A    between atoms: C_13  and  C_14 
REMARK    6  A    between atoms: C_18  and  C_19 
ROOT
HETATM    1  N   UNL     1       7.193  27.527  55.485  1.00  0.00    -0.352 N 
HETATM    2  C   UNL     1       7.972  28.651  55.632  1.00  0.00     0.272 C 
HETATM    3  O   UNL     1       8.909  28.927  54.887  1.00  0.00    -0.266 OA
HETATM    4  H   UNL     1       6.373  27.468  56.084  1.00  0.00     0.162 HD
ENDROOT
BRANCH   2   5
HETATM    5  C   UNL     1       7.570  29.509  56.756  1.00  0.00     0.146 A 
HETATM    6  N   UNL     1       6.424  30.219  56.752  1.00  0.00    -0.169 NA
HETATM    7  N   UNL     1       6.438  30.863  57.930  1.00  0.00    -0.277 N 
HETATM    8  H   UNL     1       5.669  31.492  58.137  1.00  0.00     0.189 HD
HETATM    9  C   UNL     1       7.531  30.597  58.715  1.00  0.00     0.063 A 
HETATM   10  C   UNL     1       8.289  29.722  57.959  1.00  0.00     0.071 A 
BRANCH   9  11
HETATM   11  C   UNL     1       7.761  31.187  60.032  1.00  0.00    -0.008 A 
HETATM   12  C   UNL     1       6.936  32.209  60.529  1.00  0.00     0.017 A 
HETATM   13  C   UNL     1       7.168  32.761  61.792  1.00  0.00     0.043 A 
HETATM   14  C   UNL     1       8.225  32.294  62.562  1.00  0.00     0.116 A 
HETATM   15  F   UNL     1       8.446  32.825  63.772  1.00  0.00    -0.206 F 
HETATM   16  C   UNL     1       9.052  31.281  62.095  1.00  0.00     0.043 A 
HETATM   17  C   UNL     1       8.818  30.728  60.834  1.00  0.00     0.017 A 
ENDBRANCH   9  11
ENDBRANCH   2   5
BRANCH   1  18
HETATM   18  C   UNL     1       7.312  26.609  54.366  1.00  0.00     0.165 C 
BRANCH  18  19
HETATM   19  C   UNL     1       6.557  25.258  54.583  1.00  0.00     0.099 C 
HETATM   20  C   UNL     1       5.329  25.196  53.660  1.00  0.00     0.053 C 
BRANCH  19  21
HETATM   21  O   UNL     1       6.108  25.313  55.950  1.00  0.00    -0.384 OA
HETATM   22  H   UNL     1       6.005  24.396  56.259  1.00  0.00     0.211 HD
ENDBRANCH  19  21
BRANCH  19  23
HETATM   23  C   UNL     1       7.433  24.008  54.371  1.00  0.00    -0.001 A 
HETATM   24  C   UNL     1       8.425  23.591  55.287  1.00  0.00     0.043 A 
HETATM   25 CL   UNL     1       8.785  24.447  56.751  1.00  0.00    -0.084 Cl
HETATM   26  C   UNL     1       9.183  22.430  55.065  1.00  0.00     0.024 A 
HETATM   27  C   UNL     1       8.969  21.650  53.935  1.00  0.00     0.002 A 
HETATM   28  C   UNL     1       7.993  22.025  53.024  1.00  0.00     0.001 A 
HETATM   29  C   UNL     1       7.235  23.182  53.241  1.00  0.00     0.012 A 
ENDBRANCH  19  23
ENDBRANCH  18  19
ENDBRANCH   1  18
TORSDOF 6
ENDMDL
MODEL 4
REMARK VINA RESULT:      -9.4      4.549     10.242
REMARK  6 active torsions:
REMARK  status: ('A' for Active; 'I' for Inactive)
REMARK    1  A    between atoms: C_2  and  O_3 
REMARK    2  A    between atoms: C_2  and  C_4 
REMARK    3  A    between atoms: C_2  and  C_11 
REMARK    4  A    between atoms: C_11  and  N_12 
REMARK       I    between atoms: N_12  and  C_13 
REMARK    5  A    between atoms: C_13  and  C_14 
REMARK    6  A    between atoms: C_18  and  C_19 
ROOT
HETATM    1  N   UNL     1       7.738  27.984  57.522  1.00  0.00    -0.352 N 
HETATM    2  C   UNL     1       8.526  29.069  57.825  1.00  0.00     0.272 C 
HETATM    3  O   UNL     1       9.677  29.204  57.419  1.00  0.00    -0.266 OA
HETATM    4  H   UNL     1       6.764  28.041  57.813  1.00  0.00     0.162 HD
ENDROOT
BRANCH   2   5
HETATM    5  C   UNL     1       7.858  30.070  58.669  1.00  0.00     0.146 A 
HETATM    6  N   UNL     1       6.737  30.712  58.284  1.00  0.00    -0.169 NA
HETATM    7  N   UNL     1       6.464  31.532  59.312  1.00  0.00    -0.277 N 
HETATM    8  H   UNL     1       5.660  32.145  59.229  1.00  0.00     0.189 HD
HETATM    9  C   UNL     1       7.342  31.447  60.361  1.00  0.00     0.063 A 
HETATM   10  C   UNL     1       8.269  30.505  59.955  1.00  0.00     0.071 A 
BRANCH   9  11
HETATM   11  C   UNL     1       7.247  32.246  61.581  1.00  0.00    -0.008 A 
HETATM   12  C   UNL     1       8.069  31.987  62.690  1.00  0.00     0.017 A 
HETATM   13  C   UNL     1       7.967  32.762  63.848  1.00  0.00     0.043 A 
HETATM   14  C   UNL     1       7.044  33.799  63.902  1.00  0.00     0.116 A 
HETATM   15  F   UNL     1       6.948  34.540  65.014  1.00  0.00    -0.206 F 
HETATM   16  C   UNL     1       6.224  34.078  62.818  1.00  0.00     0.043 A 
HETATM   17  C   UNL     1       6.328  33.305  61.659  1.00  0.00     0.017 A 
ENDBRANCH   9  11
ENDBRANCH   2   5
BRANCH   1  18
HETATM   18  C   UNL     1       8.133  26.940  56.593  1.00  0.00     0.165 C 
BRANCH  18  19
HETATM   19  C   UNL     1       7.567  25.530  56.960  1.00  0.00     0.099 C 
HETATM   20  C   UNL     1       6.040  25.610  57.124  1.00  0.00     0.053 C 
BRANCH  19  21
HETATM   21  O   UNL     1       8.157  25.228  58.238  1.00  0.00    -0.384 OA
HETATM   22  H   UNL     1       7.620  24.526  58.647  1.00  0.00     0.211 HD
ENDBRANCH  19  21
BRANCH  19  23
HETATM   23  C   UNL     1       7.925  24.427  55.944  1.00  0.00    -0.001 A 
HETATM   24  C   UNL     1       7.667  24.534  54.559  1.00  0.00     0.043 A 
HETATM   25 CL   UNL     1       6.901  25.913  53.840  1.00  0.00    -0.084 Cl
HETATM   26  C   UNL     1       8.034  23.515  53.666  1.00  0.00     0.024 A 
HETATM   27  C   UNL     1       8.675  22.369  54.124  1.00  0.00     0.002 A 
HETATM   28  C   UNL     1       8.954  22.240  55.477  1.00  0.00     0.001 A 
HETATM   29  C   UNL     1       8.589  23.254  56.370  1.00  0.00     0.012 A 
ENDBRANCH  19  23
ENDBRANCH  18  19
ENDBRANCH   1  18
TORSDOF 6
ENDMDL
MODEL 5
REMARK VINA RESULT:      -9.0      4.627     10.193
REMARK  6 active torsions:
REMARK  status: ('A' for Active; 'I' for Inactive)
REMARK    1  A    between atoms: C_2  and  O_3 
REMARK    2  A    between atoms: C_2  and  C_4 
REMARK    3  A    between atoms: C_2  and  C_11 
REMARK    4  A    between atoms: C_11  and  N_12 
REMARK       I    between atoms: N_12  and  C_13 
REMARK    5  A    between atoms: C_13  and  C_14 
REMARK    6  A    between atoms: C_18  and  C_19 
ROOT
HETATM    1  N   UNL     1       7.384  28.245  57.380  1.00  0.00    -0.352 N 
HETATM    2  C   UNL     1       7.332  29.618  57.423  1.00  0.00     0.272 C 
HETATM    3  O   UNL     1       7.022  30.315  56.461  1.00  0.00    -0.266 OA
HETATM    4  H   UNL     1       7.531  27.772  58.269  1.00  0.00     0.162 HD
ENDROOT
BRANCH   2   5
HETATM    5  C   UNL     1       7.663  30.182  58.740  1.00  0.00     0.146 A 
HETATM    6  N   UNL     1       8.734  29.779  59.453  1.00  0.00    -0.169 NA
HETATM    7  N   UNL     1       8.672  30.516  60.575  1.00  0.00    -0.277 N 
HETATM    8  H   UNL     1       9.378  30.359  61.285  1.00  0.00     0.189 HD
HETATM    9  C   UNL     1       7.621  31.394  60.625  1.00  0.00     0.063 A 
HETATM   10  C   UNL     1       6.942  31.183  59.440  1.00  0.00     0.071 A 
BRANCH   9  11
HETATM   11  C   UNL     1       7.350  32.291  61.748  1.00  0.00    -0.008 A 
HETATM   12  C   UNL     1       6.402  33.321  61.647  1.00  0.00     0.017 A 
HETATM   13  C   UNL     1       6.153  34.169  62.731  1.00  0.00     0.043 A 
HETATM   14  C   UNL     1       6.851  33.988  63.917  1.00  0.00     0.116 A 
HETATM   15  F   UNL     1       6.611  34.802  64.955  1.00  0.00    -0.206 F 
HETATM   16  C   UNL     1       7.790  32.974  64.044  1.00  0.00     0.043 A 
HETATM   17  C   UNL     1       8.037  32.126  62.962  1.00  0.00     0.017 A 
ENDBRANCH   9  11
ENDBRANCH   2   5
BRANCH   1  18
HETATM   18  C   UNL     1       6.963  27.462  56.231  1.00  0.00     0.165 C 
BRANCH  18  19
HETATM   19  C   UNL     1       7.264  25.935  56.371  1.00  0.00     0.099 C 
HETATM   20  C   UNL     1       6.105  25.242  57.106  1.00  0.00     0.053 C 
BRANCH  19  21
HETATM   21  O   UNL     1       8.441  25.876  57.198  1.00  0.00    -0.384 OA
HETATM   22  H   UNL     1       8.279  26.441  57.974  1.00  0.00     0.211 HD
ENDBRANCH  19  21
BRANCH  19  23
HETATM   23  C   UNL     1       7.531  25.223  55.030  1.00  0.00    -0.001 A 
HETATM   24  C   UNL     1       7.897  23.862  54.934  1.00  0.00     0.043 A 
HETATM   25 CL   UNL     1       8.106  22.835  56.315  1.00  0.00    -0.084 Cl
HETATM   26  C   UNL     1       8.106  23.247  53.689  1.00  0.00     0.024 A 
HETATM   27  C   UNL     1       7.947  23.965  52.509  1.00  0.00     0.002 A 
HETATM   28  C   UNL     1       7.574  25.299  52.570  1.00  0.00     0.001 A 
HETATM   29  C   UNL     1       7.366  25.916  53.809  1.00  0.00     0.012 A 
ENDBRANCH  19  23
ENDBRANCH  18  19
ENDBRANCH   1  18
TORSDOF 6
ENDMDL
MODEL 6
REMARK VINA RESULT:      -8.7      4.575      9.930
REMARK  6 active torsions:
REMARK  status: ('A' for Active; 'I' for Inactive)
REMARK    1  A    between atoms: C_2  and  O_3 
REMARK    2  A    between atoms: C_2  and  C_4 
REMARK    3  A    between atoms: C_2  and  C_11 
REMARK    4  A    between atoms: C_11  and  N_12 
REMARK       I    between atoms: N_12  and  C_13 
REMARK    5  A    between atoms: C_13  and  C_14 
REMARK    6  A    between atoms: C_18  and  C_19 
ROOT
HETATM    1  N   UNL     1       6.710  28.802  56.480  1.00  0.00    -0.352 N 
HETATM    2  C   UNL     1       6.432  30.092  56.865  1.00  0.00     0.272 C 
HETATM    3  O   UNL     1       5.807  30.888  56.169  1.00  0.00    -0.266 OA
HETATM    4  H   UNL     1       7.125  28.201  57.189  1.00  0.00     0.162 HD
ENDROOT
BRANCH   2   5
HETATM    5  C   UNL     1       6.937  30.433  58.203  1.00  0.00     0.146 A 
HETATM    6  N   UNL     1       7.958  29.772  58.783  1.00  0.00    -0.169 NA
HETATM    7  N   UNL     1       8.096  30.371  59.977  1.00  0.00    -0.277 N 
HETATM    8  H   UNL     1       8.804  30.013  60.610  1.00  0.00     0.189 HD
HETATM    9  C   UNL     1       7.225  31.406  60.202  1.00  0.00     0.063 A 
HETATM   10  C   UNL     1       6.450  31.455  59.058  1.00  0.00     0.071 A 
BRANCH   9  11
HETATM   11  C   UNL     1       7.188  32.198  61.430  1.00  0.00    -0.008 A 
HETATM   12  C   UNL     1       8.028  31.902  62.515  1.00  0.00     0.017 A 
HETATM   13  C   UNL     1       7.982  32.671  63.682  1.00  0.00     0.043 A 
HETATM   14  C   UNL     1       7.097  33.738  63.767  1.00  0.00     0.116 A 
HETATM   15  F   UNL     1       7.054  34.473  64.886  1.00  0.00    -0.206 F 
HETATM   16  C   UNL     1       6.260  34.053  62.706  1.00  0.00     0.043 A 
HETATM   17  C   UNL     1       6.308  33.287  61.539  1.00  0.00     0.017 A 
ENDBRANCH   9  11
ENDBRANCH   2   5
BRANCH   1  18
HETATM   18  C   UNL     1       6.192  28.199  55.264  1.00  0.00     0.165 C 
BRANCH  18  19
HETATM   19  C   UNL     1       7.284  27.963  54.171  1.00  0.00     0.099 C 
HETATM   20  C   UNL     1       8.633  28.521  54.655  1.00  0.00     0.053 C 
BRANCH  19  21
HETATM   21  O   UNL     1       6.837  28.739  53.044  1.00  0.00    -0.384 OA
HETATM   22  H   UNL     1       5.864  28.709  53.038  1.00  0.00     0.211 HD
ENDBRANCH  19  21
BRANCH  19  23
HETATM   23  C   UNL     1       7.448  26.487  53.757  1.00  0.00    -0.001 A 
HETATM   24  C   UNL     1       7.677  25.443  54.681  1.00  0.00     0.043 A 
HETATM   25 CL   UNL     1       7.818  25.702  56.390  1.00  0.00    -0.084 Cl
HETATM   26  C   UNL     1       7.795  24.108  54.262  1.00  0.00     0.024 A 
HETATM   27  C   UNL     1       7.678  23.776  52.918  1.00  0.00     0.002 A 
HETATM   28  C   UNL     1       7.440  24.776  51.987  1.00  0.00     0.001 A 
HETATM   29  C   UNL     1       7.322  26.108  52.401  1.00  0.00     0.012 A 
ENDBRANCH  19  23
ENDBRANCH  18  19
ENDBRANCH   1  18
TORSDOF 6
ENDMDL
MODEL 7
REMARK VINA RESULT:      -8.4      4.520      9.956
REMARK  6 active torsions:
REMARK  status: ('A' for Active; 'I' for Inactive)
REMARK    1  A    between atoms: C_2  and  O_3 
REMARK    2  A    between atoms: C_2  and  C_4 
REMARK    3  A    between atoms: C_2  and  C_11 
REMARK    4  A    between atoms: C_11  and  N_12 
REMARK       I    between atoms: N_12  and  C_13 
REMARK    5  A    between atoms: C_13  and  C_14 
REMARK    6  A    between atoms: C_18  and  C_19 
ROOT
HETATM    1  N   UNL     1       7.582  26.701  56.039  1.00  0.00    -0.352 N 
HETATM    2  C   UNL     1       7.701  26.968  57.383  1.00  0.00     0.272 C 
HETATM    3  O   UNL     1       8.095  26.145  58.205  1.00  0.00    -0.266 OA
HETATM    4  H   UNL     1       7.365  27.494  55.441  1.00  0.00     0.162 HD
ENDROOT
BRANCH   2   5
HETATM    5  C   UNL     1       7.331  28.343  57.749  1.00  0.00     0.146 A 
HETATM    6  N   UNL     1       8.056  29.084  58.610  1.00  0.00    -0.169 NA
HETATM    7  N   UNL     1       7.386  30.247  58.680  1.00  0.00    -0.277 N 
HETATM    8  H   UNL     1       7.742  30.963  59.304  1.00  0.00     0.189 HD
HETATM    9  C   UNL     1       6.265  30.309  57.894  1.00  0.00     0.063 A 
HETATM   10  C   UNL     1       6.204  29.069  57.285  1.00  0.00     0.071 A 
BRANCH   9  11
HETATM   11  C   UNL     1       5.380  31.470  57.814  1.00  0.00    -0.008 A 
HETATM   12  C   UNL     1       5.543  32.573  58.668  1.00  0.00     0.017 A 
HETATM   13  C   UNL     1       4.689  33.676  58.577  1.00  0.00     0.043 A 
HETATM   14  C   UNL     1       3.672  33.680  57.632  1.00  0.00     0.116 A 
HETATM   15  F   UNL     1       2.854  34.739  57.547  1.00  0.00    -0.206 F 
HETATM   16  C   UNL     1       3.492  32.605  56.774  1.00  0.00     0.043 A 
HETATM   17  C   UNL     1       4.347  31.504  56.863  1.00  0.00     0.017 A 
ENDBRANCH   9  11
ENDBRANCH   2   5
BRANCH   1  18
HETATM   18  C   UNL     1       8.023  25.460  55.427  1.00  0.00     0.165 C 
BRANCH  18  19
HETATM   19  C   UNL     1       6.894  24.385  55.312  1.00  0.00     0.099 C 
HETATM   20  C   UNL     1       5.731  24.940  54.474  1.00  0.00     0.053 C 
BRANCH  19  21
HETATM   21  O   UNL     1       6.442  24.193  56.665  1.00  0.00    -0.384 OA
HETATM   22  H   UNL     1       6.645  23.274  56.912  1.00  0.00     0.211 HD
ENDBRANCH  19  21
BRANCH  19  23
HETATM   23  C   UNL     1       7.365  23.040  54.723  1.00  0.00    -0.001 A 
HETATM   24  C   UNL     1       7.786  22.885  53.383  1.00  0.00     0.043 A 
HETATM   25 CL   UNL     1       7.804  24.186  52.237  1.00  0.00    -0.084 Cl
HETATM   26  C   UNL     1       8.232  21.647  52.895  1.00  0.00     0.024 A 
HETATM   27  C   UNL     1       8.283  20.535  53.728  1.00  0.00     0.002 A 
HETATM   28  C   UNL     1       7.890  20.658  55.053  1.00  0.00     0.001 A 
HETATM   29  C   UNL     1       7.444  21.891  55.542  1.00  0.00     0.012 A 
ENDBRANCH  19  23
ENDBRANCH  18  19
ENDBRANCH   1  18
TORSDOF 6
ENDMDL
MODEL 8
REMARK VINA RESULT:      -8.4      2.056      2.907
REMARK  6 active torsions:
REMARK  status: ('A' for Active; 'I' for Inactive)
REMARK    1  A    between atoms: C_2  and  O_3 
REMARK    2  A    between atoms: C_2  and  C_4 
REMARK    3  A    between atoms: C_2  and  C_11 
REMARK    4  A    between atoms: C_11  and  N_12 
REMARK       I    between atoms: N_12  and  C_13 
REMARK    5  A    between atoms: C_13  and  C_14 
REMARK    6  A    between atoms: C_18  and  C_19 
ROOT
HETATM    1  N   UNL     1       5.707  28.298  56.905  1.00  0.00    -0.352 N 
HETATM    2  C   UNL     1       6.645  27.335  57.197  1.00  0.00     0.272 C 
HETATM    3  O   UNL     1       7.412  27.403  58.153  1.00  0.00    -0.266 OA
HETATM    4  H   UNL     1       5.048  28.073  56.164  1.00  0.00     0.162 HD
ENDROOT
BRANCH   2   5
HETATM    5  C   UNL     1       6.634  26.196  56.266  1.00  0.00     0.146 A 
HETATM    6  N   UNL     1       5.720  26.072  55.283  1.00  0.00    -0.169 NA
HETATM    7  N   UNL     1       6.046  24.916  54.682  1.00  0.00    -0.277 N 
HETATM    8  H   UNL     1       5.465  24.600  53.913  1.00  0.00     0.189 HD
HETATM    9  C   UNL     1       7.140  24.283  55.213  1.00  0.00     0.063 A 
HETATM   10  C   UNL     1       7.532  25.099  56.258  1.00  0.00     0.071 A 
BRANCH   9  11
HETATM   11  C   UNL     1       7.673  23.012  54.726  1.00  0.00    -0.008 A 
HETATM   12  C   UNL     1       7.618  22.672  53.365  1.00  0.00     0.017 A 
HETATM   13  C   UNL     1       8.135  21.453  52.915  1.00  0.00     0.043 A 
HETATM   14  C   UNL     1       8.707  20.573  53.823  1.00  0.00     0.116 A 
HETATM   15  F   UNL     1       9.202  19.405  53.389  1.00  0.00    -0.206 F 
HETATM   16  C   UNL     1       8.778  20.888  55.173  1.00  0.00     0.043 A 
HETATM   17  C   UNL     1       8.264  22.107  55.622  1.00  0.00     0.017 A 
ENDBRANCH   9  11
ENDBRANCH   2   5
BRANCH   1  18
HETATM   18  C   UNL     1       5.438  29.439  57.761  1.00  0.00     0.165 C 
BRANCH  18  19
HETATM   19  C   UNL     1       6.221  30.728  57.348  1.00  0.00     0.099 C 
HETATM   20  C   UNL     1       5.240  31.899  57.176  1.00  0.00     0.053 C 
BRANCH  19  21
HETATM   21  O   UNL     1       6.791  30.406  56.066  1.00  0.00    -0.384 OA
HETATM   22  H   UNL     1       7.268  31.195  55.754  1.00  0.00     0.211 HD
ENDBRANCH  19  21
BRANCH  19  23
HETATM   23  C   UNL     1       7.339  31.125  58.332  1.00  0.00    -0.001 A 
HETATM   24  C   UNL     1       8.689  30.738  58.170  1.00  0.00     0.043 A 
HETATM   25 CL   UNL     1       9.243  29.757  56.853  1.00  0.00    -0.084 Cl
HETATM   26  C   UNL     1       9.680  31.145  59.078  1.00  0.00     0.024 A 
HETATM   27  C   UNL     1       9.358  31.953  60.163  1.00  0.00     0.002 A 
HETATM   28  C   UNL     1       8.044  32.360  60.341  1.00  0.00     0.001 A 
HETATM   29  C   UNL     1       7.053  31.956  59.439  1.00  0.00     0.012 A 
ENDBRANCH  19  23
ENDBRANCH  18  19
ENDBRANCH   1  18
TORSDOF 6
ENDMDL
MODEL 9
REMARK VINA RESULT:      -8.4      4.523     10.225
REMARK  6 active torsions:
REMARK  status: ('A' for Active; 'I' for Inactive)
REMARK    1  A    between atoms: C_2  and  O_3 
REMARK    2  A    between atoms: C_2  and  C_4 
REMARK    3  A    between atoms: C_2  and  C_11 
REMARK    4  A    between atoms: C_11  and  N_12 
REMARK       I    between atoms: N_12  and  C_13 
REMARK    5  A    between atoms: C_13  and  C_14 
REMARK    6  A    between atoms: C_18  and  C_19 
ROOT
HETATM    1  N   UNL     1       7.295  27.126  55.539  1.00  0.00    -0.352 N 
HETATM    2  C   UNL     1       7.886  27.492  56.725  1.00  0.00     0.272 C 
HETATM    3  O   UNL     1       8.719  26.803  57.308  1.00  0.00    -0.266 OA
HETATM    4  H   UNL     1       6.715  27.830  55.089  1.00  0.00     0.162 HD
ENDROOT
BRANCH   2   5
HETATM    5  C   UNL     1       7.444  28.801  57.228  1.00  0.00     0.146 A 
HETATM    6  N   UNL     1       6.785  29.689  56.457  1.00  0.00    -0.169 NA
HETATM    7  N   UNL     1       6.579  30.736  57.273  1.00  0.00    -0.277 N 
HETATM    8  H   UNL     1       6.113  31.552  56.891  1.00  0.00     0.189 HD
HETATM    9  C   UNL     1       7.057  30.571  58.548  1.00  0.00     0.063 A 
HETATM   10  C   UNL     1       7.637  29.316  58.535  1.00  0.00     0.071 A 
BRANCH   9  11
HETATM   11  C   UNL     1       6.952  31.577  59.603  1.00  0.00    -0.008 A 
HETATM   12  C   UNL     1       5.793  32.356  59.756  1.00  0.00     0.017 A 
HETATM   13  C   UNL     1       5.708  33.313  60.772  1.00  0.00     0.043 A 
HETATM   14  C   UNL     1       6.778  33.492  61.638  1.00  0.00     0.116 A 
HETATM   15  F   UNL     1       6.694  34.409  62.611  1.00  0.00    -0.206 F 
HETATM   16  C   UNL     1       7.932  32.731  61.511  1.00  0.00     0.043 A 
HETATM   17  C   UNL     1       8.017  31.774  60.497  1.00  0.00     0.017 A 
ENDBRANCH   9  11
ENDBRANCH   2   5
BRANCH   1  18
HETATM   18  C   UNL     1       7.677  25.945  54.783  1.00  0.00     0.165 C 
BRANCH  18  19
HETATM   19  C   UNL     1       6.698  24.741  54.969  1.00  0.00     0.099 C 
HETATM   20  C   UNL     1       5.383  25.021  54.222  1.00  0.00     0.053 C 
BRANCH  19  21
HETATM   21  O   UNL     1       6.432  24.710  56.383  1.00  0.00    -0.384 OA
HETATM   22  H   UNL     1       7.276  24.868  56.841  1.00  0.00     0.211 HD
ENDBRANCH  19  21
BRANCH  19  23
HETATM   23  C   UNL     1       7.277  23.387  54.515  1.00  0.00    -0.001 A 
HETATM   24  C   UNL     1       7.753  23.145  53.207  1.00  0.00     0.043 A 
HETATM   25 CL   UNL     1       7.727  24.341  51.952  1.00  0.00    -0.084 Cl
HETATM   26  C   UNL     1       8.297  21.903  52.845  1.00  0.00     0.024 A 
HETATM   27  C   UNL     1       8.391  20.873  53.774  1.00  0.00     0.002 A 
HETATM   28  C   UNL     1       7.945  21.083  55.070  1.00  0.00     0.001 A 
HETATM   29  C   UNL     1       7.401  22.321  55.435  1.00  0.00     0.012 A 
ENDBRANCH  19  23
ENDBRANCH  18  19
ENDBRANCH   1  18
TORSDOF 6
ENDMDL
MODEL 10
REMARK VINA RESULT:      -8.2      4.728     10.149
REMARK  6 active torsions:
REMARK  status: ('A' for Active; 'I' for Inactive)
REMARK    1  A    between atoms: C_2  and  O_3 
REMARK    2  A    between atoms: C_2  and  C_4 
REMARK    3  A    between atoms: C_2  and  C_11 
REMARK    4  A    between atoms: C_11  and  N_12 
REMARK       I    between atoms: N_12  and  C_13 
REMARK    5  A    between atoms: C_13  and  C_14 
REMARK    6  A    between atoms: C_18  and  C_19 
ROOT
HETATM    1  N   UNL     1       5.313  26.262  55.768  1.00  0.00    -0.352 N 
HETATM    2  C   UNL     1       5.396  27.513  55.203  1.00  0.00     0.272 C 
HETATM    3  O   UNL     1       5.871  27.724  54.090  1.00  0.00    -0.266 OA
HETATM    4  H   UNL     1       4.790  26.196  56.638  1.00  0.00     0.162 HD
ENDROOT
BRANCH   2   5
HETATM    5  C   UNL     1       4.845  28.582  56.048  1.00  0.00     0.146 A 
HETATM    6  N   UNL     1       3.545  28.937  56.012  1.00  0.00    -0.169 NA
HETATM    7  N   UNL     1       3.457  29.937  56.905  1.00  0.00    -0.277 N 
HETATM    8  H   UNL     1       2.556  30.386  57.028  1.00  0.00     0.189 HD
HETATM    9  C   UNL     1       4.634  30.244  57.538  1.00  0.00     0.063 A 
HETATM   10  C   UNL     1       5.557  29.377  56.982  1.00  0.00     0.071 A 
BRANCH   9  11
HETATM   11  C   UNL     1       4.778  31.297  58.541  1.00  0.00    -0.008 A 
HETATM   12  C   UNL     1       3.656  31.907  59.126  1.00  0.00     0.017 A 
HETATM   13  C   UNL     1       3.812  32.912  60.086  1.00  0.00     0.043 A 
HETATM   14  C   UNL     1       5.087  33.308  60.465  1.00  0.00     0.116 A 
HETATM   15  F   UNL     1       5.234  34.270  61.385  1.00  0.00    -0.206 F 
HETATM   16  C   UNL     1       6.212  32.717  59.905  1.00  0.00     0.043 A 
HETATM   17  C   UNL     1       6.057  31.712  58.948  1.00  0.00     0.017 A 
ENDBRANCH   9  11
ENDBRANCH   2   5
BRANCH   1  18
HETATM   18  C   UNL     1       5.664  25.040  55.065  1.00  0.00     0.165 C 
BRANCH  18  19
HETATM   19  C   UNL     1       7.109  24.533  55.378  1.00  0.00     0.099 C 
HETATM   20  C   UNL     1       7.326  24.488  56.899  1.00  0.00     0.053 C 
BRANCH  19  21
HETATM   21  O   UNL     1       7.972  25.538  54.814  1.00  0.00    -0.384 OA
HETATM   22  H   UNL     1       7.403  26.254  54.478  1.00  0.00     0.211 HD
ENDBRANCH  19  21
BRANCH  19  23
HETATM   23  C   UNL     1       7.437  23.158  54.764  1.00  0.00    -0.001 A 
HETATM   24  C   UNL     1       7.716  22.967  53.391  1.00  0.00     0.043 A 
HETATM   25 CL   UNL     1       7.704  24.256  52.232  1.00  0.00    -0.084 Cl
HETATM   26  C   UNL     1       8.036  21.700  52.879  1.00  0.00     0.024 A 
HETATM   27  C   UNL     1       8.097  20.592  53.718  1.00  0.00     0.002 A 
HETATM   28  C   UNL     1       7.843  20.750  55.072  1.00  0.00     0.001 A 
HETATM   29  C   UNL     1       7.523  22.011  55.586  1.00  0.00     0.012 A 
ENDBRANCH  19  23
ENDBRANCH  18  19
ENDBRANCH   1  18
TORSDOF 6
ENDMDL
