MODEL 1
REMARK VINA RESULT:      -9.9      0.000      0.000
REMARK  6 active torsions:
REMARK  status: ('A' for Active; 'I' for Inactive)
REMARK    1  A    between atoms: C_2  and  S_3 
REMARK    2  A    between atoms: S_3  and  C_4 
REMARK    3  A    between atoms: C_5  and  C_6 
REMARK       I    between atoms: C_6  and  N_7 
REMARK    4  A    between atoms: N_7  and  C_8 
REMARK    5  A    between atoms: N_9  and  C_10 
REMARK    6  A    between atoms: C_22  and  C_23 
ROOT
HETATM    1  C   UNL     1       7.346  27.604  54.923  1.00  0.00     0.152 A 
HETATM    2  N   UNL     1       7.821  26.609  55.767  1.00  0.00    -0.044 N 
HETATM    3  N   UNL     1       8.323  27.110  56.938  1.00  0.00    -0.148 NA
HETATM    4  C   UNL     1       8.175  28.435  56.810  1.00  0.00     0.115 A 
HETATM    5  C   UNL     1       7.546  28.787  55.598  1.00  0.00     0.087 A 
ENDROOT
BRANCH   1   6
HETATM    6  N   UNL     1       6.841  27.335  53.658  1.00  0.00    -0.307 N 
HETATM    7  C   UNL     1       5.489  27.324  53.378  1.00  0.00     0.258 C 
HETATM    8  O   UNL     1       4.569  27.402  54.185  1.00  0.00    -0.267 OA
HETATM    9  H   UNL     1       7.513  27.223  52.895  1.00  0.00     0.170 HD
BRANCH   7  10
HETATM   10  C   UNL     1       5.157  27.332  51.935  1.00  0.00     0.049 A 
HETATM   11  C   UNL     1       4.866  28.492  51.202  1.00  0.00     0.016 A 
HETATM   12  C   UNL     1       4.516  28.361  49.849  1.00  0.00     0.019 A 
HETATM   13  C   UNL     1       4.481  27.106  49.235  1.00  0.00     0.001 A 
HETATM   14  C   UNL     1       4.799  25.963  49.962  1.00  0.00     0.001 A 
HETATM   15  C   UNL     1       5.139  26.075  51.308  1.00  0.00     0.018 A 
BRANCH  11  16
HETATM   16  S   UNL     1       4.963  30.151  51.859  1.00  0.00    -0.129 SA
BRANCH  16  17
HETATM   17  C   UNL     1       3.283  30.257  52.565  1.00  0.00     0.075 C 
HETATM   18  C   UNL     1       3.352  30.697  54.016  1.00  0.00     0.016 C 
ENDBRANCH  16  17
ENDBRANCH  11  16
ENDBRANCH   7  10
ENDBRANCH   1   6
BRANCH   2  19
HETATM   19  C   UNL     1       7.885  25.221  55.532  1.00  0.00     0.732 A 
HETATM   20  N   UNL     1       7.783  24.687  54.356  1.00  0.00    -0.067 NA
HETATM   21  C   UNL     1       7.882  23.313  54.304  1.00  0.00     0.065 A 
HETATM   22  C   UNL     1       8.076  22.524  55.379  1.00  0.00     0.036 A 
HETATM   23  C   UNL     1       7.779  22.719  52.917  1.00  0.00     0.060 C 
HETATM   24  C   UNL     1       8.177  21.027  55.333  1.00  0.00     0.046 C 
HETATM   25  C   UNL     1       8.196  23.173  56.708  1.00  0.00     0.268 A 
HETATM   26  C   UNL     1       7.744  20.441  53.988  1.00  0.00     0.005 C 
HETATM   27  C   UNL     1       8.278  21.275  52.829  1.00  0.00     0.006 C 
HETATM   28  O   UNL     1       8.393  22.538  57.735  1.00  0.00    -0.267 OA
HETATM   29  N   UNL     1       8.077  24.527  56.694  1.00  0.00    -0.152 N 
HETATM   30  H   UNL     1       8.158  25.037  57.568  1.00  0.00     0.188 HD
ENDBRANCH   2  19
BRANCH   4  31
HETATM   31  C   UNL     1       8.660  29.406  57.833  1.00  0.00     0.105 A 
HETATM   32  O   UNL     1       8.162  29.504  59.104  1.00  0.00    -0.320 OA
HETATM   33  C   UNL     1       8.825  30.514  59.722  1.00  0.00     0.142 A 
HETATM   34  C   UNL     1       9.750  31.073  58.873  1.00  0.00     0.027 A 
HETATM   35  C   UNL     1       9.647  30.357  57.655  1.00  0.00     0.041 A 
ENDBRANCH   4  31
TORSDOF 6
ENDMDL
MODEL 2
REMARK VINA RESULT:      -9.8      1.669      3.257
REMARK  6 active torsions:
REMARK  status: ('A' for Active; 'I' for Inactive)
REMARK    1  A    between atoms: C_2  and  S_3 
REMARK    2  A    between atoms: S_3  and  C_4 
REMARK    3  A    between atoms: C_5  and  C_6 
REMARK       I    between atoms: C_6  and  N_7 
REMARK    4  A    between atoms: N_7  and  C_8 
REMARK    5  A    between atoms: N_9  and  C_10 
REMARK    6  A    between atoms: C_22  and  C_23 
ROOT
HETATM    1  C   UNL     1       6.819  29.696  56.603  1.00  0.00     0.152 A 
HETATM    2  N   UNL     1       7.488  28.527  56.936  1.00  0.00    -0.044 N 
HETATM    3  N   UNL     1       8.200  28.643  58.099  1.00  0.00    -0.148 NA
HETATM    4  C   UNL     1       7.986  29.908  58.481  1.00  0.00     0.115 A 
HETATM    5  C   UNL     1       7.113  30.589  57.609  1.00  0.00     0.087 A 
ENDROOT
BRANCH   1   6
HETATM    6  N   UNL     1       6.076  29.829  55.438  1.00  0.00    -0.307 N 
HETATM    7  C   UNL     1       4.723  29.559  55.378  1.00  0.00     0.258 C 
HETATM    8  O   UNL     1       4.033  29.050  56.254  1.00  0.00    -0.267 OA
HETATM    9  H   UNL     1       6.547  30.222  54.619  1.00  0.00     0.170 HD
BRANCH   7  10
HETATM   10  C   UNL     1       4.049  30.052  54.155  1.00  0.00     0.049 A 
HETATM   11  C   UNL     1       3.880  29.291  52.989  1.00  0.00     0.016 A 
HETATM   12  C   UNL     1       3.268  29.891  51.878  1.00  0.00     0.019 A 
HETATM   13  C   UNL     1       2.812  31.212  51.935  1.00  0.00     0.001 A 
HETATM   14  C   UNL     1       2.958  31.950  53.105  1.00  0.00     0.001 A 
HETATM   15  C   UNL     1       3.573  31.372  54.214  1.00  0.00     0.018 A 
BRANCH  11  16
HETATM   16  S   UNL     1       4.344  27.572  52.831  1.00  0.00    -0.129 SA
BRANCH  16  17
HETATM   17  C   UNL     1       4.753  27.569  51.053  1.00  0.00     0.075 C 
HETATM   18  C   UNL     1       4.889  26.143  50.549  1.00  0.00     0.016 C 
ENDBRANCH  16  17
ENDBRANCH  11  16
ENDBRANCH   7  10
ENDBRANCH   1   6
BRANCH   2  19
HETATM   19  C   UNL     1       7.548  27.318  56.214  1.00  0.00     0.732 A 
HETATM   20  N   UNL     1       7.524  27.254  54.920  1.00  0.00    -0.067 NA
HETATM   21  C   UNL     1       7.606  25.991  54.375  1.00  0.00     0.065 A 
HETATM   22  C   UNL     1       7.708  24.857  55.096  1.00  0.00     0.036 A 
HETATM   23  C   UNL     1       7.596  25.947  52.863  1.00  0.00     0.060 C 
HETATM   24  C   UNL     1       7.790  23.477  54.511  1.00  0.00     0.046 C 
HETATM   25  C   UNL     1       7.740  24.972  56.575  1.00  0.00     0.268 A 
HETATM   26  C   UNL     1       7.448  23.440  53.020  1.00  0.00     0.005 C 
HETATM   27  C   UNL     1       8.077  24.616  52.284  1.00  0.00     0.006 C 
HETATM   28  O   UNL     1       7.852  23.998  57.308  1.00  0.00    -0.267 OA
HETATM   29  N   UNL     1       7.643  26.241  57.050  1.00  0.00    -0.152 N 
HETATM   30  H   UNL     1       7.667  26.394  58.053  1.00  0.00     0.188 HD
ENDBRANCH   2  19
BRANCH   4  31
HETATM   31  C   UNL     1       8.638  30.514  59.680  1.00  0.00     0.105 A 
HETATM   32  O   UNL     1       8.780  29.881  60.885  1.00  0.00    -0.320 OA
HETATM   33  C   UNL     1       9.387  30.752  61.731  1.00  0.00     0.142 A 
HETATM   34  C   UNL     1       9.643  31.942  61.093  1.00  0.00     0.027 A 
HETATM   35  C   UNL     1       9.164  31.788  59.769  1.00  0.00     0.041 A 
ENDBRANCH   4  31
TORSDOF 6
ENDMDL
MODEL 3
REMARK VINA RESULT:      -9.6      1.820      2.559
REMARK  6 active torsions:
REMARK  status: ('A' for Active; 'I' for Inactive)
REMARK    1  A    between atoms: C_2  and  S_3 
REMARK    2  A    between atoms: S_3  and  C_4 
REMARK    3  A    between atoms: C_5  and  C_6 
REMARK       I    between atoms: C_6  and  N_7 
REMARK    4  A    between atoms: N_7  and  C_8 
REMARK    5  A    between atoms: N_9  and  C_10 
REMARK    6  A    between atoms: C_22  and  C_23 
ROOT
HETATM    1  C   UNL     1       6.836  29.344  56.418  1.00  0.00     0.152 A 
HETATM    2  N   UNL     1       7.522  28.236  56.894  1.00  0.00    -0.044 N 
HETATM    3  N   UNL     1       8.172  28.488  58.073  1.00  0.00    -0.148 NA
HETATM    4  C   UNL     1       7.902  29.776  58.319  1.00  0.00     0.115 A 
HETATM    5  C   UNL     1       7.054  30.339  57.345  1.00  0.00     0.087 A 
ENDROOT
BRANCH   1   6
HETATM    6  N   UNL     1       6.149  29.339  55.211  1.00  0.00    -0.307 N 
HETATM    7  C   UNL     1       4.785  29.146  55.129  1.00  0.00     0.258 C 
HETATM    8  O   UNL     1       4.028  28.823  56.038  1.00  0.00    -0.267 OA
HETATM    9  H   UNL     1       6.676  29.570  54.366  1.00  0.00     0.170 HD
BRANCH   7  10
HETATM   10  C   UNL     1       4.192  29.483  53.814  1.00  0.00     0.049 A 
HETATM   11  C   UNL     1       3.713  30.755  53.470  1.00  0.00     0.016 A 
HETATM   12  C   UNL     1       3.127  30.934  52.207  1.00  0.00     0.019 A 
HETATM   13  C   UNL     1       3.043  29.875  51.298  1.00  0.00     0.001 A 
HETATM   14  C   UNL     1       3.546  28.623  51.637  1.00  0.00     0.001 A 
HETATM   15  C   UNL     1       4.122  28.427  52.890  1.00  0.00     0.018 A 
BRANCH  11  16
HETATM   16  S   UNL     1       3.847  32.199  54.516  1.00  0.00    -0.129 SA
BRANCH  16  17
HETATM   17  C   UNL     1       2.272  32.019  55.421  1.00  0.00     0.075 C 
HETATM   18  C   UNL     1       1.239  32.986  54.871  1.00  0.00     0.016 C 
ENDBRANCH  16  17
ENDBRANCH  11  16
ENDBRANCH   7  10
ENDBRANCH   1   6
BRANCH   2  19
HETATM   19  C   UNL     1       7.653  26.966  56.297  1.00  0.00     0.732 A 
HETATM   20  N   UNL     1       7.392  26.730  55.051  1.00  0.00    -0.067 NA
HETATM   21  C   UNL     1       7.588  25.433  54.626  1.00  0.00     0.065 A 
HETATM   22  C   UNL     1       8.026  24.433  55.415  1.00  0.00     0.036 A 
HETATM   23  C   UNL     1       7.293  25.190  53.162  1.00  0.00     0.060 C 
HETATM   24  C   UNL     1       8.236  23.017  54.963  1.00  0.00     0.046 C 
HETATM   25  C   UNL     1       8.323  24.745  56.835  1.00  0.00     0.268 A 
HETATM   26  C   UNL     1       7.624  22.732  53.591  1.00  0.00     0.005 C 
HETATM   27  C   UNL     1       7.881  23.883  52.626  1.00  0.00     0.006 C 
HETATM   28  O   UNL     1       8.745  23.905  57.619  1.00  0.00    -0.267 OA
HETATM   29  N   UNL     1       8.098  26.036  57.194  1.00  0.00    -0.152 N 
HETATM   30  H   UNL     1       8.288  26.321  58.150  1.00  0.00     0.188 HD
ENDBRANCH   2  19
BRANCH   4  31
HETATM   31  C   UNL     1       8.475  30.515  59.482  1.00  0.00     0.105 A 
HETATM   32  O   UNL     1       8.842  29.932  60.664  1.00  0.00    -0.320 OA
HETATM   33  C   UNL     1       9.285  30.920  61.483  1.00  0.00     0.142 A 
HETATM   34  C   UNL     1       9.214  32.138  60.849  1.00  0.00     0.027 A 
HETATM   35  C   UNL     1       8.695  31.877  59.557  1.00  0.00     0.041 A 
ENDBRANCH   4  31
TORSDOF 6
ENDMDL
MODEL 4
REMARK VINA RESULT:      -9.5      2.485      7.561
REMARK  6 active torsions:
REMARK  status: ('A' for Active; 'I' for Inactive)
REMARK    1  A    between atoms: C_2  and  S_3 
REMARK    2  A    between atoms: S_3  and  C_4 
REMARK    3  A    between atoms: C_5  and  C_6 
REMARK       I    between atoms: C_6  and  N_7 
REMARK    4  A    between atoms: N_7  and  C_8 
REMARK    5  A    between atoms: N_9  and  C_10 
REMARK    6  A    between atoms: C_22  and  C_23 
ROOT
HETATM    1  C   UNL     1       6.287  26.851  52.284  1.00  0.00     0.152 A 
HETATM    2  N   UNL     1       5.997  28.102  52.810  1.00  0.00    -0.044 N 
HETATM    3  N   UNL     1       5.338  28.906  51.919  1.00  0.00    -0.148 NA
HETATM    4  C   UNL     1       5.237  28.150  50.819  1.00  0.00     0.115 A 
HETATM    5  C   UNL     1       5.777  26.862  51.005  1.00  0.00     0.087 A 
ENDROOT
BRANCH   1   6
HETATM    6  N   UNL     1       6.999  25.888  52.988  1.00  0.00    -0.307 N 
HETATM    7  C   UNL     1       6.403  24.772  53.538  1.00  0.00     0.258 C 
HETATM    8  O   UNL     1       5.201  24.539  53.616  1.00  0.00    -0.267 OA
HETATM    9  H   UNL     1       8.017  25.983  53.020  1.00  0.00     0.170 HD
BRANCH   7  10
HETATM   10  C   UNL     1       7.349  23.717  53.969  1.00  0.00     0.049 A 
HETATM   11  C   UNL     1       8.105  23.773  55.149  1.00  0.00     0.016 A 
HETATM   12  C   UNL     1       9.005  22.731  55.420  1.00  0.00     0.019 A 
HETATM   13  C   UNL     1       9.131  21.645  54.548  1.00  0.00     0.001 A 
HETATM   14  C   UNL     1       8.356  21.584  53.394  1.00  0.00     0.001 A 
HETATM   15  C   UNL     1       7.465  22.615  53.106  1.00  0.00     0.018 A 
BRANCH  11  16
HETATM   16  S   UNL     1       7.964  25.064  56.377  1.00  0.00    -0.129 SA
BRANCH  16  17
HETATM   17  C   UNL     1       6.241  24.755  56.892  1.00  0.00     0.075 C 
HETATM   18  C   UNL     1       5.442  26.045  56.851  1.00  0.00     0.016 C 
ENDBRANCH  16  17
ENDBRANCH  11  16
ENDBRANCH   7  10
ENDBRANCH   1   6
BRANCH   2  19
HETATM   19  C   UNL     1       6.338  28.618  54.077  1.00  0.00     0.732 A 
HETATM   20  N   UNL     1       7.470  28.387  54.663  1.00  0.00    -0.067 NA
HETATM   21  C   UNL     1       7.646  28.982  55.895  1.00  0.00     0.065 A 
HETATM   22  C   UNL     1       6.731  29.767  56.496  1.00  0.00     0.036 A 
HETATM   23  C   UNL     1       8.983  28.712  56.548  1.00  0.00     0.060 C 
HETATM   24  C   UNL     1       6.911  30.413  57.840  1.00  0.00     0.046 C 
HETATM   25  C   UNL     1       5.451  30.015  55.789  1.00  0.00     0.268 A 
HETATM   26  C   UNL     1       8.112  29.862  58.610  1.00  0.00     0.005 C 
HETATM   27  C   UNL     1       9.313  29.673  57.692  1.00  0.00     0.006 C 
HETATM   28  O   UNL     1       4.572  30.731  56.251  1.00  0.00    -0.267 OA
HETATM   29  N   UNL     1       5.334  29.391  54.588  1.00  0.00    -0.152 N 
HETATM   30  H   UNL     1       4.486  29.524  54.045  1.00  0.00     0.188 HD
ENDBRANCH   2  19
BRANCH   4  31
HETATM   31  C   UNL     1       4.645  28.650  49.544  1.00  0.00     0.105 A 
HETATM   32  O   UNL     1       3.345  29.057  49.402  1.00  0.00    -0.320 OA
HETATM   33  C   UNL     1       3.171  29.410  48.103  1.00  0.00     0.142 A 
HETATM   34  C   UNL     1       4.339  29.242  47.398  1.00  0.00     0.027 A 
HETATM   35  C   UNL     1       5.292  28.756  48.328  1.00  0.00     0.041 A 
ENDBRANCH   4  31
TORSDOF 6
ENDMDL
MODEL 5
REMARK VINA RESULT:      -9.4      2.445      7.624
REMARK  6 active torsions:
REMARK  status: ('A' for Active; 'I' for Inactive)
REMARK    1  A    between atoms: C_2  and  S_3 
REMARK    2  A    between atoms: S_3  and  C_4 
REMARK    3  A    between atoms: C_5  and  C_6 
REMARK       I    between atoms: C_6  and  N_7 
REMARK    4  A    between atoms: N_7  and  C_8 
REMARK    5  A    between atoms: N_9  and  C_10 
REMARK    6  A    between atoms: C_22  and  C_23 
ROOT
HETATM    1  C   UNL     1       6.350  25.764  54.387  1.00  0.00     0.152 A 
HETATM    2  N   UNL     1       6.137  25.483  53.045  1.00  0.00    -0.044 N 
HETATM    3  N   UNL     1       6.503  24.207  52.711  1.00  0.00    -0.148 NA
HETATM    4  C   UNL     1       6.967  23.696  53.859  1.00  0.00     0.115 A 
HETATM    5  C   UNL     1       6.863  24.606  54.929  1.00  0.00     0.087 A 
ENDROOT
BRANCH   1   6
HETATM    6  N   UNL     1       6.103  27.014  54.940  1.00  0.00    -0.307 N 
HETATM    7  C   UNL     1       5.504  27.181  56.172  1.00  0.00     0.258 C 
HETATM    8  O   UNL     1       4.992  26.312  56.868  1.00  0.00    -0.267 OA
HETATM    9  H   UNL     1       6.460  27.830  54.438  1.00  0.00     0.170 HD
BRANCH   7  10
HETATM   10  C   UNL     1       5.609  28.550  56.728  1.00  0.00     0.049 A 
HETATM   11  C   UNL     1       6.777  29.081  57.294  1.00  0.00     0.016 A 
HETATM   12  C   UNL     1       6.733  30.376  57.834  1.00  0.00     0.019 A 
HETATM   13  C   UNL     1       5.560  31.134  57.787  1.00  0.00     0.001 A 
HETATM   14  C   UNL     1       4.413  30.611  57.198  1.00  0.00     0.001 A 
HETATM   15  C   UNL     1       4.437  29.323  56.667  1.00  0.00     0.018 A 
BRANCH  11  16
HETATM   16  S   UNL     1       8.353  28.238  57.330  1.00  0.00    -0.129 SA
BRANCH  16  17
HETATM   17  C   UNL     1       9.424  29.689  57.614  1.00  0.00     0.075 C 
HETATM   18  C   UNL     1      10.616  29.651  56.675  1.00  0.00     0.016 C 
ENDBRANCH  16  17
ENDBRANCH  11  16
ENDBRANCH   7  10
ENDBRANCH   1   6
BRANCH   2  19
HETATM   19  C   UNL     1       5.660  26.344  52.036  1.00  0.00     0.732 A 
HETATM   20  N   UNL     1       5.829  27.629  52.053  1.00  0.00    -0.067 NA
HETATM   21  C   UNL     1       5.310  28.321  50.979  1.00  0.00     0.065 A 
HETATM   22  C   UNL     1       4.661  27.748  49.947  1.00  0.00     0.036 A 
HETATM   23  C   UNL     1       5.538  29.816  51.014  1.00  0.00     0.060 C 
HETATM   24  C   UNL     1       4.087  28.494  48.778  1.00  0.00     0.046 C 
HETATM   25  C   UNL     1       4.496  26.273  49.961  1.00  0.00     0.268 A 
HETATM   26  C   UNL     1       4.041  30.007  49.001  1.00  0.00     0.005 C 
HETATM   27  C   UNL     1       5.319  30.503  49.665  1.00  0.00     0.006 C 
HETATM   28  O   UNL     1       3.938  25.666  49.056  1.00  0.00    -0.267 OA
HETATM   29  N   UNL     1       5.017  25.651  51.050  1.00  0.00    -0.152 N 
HETATM   30  H   UNL     1       4.946  24.641  51.121  1.00  0.00     0.188 HD
ENDBRANCH   2  19
BRANCH   4  31
HETATM   31  C   UNL     1       7.554  22.328  53.957  1.00  0.00     0.105 A 
HETATM   32  O   UNL     1       7.812  21.679  55.134  1.00  0.00    -0.320 OA
HETATM   33  C   UNL     1       8.369  20.481  54.824  1.00  0.00     0.142 A 
HETATM   34  C   UNL     1       8.475  20.339  53.460  1.00  0.00     0.027 A 
HETATM   35  C   UNL     1       7.946  21.528  52.900  1.00  0.00     0.041 A 
ENDBRANCH   4  31
TORSDOF 6
ENDMDL
MODEL 6
REMARK VINA RESULT:      -9.3      2.110      7.425
REMARK  6 active torsions:
REMARK  status: ('A' for Active; 'I' for Inactive)
REMARK    1  A    between atoms: C_2  and  S_3 
REMARK    2  A    between atoms: S_3  and  C_4 
REMARK    3  A    between atoms: C_5  and  C_6 
REMARK       I    between atoms: C_6  and  N_7 
REMARK    4  A    between atoms: N_7  and  C_8 
REMARK    5  A    between atoms: N_9  and  C_10 
REMARK    6  A    between atoms: C_22  and  C_23 
ROOT
HETATM    1  C   UNL     1       6.865  25.713  54.825  1.00  0.00     0.152 A 
HETATM    2  N   UNL     1       6.243  25.446  53.613  1.00  0.00    -0.044 N 
HETATM    3  N   UNL     1       6.455  24.162  53.187  1.00  0.00    -0.148 NA
HETATM    4  C   UNL     1       7.235  23.633  54.138  1.00  0.00     0.115 A 
HETATM    5  C   UNL     1       7.488  24.540  55.186  1.00  0.00     0.087 A 
ENDROOT
BRANCH   1   6
HETATM    6  N   UNL     1       6.833  26.966  55.423  1.00  0.00    -0.307 N 
HETATM    7  C   UNL     1       6.046  27.250  56.522  1.00  0.00     0.258 C 
HETATM    8  O   UNL     1       5.193  26.528  57.025  1.00  0.00    -0.267 OA
HETATM    9  H   UNL     1       7.485  27.672  55.076  1.00  0.00     0.170 HD
BRANCH   7  10
HETATM   10  C   UNL     1       6.376  28.522  57.204  1.00  0.00     0.049 A 
HETATM   11  C   UNL     1       5.545  29.652  57.204  1.00  0.00     0.016 A 
HETATM   12  C   UNL     1       5.994  30.816  57.846  1.00  0.00     0.019 A 
HETATM   13  C   UNL     1       7.233  30.847  58.494  1.00  0.00     0.001 A 
HETATM   14  C   UNL     1       8.039  29.713  58.513  1.00  0.00     0.001 A 
HETATM   15  C   UNL     1       7.611  28.552  57.872  1.00  0.00     0.018 A 
BRANCH  11  16
HETATM   16  S   UNL     1       3.908  29.700  56.486  1.00  0.00    -0.129 SA
BRANCH  16  17
HETATM   17  C   UNL     1       3.614  31.496  56.617  1.00  0.00     0.075 C 
HETATM   18  C   UNL     1       2.668  31.953  55.520  1.00  0.00     0.016 C 
ENDBRANCH  16  17
ENDBRANCH  11  16
ENDBRANCH   7  10
ENDBRANCH   1   6
BRANCH   2  19
HETATM   19  C   UNL     1       5.503  26.325  52.797  1.00  0.00     0.732 A 
HETATM   20  N   UNL     1       4.870  27.361  53.250  1.00  0.00    -0.067 NA
HETATM   21  C   UNL     1       4.207  28.123  52.312  1.00  0.00     0.065 A 
HETATM   22  C   UNL     1       4.188  27.856  50.992  1.00  0.00     0.036 A 
HETATM   23  C   UNL     1       3.494  29.336  52.866  1.00  0.00     0.060 C 
HETATM   24  C   UNL     1       3.463  28.676  49.965  1.00  0.00     0.046 C 
HETATM   25  C   UNL     1       4.932  26.665  50.511  1.00  0.00     0.268 A 
HETATM   26  C   UNL     1       2.494  29.685  50.582  1.00  0.00     0.005 C 
HETATM   27  C   UNL     1       3.111  30.364  51.799  1.00  0.00     0.006 C 
HETATM   28  O   UNL     1       4.986  26.358  49.327  1.00  0.00    -0.267 OA
HETATM   29  N   UNL     1       5.552  25.949  51.484  1.00  0.00    -0.152 N 
HETATM   30  H   UNL     1       6.087  25.126  51.225  1.00  0.00     0.188 HD
ENDBRANCH   2  19
BRANCH   4  31
HETATM   31  C   UNL     1       7.787  22.249  54.055  1.00  0.00     0.105 A 
HETATM   32  O   UNL     1       8.186  21.509  55.135  1.00  0.00    -0.320 OA
HETATM   33  C   UNL     1       8.657  20.326  54.664  1.00  0.00     0.142 A 
HETATM   34  C   UNL     1       8.568  20.284  53.293  1.00  0.00     0.027 A 
HETATM   35  C   UNL     1       8.004  21.523  52.899  1.00  0.00     0.041 A 
ENDBRANCH   4  31
TORSDOF 6
ENDMDL
MODEL 7
REMARK VINA RESULT:      -9.3      2.984      6.619
REMARK  6 active torsions:
REMARK  status: ('A' for Active; 'I' for Inactive)
REMARK    1  A    between atoms: C_2  and  S_3 
REMARK    2  A    between atoms: S_3  and  C_4 
REMARK    3  A    between atoms: C_5  and  C_6 
REMARK       I    between atoms: C_6  and  N_7 
REMARK    4  A    between atoms: N_7  and  C_8 
REMARK    5  A    between atoms: N_9  and  C_10 
REMARK    6  A    between atoms: C_22  and  C_23 
ROOT
HETATM    1  C   UNL     1       5.302  27.872  54.617  1.00  0.00     0.152 A 
HETATM    2  N   UNL     1       5.043  28.797  53.614  1.00  0.00    -0.044 N 
HETATM    3  N   UNL     1       4.642  30.008  54.110  1.00  0.00    -0.148 NA
HETATM    4  C   UNL     1       4.632  29.826  55.436  1.00  0.00     0.115 A 
HETATM    5  C   UNL     1       5.064  28.535  55.800  1.00  0.00     0.087 A 
ENDROOT
BRANCH   1   6
HETATM    6  N   UNL     1       5.670  26.560  54.350  1.00  0.00    -0.307 N 
HETATM    7  C   UNL     1       6.956  26.201  54.000  1.00  0.00     0.258 C 
HETATM    8  O   UNL     1       7.889  26.955  53.743  1.00  0.00    -0.267 OA
HETATM    9  H   UNL     1       4.969  25.832  54.502  1.00  0.00     0.170 HD
BRANCH   7  10
HETATM   10  C   UNL     1       7.230  24.747  54.063  1.00  0.00     0.049 A 
HETATM   11  C   UNL     1       7.246  24.001  55.250  1.00  0.00     0.016 A 
HETATM   12  C   UNL     1       7.568  22.636  55.181  1.00  0.00     0.019 A 
HETATM   13  C   UNL     1       7.845  22.025  53.954  1.00  0.00     0.001 A 
HETATM   14  C   UNL     1       7.799  22.766  52.779  1.00  0.00     0.001 A 
HETATM   15  C   UNL     1       7.490  24.124  52.831  1.00  0.00     0.018 A 
BRANCH  11  16
HETATM   16  S   UNL     1       6.824  24.656  56.859  1.00  0.00    -0.129 SA
BRANCH  16  17
HETATM   17  C   UNL     1       8.415  25.462  57.243  1.00  0.00     0.075 C 
HETATM   18  C   UNL     1       8.239  26.969  57.297  1.00  0.00     0.016 C 
ENDBRANCH  16  17
ENDBRANCH  11  16
ENDBRANCH   7  10
ENDBRANCH   1   6
BRANCH   2  19
HETATM   19  C   UNL     1       5.097  28.611  52.219  1.00  0.00     0.732 A 
HETATM   20  N   UNL     1       4.694  27.533  51.623  1.00  0.00    -0.067 NA
HETATM   21  C   UNL     1       4.806  27.523  50.249  1.00  0.00     0.065 A 
HETATM   22  C   UNL     1       5.293  28.544  49.519  1.00  0.00     0.036 A 
HETATM   23  C   UNL     1       4.310  26.260  49.579  1.00  0.00     0.060 C 
HETATM   24  C   UNL     1       5.424  28.539  48.023  1.00  0.00     0.046 C 
HETATM   25  C   UNL     1       5.736  29.765  50.236  1.00  0.00     0.268 A 
HETATM   26  C   UNL     1       5.231  27.150  47.412  1.00  0.00     0.005 C 
HETATM   27  C   UNL     1       4.073  26.416  48.076  1.00  0.00     0.006 C 
HETATM   28  O   UNL     1       6.172  30.749  49.653  1.00  0.00    -0.267 OA
HETATM   29  N   UNL     1       5.613  29.708  51.588  1.00  0.00    -0.152 N 
HETATM   30  H   UNL     1       5.890  30.513  52.142  1.00  0.00     0.188 HD
ENDBRANCH   2  19
BRANCH   4  31
HETATM   31  C   UNL     1       4.179  30.876  56.394  1.00  0.00     0.105 A 
HETATM   32  O   UNL     1       3.890  32.168  56.047  1.00  0.00    -0.320 OA
HETATM   33  C   UNL     1       3.546  32.826  57.183  1.00  0.00     0.142 A 
HETATM   34  C   UNL     1       3.604  31.981  58.265  1.00  0.00     0.027 A 
HETATM   35  C   UNL     1       4.009  30.721  57.757  1.00  0.00     0.041 A 
ENDBRANCH   4  31
TORSDOF 6
ENDMDL
MODEL 8
REMARK VINA RESULT:      -9.2      2.180      6.374
REMARK  6 active torsions:
REMARK  status: ('A' for Active; 'I' for Inactive)
REMARK    1  A    between atoms: C_2  and  S_3 
REMARK    2  A    between atoms: S_3  and  C_4 
REMARK    3  A    between atoms: C_5  and  C_6 
REMARK       I    between atoms: C_6  and  N_7 
REMARK    4  A    between atoms: N_7  and  C_8 
REMARK    5  A    between atoms: N_9  and  C_10 
REMARK    6  A    between atoms: C_22  and  C_23 
ROOT
HETATM    1  C   UNL     1       7.268  25.364  52.692  1.00  0.00     0.152 A 
HETATM    2  N   UNL     1       7.207  25.470  54.075  1.00  0.00    -0.044 N 
HETATM    3  N   UNL     1       7.573  24.312  54.707  1.00  0.00    -0.148 NA
HETATM    4  C   UNL     1       7.844  23.470  53.702  1.00  0.00     0.115 A 
HETATM    5  C   UNL     1       7.704  24.082  52.440  1.00  0.00     0.087 A 
ENDROOT
BRANCH   1   6
HETATM    6  N   UNL     1       6.891  26.396  51.844  1.00  0.00    -0.307 N 
HETATM    7  C   UNL     1       5.663  26.438  51.217  1.00  0.00     0.258 C 
HETATM    8  O   UNL     1       4.816  25.552  51.193  1.00  0.00    -0.267 OA
HETATM    9  H   UNL     1       7.529  27.192  51.756  1.00  0.00     0.170 HD
BRANCH   7  10
HETATM   10  C   UNL     1       5.322  27.747  50.614  1.00  0.00     0.049 A 
HETATM   11  C   UNL     1       4.916  27.918  49.283  1.00  0.00     0.016 A 
HETATM   12  C   UNL     1       4.669  29.219  48.818  1.00  0.00     0.019 A 
HETATM   13  C   UNL     1       4.800  30.323  49.667  1.00  0.00     0.001 A 
HETATM   14  C   UNL     1       5.175  30.141  50.994  1.00  0.00     0.001 A 
HETATM   15  C   UNL     1       5.433  28.857  51.468  1.00  0.00     0.018 A 
BRANCH  11  16
HETATM   16  S   UNL     1       4.632  26.577  48.135  1.00  0.00    -0.129 SA
BRANCH  16  17
HETATM   17  C   UNL     1       3.179  27.268  47.273  1.00  0.00     0.075 C 
HETATM   18  C   UNL     1       1.905  26.870  47.995  1.00  0.00     0.016 C 
ENDBRANCH  16  17
ENDBRANCH  11  16
ENDBRANCH   7  10
ENDBRANCH   1   6
BRANCH   2  19
HETATM   19  C   UNL     1       6.782  26.568  54.850  1.00  0.00     0.732 A 
HETATM   20  N   UNL     1       5.751  27.296  54.555  1.00  0.00    -0.067 NA
HETATM   21  C   UNL     1       5.466  28.323  55.429  1.00  0.00     0.065 A 
HETATM   22  C   UNL     1       6.180  28.597  56.538  1.00  0.00     0.036 A 
HETATM   23  C   UNL     1       4.247  29.144  55.072  1.00  0.00     0.060 C 
HETATM   24  C   UNL     1       5.881  29.718  57.491  1.00  0.00     0.046 C 
HETATM   25  C   UNL     1       7.348  27.736  56.846  1.00  0.00     0.268 A 
HETATM   26  C   UNL     1       4.863  30.717  56.938  1.00  0.00     0.005 C 
HETATM   27  C   UNL     1       3.722  30.000  56.227  1.00  0.00     0.006 C 
HETATM   28  O   UNL     1       8.041  27.898  57.842  1.00  0.00    -0.267 OA
HETATM   29  N   UNL     1       7.583  26.751  55.941  1.00  0.00    -0.152 N 
HETATM   30  H   UNL     1       8.363  26.118  56.094  1.00  0.00     0.188 HD
ENDBRANCH   2  19
BRANCH   4  31
HETATM   31  C   UNL     1       8.218  22.042  53.920  1.00  0.00     0.105 A 
HETATM   32  O   UNL     1       8.509  21.497  55.141  1.00  0.00    -0.320 OA
HETATM   33  C   UNL     1       8.832  20.194  54.937  1.00  0.00     0.142 A 
HETATM   34  C   UNL     1       8.751  19.883  53.601  1.00  0.00     0.027 A 
HETATM   35  C   UNL     1       8.352  21.073  52.944  1.00  0.00     0.041 A 
ENDBRANCH   4  31
TORSDOF 6
ENDMDL
MODEL 9
REMARK VINA RESULT:      -9.1      2.260      6.402
REMARK  6 active torsions:
REMARK  status: ('A' for Active; 'I' for Inactive)
REMARK    1  A    between atoms: C_2  and  S_3 
REMARK    2  A    between atoms: S_3  and  C_4 
REMARK    3  A    between atoms: C_5  and  C_6 
REMARK       I    between atoms: C_6  and  N_7 
REMARK    4  A    between atoms: N_7  and  C_8 
REMARK    5  A    between atoms: N_9  and  C_10 
REMARK    6  A    between atoms: C_22  and  C_23 
ROOT
HETATM    1  C   UNL     1       5.992  27.769  52.431  1.00  0.00     0.152 A 
HETATM    2  N   UNL     1       5.938  26.393  52.254  1.00  0.00    -0.044 N 
HETATM    3  N   UNL     1       5.296  26.038  51.097  1.00  0.00    -0.148 NA
HETATM    4  C   UNL     1       4.930  27.209  50.561  1.00  0.00     0.115 A 
HETATM    5  C   UNL     1       5.366  28.307  51.328  1.00  0.00     0.087 A 
ENDROOT
BRANCH   1   6
HETATM    6  N   UNL     1       6.548  28.358  53.558  1.00  0.00    -0.307 N 
HETATM    7  C   UNL     1       5.837  28.557  54.725  1.00  0.00     0.258 C 
HETATM    8  O   UNL     1       4.635  28.389  54.895  1.00  0.00    -0.267 OA
HETATM    9  H   UNL     1       7.547  28.573  53.535  1.00  0.00     0.170 HD
BRANCH   7  10
HETATM   10  C   UNL     1       6.668  28.900  55.902  1.00  0.00     0.049 A 
HETATM   11  C   UNL     1       6.483  30.048  56.687  1.00  0.00     0.016 A 
HETATM   12  C   UNL     1       7.371  30.286  57.748  1.00  0.00     0.019 A 
HETATM   13  C   UNL     1       8.404  29.389  58.035  1.00  0.00     0.001 A 
HETATM   14  C   UNL     1       8.563  28.239  57.269  1.00  0.00     0.001 A 
HETATM   15  C   UNL     1       7.696  27.993  56.207  1.00  0.00     0.018 A 
BRANCH  11  16
HETATM   16  S   UNL     1       5.148  31.216  56.467  1.00  0.00    -0.129 SA
BRANCH  16  17
HETATM   17  C   UNL     1       4.009  30.559  57.733  1.00  0.00     0.075 C 
HETATM   18  C   UNL     1       3.829  31.570  58.850  1.00  0.00     0.016 C 
ENDBRANCH  16  17
ENDBRANCH  11  16
ENDBRANCH   7  10
ENDBRANCH   1   6
BRANCH   2  19
HETATM   19  C   UNL     1       6.401  25.382  53.118  1.00  0.00     0.732 A 
HETATM   20  N   UNL     1       7.215  24.443  52.751  1.00  0.00    -0.067 NA
HETATM   21  C   UNL     1       7.580  23.541  53.728  1.00  0.00     0.065 A 
HETATM   22  C   UNL     1       7.148  23.587  55.003  1.00  0.00     0.036 A 
HETATM   23  C   UNL     1       8.545  22.468  53.277  1.00  0.00     0.060 C 
HETATM   24  C   UNL     1       7.534  22.606  56.072  1.00  0.00     0.046 C 
HETATM   25  C   UNL     1       6.223  24.682  55.387  1.00  0.00     0.268 A 
HETATM   26  C   UNL     1       8.232  21.363  55.516  1.00  0.00     0.005 C 
HETATM   27  C   UNL     1       9.234  21.737  54.431  1.00  0.00     0.006 C 
HETATM   28  O   UNL     1       5.798  24.814  56.527  1.00  0.00    -0.267 OA
HETATM   29  N   UNL     1       5.893  25.529  54.378  1.00  0.00    -0.152 N 
HETATM   30  H   UNL     1       5.270  26.307  54.572  1.00  0.00     0.188 HD
ENDBRANCH   2  19
BRANCH   4  31
HETATM   31  C   UNL     1       4.125  27.309  49.309  1.00  0.00     0.105 A 
HETATM   32  O   UNL     1       3.072  28.166  49.133  1.00  0.00    -0.320 OA
HETATM   33  C   UNL     1       2.574  27.947  47.890  1.00  0.00     0.142 A 
HETATM   34  C   UNL     1       3.289  26.962  47.252  1.00  0.00     0.027 A 
HETATM   35  C   UNL     1       4.292  26.552  48.165  1.00  0.00     0.041 A 
ENDBRANCH   4  31
TORSDOF 6
ENDMDL
MODEL 10
REMARK VINA RESULT:      -9.0      2.801      7.302
REMARK  6 active torsions:
REMARK  status: ('A' for Active; 'I' for Inactive)
REMARK    1  A    between atoms: C_2  and  S_3 
REMARK    2  A    between atoms: S_3  and  C_4 
REMARK    3  A    between atoms: C_5  and  C_6 
REMARK       I    between atoms: C_6  and  N_7 
REMARK    4  A    between atoms: N_7  and  C_8 
REMARK    5  A    between atoms: N_9  and  C_10 
REMARK    6  A    between atoms: C_22  and  C_23 
ROOT
HETATM    1  C   UNL     1       5.211  26.215  53.781  1.00  0.00     0.152 A 
HETATM    2  N   UNL     1       5.456  25.901  52.451  1.00  0.00    -0.044 N 
HETATM    3  N   UNL     1       6.163  24.738  52.308  1.00  0.00    -0.148 NA
HETATM    4  C   UNL     1       6.378  24.336  53.567  1.00  0.00     0.115 A 
HETATM    5  C   UNL     1       5.781  25.196  54.510  1.00  0.00     0.087 A 
ENDROOT
BRANCH   1   6
HETATM    6  N   UNL     1       4.557  27.376  54.169  1.00  0.00    -0.307 N 
HETATM    7  C   UNL     1       5.228  28.523  54.542  1.00  0.00     0.258 C 
HETATM    8  O   UNL     1       6.435  28.647  54.721  1.00  0.00    -0.267 OA
HETATM    9  H   UNL     1       3.538  27.393  54.090  1.00  0.00     0.170 HD
BRANCH   7  10
HETATM   10  C   UNL     1       4.383  29.737  54.616  1.00  0.00     0.049 A 
HETATM   11  C   UNL     1       4.027  30.376  55.812  1.00  0.00     0.016 A 
HETATM   12  C   UNL     1       3.177  31.491  55.751  1.00  0.00     0.019 A 
HETATM   13  C   UNL     1       2.712  31.973  54.524  1.00  0.00     0.001 A 
HETATM   14  C   UNL     1       3.092  31.350  53.340  1.00  0.00     0.001 A 
HETATM   15  C   UNL     1       3.927  30.236  53.384  1.00  0.00     0.018 A 
BRANCH  11  16
HETATM   16  S   UNL     1       4.631  29.902  57.426  1.00  0.00    -0.129 SA
BRANCH  16  17
HETATM   17  C   UNL     1       4.313  31.472  58.301  1.00  0.00     0.075 C 
HETATM   18  C   UNL     1       5.616  32.214  58.535  1.00  0.00     0.016 C 
ENDBRANCH  16  17
ENDBRANCH  11  16
ENDBRANCH   7  10
ENDBRANCH   1   6
BRANCH   2  19
HETATM   19  C   UNL     1       5.115  26.641  51.301  1.00  0.00     0.732 A 
HETATM   20  N   UNL     1       5.350  27.909  51.170  1.00  0.00    -0.067 NA
HETATM   21  C   UNL     1       4.964  28.475  49.973  1.00  0.00     0.065 A 
HETATM   22  C   UNL     1       4.379  27.799  48.966  1.00  0.00     0.036 A 
HETATM   23  C   UNL     1       5.267  29.951  49.840  1.00  0.00     0.060 C 
HETATM   24  C   UNL     1       3.950  28.408  47.664  1.00  0.00     0.046 C 
HETATM   25  C   UNL     1       4.134  26.347  49.152  1.00  0.00     0.268 A 
HETATM   26  C   UNL     1       3.964  29.937  47.687  1.00  0.00     0.005 C 
HETATM   27  C   UNL     1       5.203  30.463  48.400  1.00  0.00     0.006 C 
HETATM   28  O   UNL     1       3.627  25.649  48.283  1.00  0.00    -0.267 OA
HETATM   29  N   UNL     1       4.525  25.852  50.355  1.00  0.00    -0.152 N 
HETATM   30  H   UNL     1       4.395  24.863  50.546  1.00  0.00     0.188 HD
ENDBRANCH   2  19
BRANCH   4  31
HETATM   31  C   UNL     1       7.189  23.130  53.904  1.00  0.00     0.105 A 
HETATM   32  O   UNL     1       7.334  22.624  55.168  1.00  0.00    -0.320 OA
HETATM   33  C   UNL     1       8.162  21.552  55.083  1.00  0.00     0.142 A 
HETATM   34  C   UNL     1       8.557  21.351  53.782  1.00  0.00     0.027 A 
HETATM   35  C   UNL     1       7.927  22.366  53.020  1.00  0.00     0.041 A 
ENDBRANCH   4  31
TORSDOF 6
ENDMDL
