MODEL 1
REMARK VINA RESULT:     -10.5      0.000      0.000
REMARK  4 active torsions:
REMARK  status: ('A' for Active; 'I' for Inactive)
REMARK    1  A    between atoms: C_10  and  C_11 
REMARK       I    between atoms: C_11  and  N_12 
REMARK    2  A    between atoms: N_12  and  C_13 
REMARK    3  A    between atoms: C_13  and  C_14 
REMARK    4  A    between atoms: C_16  and  C_17 
ROOT
HETATM    1  C   UNL     1       7.024  26.836  54.037  1.00  0.00     0.268 C 
HETATM    2  N   UNL     1       7.206  27.396  55.276  1.00  0.00    -0.351 N 
HETATM    3  O   UNL     1       6.681  27.489  53.056  1.00  0.00    -0.266 OA
HETATM    4  H   UNL     1       7.528  26.825  56.041  1.00  0.00     0.163 HD
ENDROOT
BRANCH   2   5
HETATM    5  C   UNL     1       7.033  28.809  55.522  1.00  0.00     0.161 C 
BRANCH   5   6
HETATM    6  C   UNL     1       8.217  29.376  56.260  1.00  0.00    -0.040 A 
HETATM    7  C   UNL     1       8.050  30.039  57.486  1.00  0.00     0.024 A 
HETATM    8  C   UNL     1       9.147  30.584  58.172  1.00  0.00     0.014 A 
HETATM    9  C   UNL     1      10.427  30.452  57.614  1.00  0.00     0.015 A 
HETATM   10  C   UNL     1      10.606  29.794  56.395  1.00  0.00     0.002 A 
HETATM   11  C   UNL     1       9.507  29.263  55.721  1.00  0.00     0.009 A 
BRANCH   8  12
HETATM   12  C   UNL     1       8.949  31.282  59.439  1.00  0.00     0.181 A 
HETATM   13  N   UNL     1       9.123  32.604  59.609  1.00  0.00    -0.152 NA
HETATM   14  N   UNL     1       8.817  32.764  60.904  1.00  0.00    -0.263 N 
HETATM   15  H   UNL     1       8.861  33.691  61.313  1.00  0.00     0.190 HD
HETATM   16  C   UNL     1       8.474  31.582  61.489  1.00  0.00     0.118 A 
HETATM   17  C   UNL     1       8.091  31.457  62.909  1.00  0.00     0.093 C 
HETATM   18  N   UNL     1       8.552  30.628  60.588  1.00  0.00    -0.212 NA
ENDBRANCH   8  12
ENDBRANCH   5   6
ENDBRANCH   2   5
BRANCH   1  19
HETATM   19  C   UNL     1       7.273  25.414  53.955  1.00  0.00     0.102 A 
HETATM   20  N   UNL     1       7.350  24.644  55.096  1.00  0.00    -0.351 N 
HETATM   21  C   UNL     1       7.586  23.326  54.792  1.00  0.00     0.043 A 
HETATM   22  H   UNL     1       7.241  25.019  56.030  1.00  0.00     0.166 HD
HETATM   23  C   UNL     1       7.727  22.215  55.633  1.00  0.00     0.037 A 
HETATM   24  C   UNL     1       7.671  23.239  53.406  1.00  0.00    -0.007 A 
HETATM   25  C   UNL     1       7.973  20.967  55.038  1.00  0.00    -0.060 A 
HETATM   26  C   UNL     1       8.113  19.737  55.889  1.00  0.00     0.048 C 
HETATM   27  C   UNL     1       8.057  20.859  53.646  1.00  0.00     0.007 A 
HETATM   28  C   UNL     1       7.912  21.982  52.821  1.00  0.00     0.014 A 
HETATM   29  C   UNL     1       7.474  24.552  52.891  1.00  0.00     0.049 A 
ENDBRANCH   1  19
TORSDOF 4
ENDMDL
MODEL 2
REMARK VINA RESULT:     -10.2      1.365      1.983
REMARK  4 active torsions:
REMARK  status: ('A' for Active; 'I' for Inactive)
REMARK    1  A    between atoms: C_10  and  C_11 
REMARK       I    between atoms: C_11  and  N_12 
REMARK    2  A    between atoms: N_12  and  C_13 
REMARK    3  A    between atoms: C_13  and  C_14 
REMARK    4  A    between atoms: C_16  and  C_17 
ROOT
HETATM    1  C   UNL     1       6.850  26.521  56.147  1.00  0.00     0.268 C 
HETATM    2  N   UNL     1       7.641  27.442  55.509  1.00  0.00    -0.351 N 
HETATM    3  O   UNL     1       5.935  26.837  56.901  1.00  0.00    -0.266 OA
HETATM    4  H   UNL     1       8.353  27.132  54.867  1.00  0.00     0.163 HD
ENDROOT
BRANCH   2   5
HETATM    5  C   UNL     1       7.444  28.865  55.653  1.00  0.00     0.161 C 
BRANCH   5   6
HETATM    6  C   UNL     1       8.439  29.452  56.621  1.00  0.00    -0.040 A 
HETATM    7  C   UNL     1       8.069  29.739  57.944  1.00  0.00     0.024 A 
HETATM    8  C   UNL     1       8.986  30.300  58.848  1.00  0.00     0.014 A 
HETATM    9  C   UNL     1      10.290  30.567  58.409  1.00  0.00     0.015 A 
HETATM   10  C   UNL     1      10.669  30.286  57.095  1.00  0.00     0.002 A 
HETATM   11  C   UNL     1       9.748  29.735  56.206  1.00  0.00     0.009 A 
BRANCH   8  12
HETATM   12  C   UNL     1       8.577  30.605  60.217  1.00  0.00     0.181 A 
HETATM   13  N   UNL     1       9.164  30.095  61.313  1.00  0.00    -0.152 NA
HETATM   14  N   UNL     1       8.462  30.666  62.300  1.00  0.00    -0.263 N 
HETATM   15  H   UNL     1       8.700  30.456  63.264  1.00  0.00     0.190 HD
HETATM   16  C   UNL     1       7.488  31.486  61.815  1.00  0.00     0.118 A 
HETATM   17  C   UNL     1       6.559  32.246  62.676  1.00  0.00     0.093 C 
HETATM   18  N   UNL     1       7.535  31.464  60.502  1.00  0.00    -0.212 NA
ENDBRANCH   8  12
ENDBRANCH   5   6
ENDBRANCH   2   5
BRANCH   1  19
HETATM   19  C   UNL     1       7.159  25.136  55.866  1.00  0.00     0.102 A 
HETATM   20  N   UNL     1       7.285  24.690  54.567  1.00  0.00    -0.351 N 
HETATM   21  C   UNL     1       7.585  23.351  54.527  1.00  0.00     0.043 A 
HETATM   22  H   UNL     1       7.170  25.289  53.759  1.00  0.00     0.166 HD
HETATM   23  C   UNL     1       7.803  22.505  53.432  1.00  0.00     0.037 A 
HETATM   24  C   UNL     1       7.649  22.911  55.846  1.00  0.00    -0.007 A 
HETATM   25  C   UNL     1       8.090  21.156  53.691  1.00  0.00    -0.060 A 
HETATM   26  C   UNL     1       8.354  20.207  52.558  1.00  0.00     0.048 C 
HETATM   27  C   UNL     1       8.164  20.696  55.011  1.00  0.00     0.007 A 
HETATM   28  C   UNL     1       7.944  21.557  56.093  1.00  0.00     0.014 A 
HETATM   29  C   UNL     1       7.381  24.036  56.676  1.00  0.00     0.049 A 
ENDBRANCH   1  19
TORSDOF 4
ENDMDL
MODEL 3
REMARK VINA RESULT:      -9.9      2.795      4.551
REMARK  4 active torsions:
REMARK  status: ('A' for Active; 'I' for Inactive)
REMARK    1  A    between atoms: C_10  and  C_11 
REMARK       I    between atoms: C_11  and  N_12 
REMARK    2  A    between atoms: N_12  and  C_13 
REMARK    3  A    between atoms: C_13  and  C_14 
REMARK    4  A    between atoms: C_16  and  C_17 
ROOT
HETATM    1  C   UNL     1       6.448  29.076  57.545  1.00  0.00     0.268 C 
HETATM    2  N   UNL     1       7.323  29.901  58.204  1.00  0.00    -0.351 N 
HETATM    3  O   UNL     1       5.290  29.397  57.292  1.00  0.00    -0.266 OA
HETATM    4  H   UNL     1       8.275  29.606  58.350  1.00  0.00     0.163 HD
ENDROOT
BRANCH   2   5
HETATM    5  C   UNL     1       6.961  31.232  58.632  1.00  0.00     0.161 C 
BRANCH   5   6
HETATM    6  C   UNL     1       7.533  31.534  59.993  1.00  0.00    -0.040 A 
HETATM    7  C   UNL     1       6.702  31.949  61.045  1.00  0.00     0.024 A 
HETATM    8  C   UNL     1       7.229  32.247  62.312  1.00  0.00     0.014 A 
HETATM    9  C   UNL     1       8.611  32.119  62.516  1.00  0.00     0.015 A 
HETATM   10  C   UNL     1       9.447  31.707  61.477  1.00  0.00     0.002 A 
HETATM   11  C   UNL     1       8.912  31.420  60.223  1.00  0.00     0.009 A 
BRANCH   8  12
HETATM   12  C   UNL     1       6.348  32.691  63.389  1.00  0.00     0.181 A 
HETATM   13  N   UNL     1       5.026  32.457  63.429  1.00  0.00    -0.152 NA
HETATM   14  N   UNL     1       4.672  33.033  64.586  1.00  0.00    -0.263 N 
HETATM   15  H   UNL     1       3.702  33.004  64.878  1.00  0.00     0.190 HD
HETATM   16  C   UNL     1       5.743  33.595  65.215  1.00  0.00     0.118 A 
HETATM   17  C   UNL     1       5.650  34.301  66.509  1.00  0.00     0.093 C 
HETATM   18  N   UNL     1       6.815  33.397  64.480  1.00  0.00    -0.212 NA
ENDBRANCH   8  12
ENDBRANCH   5   6
ENDBRANCH   2   5
BRANCH   1  19
HETATM   19  C   UNL     1       6.981  27.790  57.153  1.00  0.00     0.102 A 
HETATM   20  N   UNL     1       6.760  27.289  55.887  1.00  0.00    -0.351 N 
HETATM   21  C   UNL     1       7.357  26.063  55.726  1.00  0.00     0.043 A 
HETATM   22  H   UNL     1       6.225  27.778  55.181  1.00  0.00     0.166 HD
HETATM   23  C   UNL     1       7.391  25.213  54.613  1.00  0.00     0.037 A 
HETATM   24  C   UNL     1       7.982  25.755  56.930  1.00  0.00    -0.007 A 
HETATM   25  C   UNL     1       8.083  23.998  54.735  1.00  0.00    -0.060 A 
HETATM   26  C   UNL     1       8.171  23.057  53.568  1.00  0.00     0.048 C 
HETATM   27  C   UNL     1       8.722  23.673  55.936  1.00  0.00     0.007 A 
HETATM   28  C   UNL     1       8.678  24.536  57.039  1.00  0.00     0.014 A 
HETATM   29  C   UNL     1       7.741  26.843  57.818  1.00  0.00     0.049 A 
ENDBRANCH   1  19
TORSDOF 4
ENDMDL
MODEL 4
REMARK VINA RESULT:      -9.8      2.545     10.055
REMARK  4 active torsions:
REMARK  status: ('A' for Active; 'I' for Inactive)
REMARK    1  A    between atoms: C_10  and  C_11 
REMARK       I    between atoms: C_11  and  N_12 
REMARK    2  A    between atoms: N_12  and  C_13 
REMARK    3  A    between atoms: C_13  and  C_14 
REMARK    4  A    between atoms: C_16  and  C_17 
ROOT
HETATM    1  C   UNL     1       8.869  30.297  58.732  1.00  0.00     0.268 C 
HETATM    2  N   UNL     1       8.190  29.153  58.397  1.00  0.00    -0.351 N 
HETATM    3  O   UNL     1       9.772  30.761  58.043  1.00  0.00    -0.266 OA
HETATM    4  H   UNL     1       7.429  28.835  58.976  1.00  0.00     0.163 HD
ENDROOT
BRANCH   2   5
HETATM    5  C   UNL     1       8.466  28.413  57.188  1.00  0.00     0.161 C 
BRANCH   5   6
HETATM    6  C   UNL     1       7.495  27.274  57.019  1.00  0.00    -0.040 A 
HETATM    7  C   UNL     1       7.951  25.979  56.727  1.00  0.00     0.024 A 
HETATM    8  C   UNL     1       7.052  24.915  56.554  1.00  0.00     0.014 A 
HETATM    9  C   UNL     1       5.678  25.163  56.683  1.00  0.00     0.015 A 
HETATM   10  C   UNL     1       5.213  26.447  56.974  1.00  0.00     0.002 A 
HETATM   11  C   UNL     1       6.115  27.496  57.138  1.00  0.00     0.009 A 
BRANCH   8  12
HETATM   12  C   UNL     1       7.547  23.578  56.236  1.00  0.00     0.181 A 
HETATM   13  N   UNL     1       8.292  22.830  57.068  1.00  0.00    -0.152 NA
HETATM   14  N   UNL     1       8.481  21.714  56.351  1.00  0.00    -0.263 N 
HETATM   15  H   UNL     1       9.023  20.955  56.749  1.00  0.00     0.190 HD
HETATM   16  C   UNL     1       7.874  21.791  55.133  1.00  0.00     0.118 A 
HETATM   17  C   UNL     1       7.916  20.706  54.132  1.00  0.00     0.093 C 
HETATM   18  N   UNL     1       7.279  22.958  55.032  1.00  0.00    -0.212 NA
ENDBRANCH   8  12
ENDBRANCH   5   6
ENDBRANCH   2   5
BRANCH   1  19
HETATM   19  C   UNL     1       8.444  30.935  59.959  1.00  0.00     0.102 A 
HETATM   20  N   UNL     1       7.125  31.285  60.152  1.00  0.00    -0.351 N 
HETATM   21  C   UNL     1       6.940  31.870  61.381  1.00  0.00     0.043 A 
HETATM   22  H   UNL     1       6.399  31.122  59.466  1.00  0.00     0.166 HD
HETATM   23  C   UNL     1       5.775  32.363  61.982  1.00  0.00     0.037 A 
HETATM   24  C   UNL     1       8.184  31.906  62.004  1.00  0.00    -0.007 A 
HETATM   25  C   UNL     1       5.883  32.922  63.265  1.00  0.00    -0.060 A 
HETATM   26  C   UNL     1       4.664  33.448  63.967  1.00  0.00     0.048 C 
HETATM   27  C   UNL     1       7.125  32.963  63.909  1.00  0.00     0.007 A 
HETATM   28  C   UNL     1       8.279  32.463  63.292  1.00  0.00     0.014 A 
HETATM   29  C   UNL     1       9.119  31.318  61.105  1.00  0.00     0.049 A 
ENDBRANCH   1  19
TORSDOF 4
ENDMDL
MODEL 5
REMARK VINA RESULT:      -9.6      1.973      3.256
REMARK  4 active torsions:
REMARK  status: ('A' for Active; 'I' for Inactive)
REMARK    1  A    between atoms: C_10  and  C_11 
REMARK       I    between atoms: C_11  and  N_12 
REMARK    2  A    between atoms: N_12  and  C_13 
REMARK    3  A    between atoms: C_13  and  C_14 
REMARK    4  A    between atoms: C_16  and  C_17 
ROOT
HETATM    1  C   UNL     1       5.605  26.945  53.433  1.00  0.00     0.268 C 
HETATM    2  N   UNL     1       4.711  27.271  54.421  1.00  0.00    -0.351 N 
HETATM    3  O   UNL     1       5.889  27.708  52.514  1.00  0.00    -0.266 OA
HETATM    4  H   UNL     1       4.543  26.626  55.176  1.00  0.00     0.163 HD
ENDROOT
BRANCH   2   5
HETATM    5  C   UNL     1       4.048  28.553  54.475  1.00  0.00     0.161 C 
BRANCH   5   6
HETATM    6  C   UNL     1       4.443  29.312  55.714  1.00  0.00    -0.040 A 
HETATM    7  C   UNL     1       5.785  29.375  56.120  1.00  0.00     0.024 A 
HETATM    8  C   UNL     1       6.160  30.068  57.282  1.00  0.00     0.014 A 
HETATM    9  C   UNL     1       5.167  30.709  58.037  1.00  0.00     0.015 A 
HETATM   10  C   UNL     1       3.829  30.653  57.643  1.00  0.00     0.002 A 
HETATM   11  C   UNL     1       3.469  29.957  56.490  1.00  0.00     0.009 A 
BRANCH   8  12
HETATM   12  C   UNL     1       7.561  30.109  57.695  1.00  0.00     0.181 A 
HETATM   13  N   UNL     1       7.976  30.439  58.929  1.00  0.00    -0.152 NA
HETATM   14  N   UNL     1       9.306  30.321  58.821  1.00  0.00    -0.263 N 
HETATM   15  H   UNL     1       9.888  30.514  59.628  1.00  0.00     0.190 HD
HETATM   16  C   UNL     1       9.674  29.936  57.566  1.00  0.00     0.118 A 
HETATM   17  C   UNL     1      11.079  29.729  57.158  1.00  0.00     0.093 C 
HETATM   18  N   UNL     1       8.593  29.798  56.833  1.00  0.00    -0.212 NA
ENDBRANCH   8  12
ENDBRANCH   5   6
ENDBRANCH   2   5
BRANCH   1  19
HETATM   19  C   UNL     1       6.207  25.635  53.546  1.00  0.00     0.102 A 
HETATM   20  N   UNL     1       6.394  25.049  54.781  1.00  0.00    -0.351 N 
HETATM   21  C   UNL     1       6.973  23.809  54.660  1.00  0.00     0.043 A 
HETATM   22  H   UNL     1       6.130  25.490  55.652  1.00  0.00     0.166 HD
HETATM   23  C   UNL     1       7.328  22.878  55.644  1.00  0.00     0.037 A 
HETATM   24  C   UNL     1       7.174  23.587  53.301  1.00  0.00    -0.007 A 
HETATM   25  C   UNL     1       7.919  21.675  55.227  1.00  0.00    -0.060 A 
HETATM   26  C   UNL     1       8.302  20.630  56.235  1.00  0.00     0.048 C 
HETATM   27  C   UNL     1       8.125  21.431  53.864  1.00  0.00     0.007 A 
HETATM   28  C   UNL     1       7.762  22.374  52.895  1.00  0.00     0.014 A 
HETATM   29  C   UNL     1       6.691  24.736  52.612  1.00  0.00     0.049 A 
ENDBRANCH   1  19
TORSDOF 4
ENDMDL
MODEL 6
REMARK VINA RESULT:      -9.5      1.622      2.271
REMARK  4 active torsions:
REMARK  status: ('A' for Active; 'I' for Inactive)
REMARK    1  A    between atoms: C_10  and  C_11 
REMARK       I    between atoms: C_11  and  N_12 
REMARK    2  A    between atoms: N_12  and  C_13 
REMARK    3  A    between atoms: C_13  and  C_14 
REMARK    4  A    between atoms: C_16  and  C_17 
ROOT
HETATM    1  C   UNL     1       6.178  27.647  56.141  1.00  0.00     0.268 C 
HETATM    2  N   UNL     1       6.753  28.855  55.839  1.00  0.00    -0.351 N 
HETATM    3  O   UNL     1       5.340  27.510  57.027  1.00  0.00    -0.266 OA
HETATM    4  H   UNL     1       7.406  28.922  55.075  1.00  0.00     0.163 HD
ENDROOT
BRANCH   2   5
HETATM    5  C   UNL     1       6.398  30.075  56.525  1.00  0.00     0.161 C 
BRANCH   5   6
HETATM    6  C   UNL     1       7.358  30.360  57.651  1.00  0.00    -0.040 A 
HETATM    7  C   UNL     1       6.942  31.074  58.786  1.00  0.00     0.024 A 
HETATM    8  C   UNL     1       7.834  31.356  59.833  1.00  0.00     0.014 A 
HETATM    9  C   UNL     1       9.159  30.906  59.732  1.00  0.00     0.015 A 
HETATM   10  C   UNL     1       9.583  30.195  58.608  1.00  0.00     0.002 A 
HETATM   11  C   UNL     1       8.689  29.927  57.573  1.00  0.00     0.009 A 
BRANCH   8  12
HETATM   12  C   UNL     1       7.385  32.113  60.999  1.00  0.00     0.181 A 
HETATM   13  N   UNL     1       6.245  32.824  61.045  1.00  0.00    -0.152 NA
HETATM   14  N   UNL     1       6.268  33.312  62.292  1.00  0.00    -0.263 N 
HETATM   15  H   UNL     1       5.504  33.899  62.609  1.00  0.00     0.190 HD
HETATM   16  C   UNL     1       7.381  32.910  62.968  1.00  0.00     0.118 A 
HETATM   17  C   UNL     1       7.670  33.297  64.364  1.00  0.00     0.093 C 
HETATM   18  N   UNL     1       8.106  32.154  62.175  1.00  0.00    -0.212 NA
ENDBRANCH   8  12
ENDBRANCH   5   6
ENDBRANCH   2   5
BRANCH   1  19
HETATM   19  C   UNL     1       6.620  26.530  55.335  1.00  0.00     0.102 A 
HETATM   20  N   UNL     1       6.699  25.261  55.868  1.00  0.00    -0.351 N 
HETATM   21  C   UNL     1       7.134  24.354  54.934  1.00  0.00     0.043 A 
HETATM   22  H   UNL     1       6.461  25.045  56.828  1.00  0.00     0.166 HD
HETATM   23  C   UNL     1       7.347  22.975  55.043  1.00  0.00     0.037 A 
HETATM   24  C   UNL     1       7.350  25.060  53.754  1.00  0.00    -0.007 A 
HETATM   25  C   UNL     1       7.808  22.288  53.908  1.00  0.00    -0.060 A 
HETATM   26  C   UNL     1       8.034  20.805  53.961  1.00  0.00     0.048 C 
HETATM   27  C   UNL     1       8.026  22.980  52.712  1.00  0.00     0.007 A 
HETATM   28  C   UNL     1       7.806  24.361  52.621  1.00  0.00     0.014 A 
HETATM   29  C   UNL     1       7.025  26.422  54.016  1.00  0.00     0.049 A 
ENDBRANCH   1  19
TORSDOF 4
ENDMDL
MODEL 7
REMARK VINA RESULT:      -9.2      6.812     10.402
REMARK  4 active torsions:
REMARK  status: ('A' for Active; 'I' for Inactive)
REMARK    1  A    between atoms: C_10  and  C_11 
REMARK       I    between atoms: C_11  and  N_12 
REMARK    2  A    between atoms: N_12  and  C_13 
REMARK    3  A    between atoms: C_13  and  C_14 
REMARK    4  A    between atoms: C_16  and  C_17 
ROOT
HETATM    1  C   UNL     1       4.779  27.086  52.537  1.00  0.00     0.268 C 
HETATM    2  N   UNL     1       4.681  27.021  51.170  1.00  0.00    -0.351 N 
HETATM    3  O   UNL     1       4.296  28.001  53.197  1.00  0.00    -0.266 OA
HETATM    4  H   UNL     1       5.059  26.227  50.678  1.00  0.00     0.163 HD
ENDROOT
BRANCH   2   5
HETATM    5  C   UNL     1       3.975  28.015  50.396  1.00  0.00     0.161 C 
BRANCH   5   6
HETATM    6  C   UNL     1       3.350  27.400  49.171  1.00  0.00    -0.040 A 
HETATM    7  C   UNL     1       2.217  27.978  48.576  1.00  0.00     0.024 A 
HETATM    8  C   UNL     1       1.619  27.402  47.443  1.00  0.00     0.014 A 
HETATM    9  C   UNL     1       2.177  26.233  46.905  1.00  0.00     0.015 A 
HETATM   10  C   UNL     1       3.303  25.650  47.488  1.00  0.00     0.002 A 
HETATM   11  C   UNL     1       3.884  26.228  48.616  1.00  0.00     0.009 A 
BRANCH   8  12
HETATM   12  C   UNL     1       0.432  28.011  46.848  1.00  0.00     0.181 A 
HETATM   13  N   UNL     1      -0.552  27.320  46.249  1.00  0.00    -0.152 NA
HETATM   14  N   UNL     1      -1.399  28.293  45.887  1.00  0.00    -0.263 N 
HETATM   15  H   UNL     1      -2.257  28.049  45.404  1.00  0.00     0.190 HD
HETATM   16  C   UNL     1      -0.938  29.522  46.253  1.00  0.00     0.118 A 
HETATM   17  C   UNL     1      -1.664  30.779  45.981  1.00  0.00     0.093 C 
HETATM   18  N   UNL     1       0.219  29.375  46.859  1.00  0.00    -0.212 NA
ENDBRANCH   8  12
ENDBRANCH   5   6
ENDBRANCH   2   5
BRANCH   1  19
HETATM   19  C   UNL     1       5.489  25.992  53.161  1.00  0.00     0.102 A 
HETATM   20  N   UNL     1       6.132  25.040  52.398  1.00  0.00    -0.351 N 
HETATM   21  C   UNL     1       6.744  24.098  53.188  1.00  0.00     0.043 A 
HETATM   22  H   UNL     1       6.143  25.052  51.386  1.00  0.00     0.166 HD
HETATM   23  C   UNL     1       7.503  22.976  52.834  1.00  0.00     0.037 A 
HETATM   24  C   UNL     1       6.484  24.447  54.510  1.00  0.00    -0.007 A 
HETATM   25  C   UNL     1       8.010  22.172  53.867  1.00  0.00    -0.060 A 
HETATM   26  C   UNL     1       8.848  20.968  53.548  1.00  0.00     0.048 C 
HETATM   27  C   UNL     1       7.763  22.510  55.202  1.00  0.00     0.007 A 
HETATM   28  C   UNL     1       7.002  23.638  55.537  1.00  0.00     0.014 A 
HETATM   29  C   UNL     1       5.697  25.634  54.482  1.00  0.00     0.049 A 
ENDBRANCH   1  19
TORSDOF 4
ENDMDL
MODEL 8
REMARK VINA RESULT:      -9.2      1.852      2.877
REMARK  4 active torsions:
REMARK  status: ('A' for Active; 'I' for Inactive)
REMARK    1  A    between atoms: C_10  and  C_11 
REMARK       I    between atoms: C_11  and  N_12 
REMARK    2  A    between atoms: N_12  and  C_13 
REMARK    3  A    between atoms: C_13  and  C_14 
REMARK    4  A    between atoms: C_16  and  C_17 
ROOT
HETATM    1  C   UNL     1       6.981  27.490  54.318  1.00  0.00     0.268 C 
HETATM    2  N   UNL     1       5.681  27.899  54.477  1.00  0.00    -0.351 N 
HETATM    3  O   UNL     1       7.900  28.268  54.079  1.00  0.00    -0.266 OA
HETATM    4  H   UNL     1       4.970  27.226  54.713  1.00  0.00     0.163 HD
ENDROOT
BRANCH   2   5
HETATM    5  C   UNL     1       5.291  29.288  54.400  1.00  0.00     0.161 C 
BRANCH   5   6
HETATM    6  C   UNL     1       5.191  29.896  55.774  1.00  0.00    -0.040 A 
HETATM    7  C   UNL     1       6.340  30.099  56.555  1.00  0.00     0.024 A 
HETATM    8  C   UNL     1       6.254  30.652  57.843  1.00  0.00     0.014 A 
HETATM    9  C   UNL     1       4.993  31.007  58.343  1.00  0.00     0.015 A 
HETATM   10  C   UNL     1       3.843  30.810  57.576  1.00  0.00     0.002 A 
HETATM   11  C   UNL     1       3.942  30.255  56.301  1.00  0.00     0.009 A 
BRANCH   8  12
HETATM   12  C   UNL     1       7.461  30.842  58.644  1.00  0.00     0.181 A 
HETATM   13  N   UNL     1       8.703  30.555  58.218  1.00  0.00    -0.152 NA
HETATM   14  N   UNL     1       9.450  30.903  59.275  1.00  0.00    -0.263 N 
HETATM   15  H   UNL     1      10.457  30.792  59.229  1.00  0.00     0.190 HD
HETATM   16  C   UNL     1       8.683  31.378  60.297  1.00  0.00     0.118 A 
HETATM   17  C   UNL     1       9.238  31.835  61.587  1.00  0.00     0.093 C 
HETATM   18  N   UNL     1       7.423  31.348  59.927  1.00  0.00    -0.212 NA
ENDBRANCH   8  12
ENDBRANCH   5   6
ENDBRANCH   2   5
BRANCH   1  19
HETATM   19  C   UNL     1       7.207  26.069  54.461  1.00  0.00     0.102 A 
HETATM   20  N   UNL     1       7.393  25.268  53.354  1.00  0.00    -0.351 N 
HETATM   21  C   UNL     1       7.595  23.959  53.714  1.00  0.00     0.043 A 
HETATM   22  H   UNL     1       7.381  25.619  52.405  1.00  0.00     0.166 HD
HETATM   23  C   UNL     1       7.829  22.828  52.922  1.00  0.00     0.037 A 
HETATM   24  C   UNL     1       7.531  23.907  55.104  1.00  0.00    -0.007 A 
HETATM   25  C   UNL     1       7.996  21.594  53.570  1.00  0.00    -0.060 A 
HETATM   26  C   UNL     1       8.270  20.351  52.772  1.00  0.00     0.048 C 
HETATM   27  C   UNL     1       7.940  21.523  54.966  1.00  0.00     0.007 A 
HETATM   28  C   UNL     1       7.707  22.665  55.742  1.00  0.00     0.014 A 
HETATM   29  C   UNL     1       7.288  25.233  55.562  1.00  0.00     0.049 A 
ENDBRANCH   1  19
TORSDOF 4
ENDMDL
MODEL 9
REMARK VINA RESULT:      -9.0      2.605      2.924
REMARK  4 active torsions:
REMARK  status: ('A' for Active; 'I' for Inactive)
REMARK    1  A    between atoms: C_10  and  C_11 
REMARK       I    between atoms: C_11  and  N_12 
REMARK    2  A    between atoms: N_12  and  C_13 
REMARK    3  A    between atoms: C_13  and  C_14 
REMARK    4  A    between atoms: C_16  and  C_17 
ROOT
HETATM    1  C   UNL     1       5.458  26.450  54.364  1.00  0.00     0.268 C 
HETATM    2  N   UNL     1       5.137  26.775  55.657  1.00  0.00    -0.351 N 
HETATM    3  O   UNL     1       5.179  27.168  53.408  1.00  0.00    -0.266 OA
HETATM    4  H   UNL     1       5.425  26.171  56.411  1.00  0.00     0.163 HD
ENDROOT
BRANCH   2   5
HETATM    5  C   UNL     1       4.466  28.006  56.004  1.00  0.00     0.161 C 
BRANCH   5   6
HETATM    6  C   UNL     1       5.360  28.893  56.831  1.00  0.00    -0.040 A 
HETATM    7  C   UNL     1       4.931  30.166  57.238  1.00  0.00     0.024 A 
HETATM    8  C   UNL     1       5.764  31.004  57.997  1.00  0.00     0.014 A 
HETATM    9  C   UNL     1       7.042  30.546  58.351  1.00  0.00     0.015 A 
HETATM   10  C   UNL     1       7.479  29.282  57.952  1.00  0.00     0.002 A 
HETATM   11  C   UNL     1       6.645  28.462  57.194  1.00  0.00     0.009 A 
BRANCH   8  12
HETATM   12  C   UNL     1       5.303  32.331  58.398  1.00  0.00     0.181 A 
HETATM   13  N   UNL     1       5.226  33.386  57.570  1.00  0.00    -0.152 NA
HETATM   14  N   UNL     1       4.749  34.343  58.377  1.00  0.00    -0.263 N 
HETATM   15  H   UNL     1       4.585  35.271  58.004  1.00  0.00     0.190 HD
HETATM   16  C   UNL     1       4.551  33.879  59.643  1.00  0.00     0.118 A 
HETATM   17  C   UNL     1       4.033  34.715  60.746  1.00  0.00     0.093 C 
HETATM   18  N   UNL     1       4.895  32.611  59.687  1.00  0.00    -0.212 NA
ENDBRANCH   8  12
ENDBRANCH   5   6
ENDBRANCH   2   5
BRANCH   1  19
HETATM   19  C   UNL     1       6.160  25.197  54.194  1.00  0.00     0.102 A 
HETATM   20  N   UNL     1       6.482  24.414  55.283  1.00  0.00    -0.351 N 
HETATM   21  C   UNL     1       7.139  23.272  54.898  1.00  0.00     0.043 A 
HETATM   22  H   UNL     1       6.252  24.665  56.236  1.00  0.00     0.166 HD
HETATM   23  C   UNL     1       7.634  22.211  55.667  1.00  0.00     0.037 A 
HETATM   24  C   UNL     1       7.254  23.318  53.512  1.00  0.00    -0.007 A 
HETATM   25  C   UNL     1       8.278  21.159  54.997  1.00  0.00    -0.060 A 
HETATM   26  C   UNL     1       8.810  19.984  55.767  1.00  0.00     0.048 C 
HETATM   27  C   UNL     1       8.399  21.185  53.603  1.00  0.00     0.007 A 
HETATM   28  C   UNL     1       7.897  22.255  52.851  1.00  0.00     0.014 A 
HETATM   29  C   UNL     1       6.638  24.528  53.081  1.00  0.00     0.049 A 
ENDBRANCH   1  19
TORSDOF 4
ENDMDL
MODEL 10
REMARK VINA RESULT:      -9.0      3.603      9.913
REMARK  4 active torsions:
REMARK  status: ('A' for Active; 'I' for Inactive)
REMARK    1  A    between atoms: C_10  and  C_11 
REMARK       I    between atoms: C_11  and  N_12 
REMARK    2  A    between atoms: N_12  and  C_13 
REMARK    3  A    between atoms: C_13  and  C_14 
REMARK    4  A    between atoms: C_16  and  C_17 
ROOT
HETATM    1  C   UNL     1       9.443  31.508  59.000  1.00  0.00     0.268 C 
HETATM    2  N   UNL     1       9.053  30.284  58.520  1.00  0.00    -0.351 N 
HETATM    3  O   UNL     1      10.259  32.220  58.422  1.00  0.00    -0.266 OA
HETATM    4  H   UNL     1       8.348  29.756  59.010  1.00  0.00     0.163 HD
ENDROOT
BRANCH   2   5
HETATM    5  C   UNL     1       9.553  29.741  57.279  1.00  0.00     0.161 C 
BRANCH   5   6
HETATM    6  C   UNL     1       8.620  28.691  56.735  1.00  0.00    -0.040 A 
HETATM    7  C   UNL     1       7.833  28.948  55.601  1.00  0.00     0.024 A 
HETATM    8  C   UNL     1       6.949  27.980  55.097  1.00  0.00     0.014 A 
HETATM    9  C   UNL     1       6.867  26.738  55.742  1.00  0.00     0.015 A 
HETATM   10  C   UNL     1       7.645  26.471  56.870  1.00  0.00     0.002 A 
HETATM   11  C   UNL     1       8.514  27.443  57.365  1.00  0.00     0.009 A 
BRANCH   8  12
HETATM   12  C   UNL     1       6.128  28.274  53.924  1.00  0.00     0.181 A 
HETATM   13  N   UNL     1       6.508  28.037  52.657  1.00  0.00    -0.152 NA
HETATM   14  N   UNL     1       5.441  28.450  51.961  1.00  0.00    -0.263 N 
HETATM   15  H   UNL     1       5.452  28.383  50.950  1.00  0.00     0.190 HD
HETATM   16  C   UNL     1       4.459  28.920  52.781  1.00  0.00     0.118 A 
HETATM   17  C   UNL     1       3.168  29.443  52.288  1.00  0.00     0.093 C 
HETATM   18  N   UNL     1       4.866  28.823  54.026  1.00  0.00    -0.212 NA
ENDBRANCH   8  12
ENDBRANCH   5   6
ENDBRANCH   2   5
BRANCH   1  19
HETATM   19  C   UNL     1       8.819  31.918  60.238  1.00  0.00     0.102 A 
HETATM   20  N   UNL     1       7.564  32.490  60.241  1.00  0.00    -0.351 N 
HETATM   21  C   UNL     1       7.160  32.798  61.517  1.00  0.00     0.043 A 
HETATM   22  H   UNL     1       7.024  32.652  59.401  1.00  0.00     0.166 HD
HETATM   23  C   UNL     1       5.969  33.376  61.974  1.00  0.00     0.037 A 
HETATM   24  C   UNL     1       8.191  32.418  62.371  1.00  0.00    -0.007 A 
HETATM   25  C   UNL     1       5.827  33.584  63.355  1.00  0.00    -0.060 A 
HETATM   26  C   UNL     1       4.563  34.181  63.904  1.00  0.00     0.048 C 
HETATM   27  C   UNL     1       6.851  33.204  64.230  1.00  0.00     0.007 A 
HETATM   28  C   UNL     1       8.035  32.626  63.754  1.00  0.00     0.014 A 
HETATM   29  C   UNL     1       9.226  31.869  61.560  1.00  0.00     0.049 A 
ENDBRANCH   1  19
TORSDOF 4
ENDMDL
