MODEL 1
REMARK VINA RESULT:      -9.1      0.000      0.000
REMARK  5 active torsions:
REMARK  status: ('A' for Active; 'I' for Inactive)
REMARK    1  A    between atoms: C_2  and  C_3 
REMARK    2  A    between atoms: C_7  and  C_8 
REMARK    3  A    between atoms: C_8  and  N_9 
REMARK       I    between atoms: N_9  and  C_10 
REMARK       I    between atoms: C_10  and  N_11 
REMARK    4  A    between atoms: N_11  and  C_12 
REMARK    5  A    between atoms: C_14  and  C_15 
ROOT
HETATM    1  N   UNL     1       6.580  27.350  54.026  1.00  0.00    -0.333 N 
HETATM    2  C   UNL     1       6.429  25.965  54.058  1.00  0.00     0.322 C 
HETATM    3  N   UNL     1       7.613  25.268  54.003  1.00  0.00    -0.309 N 
HETATM    4  O   UNL     1       5.311  25.455  54.093  1.00  0.00    -0.247 OA
HETATM    5  C   UNL     1       7.773  28.075  54.448  1.00  0.00     0.155 C 
HETATM    6  H   UNL     1       8.407  25.799  53.682  1.00  0.00     0.170 HD
ENDROOT
BRANCH   1   7
HETATM    7  C   UNL     1       5.410  28.153  53.695  1.00  0.00     0.185 C 
BRANCH   7   8
HETATM    8  C   UNL     1       5.279  28.302  52.227  1.00  0.00     0.047 A 
HETATM    9  N   UNL     1       5.762  29.396  51.566  1.00  0.00    -0.280 N 
HETATM   10  N   UNL     1       5.529  29.367  50.243  1.00  0.00    -0.178 NA
HETATM   11  H   UNL     1       6.265  30.187  51.965  1.00  0.00     0.189 HD
HETATM   12  C   UNL     1       4.860  28.223  50.044  1.00  0.00     0.064 A 
HETATM   13  C   UNL     1       4.685  27.519  51.264  1.00  0.00     0.058 A 
BRANCH  12  14
HETATM   14  C   UNL     1       4.371  27.808  48.664  1.00  0.00    -0.005 C 
HETATM   15  C   UNL     1       5.410  28.101  47.561  1.00  0.00     0.021 C 
HETATM   16  C   UNL     1       3.078  28.573  48.317  1.00  0.00     0.021 C 
HETATM   17  C   UNL     1       4.073  26.294  48.644  1.00  0.00     0.021 C 
ENDBRANCH  12  14
ENDBRANCH   7   8
ENDBRANCH   1   7
BRANCH   3  18
HETATM   18  C   UNL     1       7.801  23.871  54.062  1.00  0.00     0.037 A 
HETATM   19  C   UNL     1       7.998  23.158  55.247  1.00  0.00     0.045 A 
HETATM   20  C   UNL     1       8.175  21.761  55.228  1.00  0.00     0.050 A 
HETATM   21  C   UNL     1       8.144  21.085  54.000  1.00  0.00     0.016 A 
HETATM   22  C   UNL     1       7.962  21.791  52.814  1.00  0.00     0.003 A 
HETATM   23  C   UNL     1       7.797  23.176  52.846  1.00  0.00     0.029 A 
BRANCH  20  24
HETATM   24  C   UNL     1       8.350  20.994  56.514  1.00  0.00     0.417 C 
HETATM   25  F   UNL     1       8.277  21.772  57.629  1.00  0.00    -0.166 F 
HETATM   26  F   UNL     1       7.409  20.022  56.670  1.00  0.00    -0.166 F 
HETATM   27  F   UNL     1       9.554  20.358  56.589  1.00  0.00    -0.166 F 
ENDBRANCH  20  24
ENDBRANCH   3  18
TORSDOF 5
ENDMDL
MODEL 2
REMARK VINA RESULT:      -9.0      3.482      6.269
REMARK  5 active torsions:
REMARK  status: ('A' for Active; 'I' for Inactive)
REMARK    1  A    between atoms: C_2  and  C_3 
REMARK    2  A    between atoms: C_7  and  C_8 
REMARK    3  A    between atoms: C_8  and  N_9 
REMARK       I    between atoms: N_9  and  C_10 
REMARK       I    between atoms: C_10  and  N_11 
REMARK    4  A    between atoms: N_11  and  C_12 
REMARK    5  A    between atoms: C_14  and  C_15 
ROOT
HETATM    1  N   UNL     1       6.964  27.453  55.036  1.00  0.00    -0.333 N 
HETATM    2  C   UNL     1       6.995  26.081  55.281  1.00  0.00     0.322 C 
HETATM    3  N   UNL     1       7.520  25.337  54.250  1.00  0.00    -0.309 N 
HETATM    4  O   UNL     1       6.544  25.619  56.326  1.00  0.00    -0.247 OA
HETATM    5  C   UNL     1       7.844  28.162  54.114  1.00  0.00     0.155 C 
HETATM    6  H   UNL     1       7.569  25.810  53.362  1.00  0.00     0.170 HD
ENDROOT
BRANCH   1   7
HETATM    7  C   UNL     1       6.096  28.272  55.872  1.00  0.00     0.185 C 
BRANCH   7   8
HETATM    8  C   UNL     1       6.864  28.876  56.985  1.00  0.00     0.047 A 
HETATM    9  N   UNL     1       7.735  28.144  57.741  1.00  0.00    -0.280 N 
HETATM   10  N   UNL     1       8.320  28.854  58.720  1.00  0.00    -0.178 NA
HETATM   11  H   UNL     1       7.974  27.160  57.630  1.00  0.00     0.189 HD
HETATM   12  C   UNL     1       7.799  30.084  58.602  1.00  0.00     0.064 A 
HETATM   13  C   UNL     1       6.882  30.143  57.520  1.00  0.00     0.058 A 
BRANCH  12  14
HETATM   14  C   UNL     1       8.179  31.212  59.550  1.00  0.00    -0.005 C 
HETATM   15  C   UNL     1       7.058  32.263  59.690  1.00  0.00     0.021 C 
HETATM   16  C   UNL     1       9.442  31.928  59.028  1.00  0.00     0.021 C 
HETATM   17  C   UNL     1       8.474  30.643  60.953  1.00  0.00     0.021 C 
ENDBRANCH  12  14
ENDBRANCH   7   8
ENDBRANCH   1   7
BRANCH   3  18
HETATM   18  C   UNL     1       7.731  23.943  54.206  1.00  0.00     0.037 A 
HETATM   19  C   UNL     1       7.954  23.150  55.334  1.00  0.00     0.045 A 
HETATM   20  C   UNL     1       8.152  21.761  55.212  1.00  0.00     0.050 A 
HETATM   21  C   UNL     1       8.115  21.175  53.939  1.00  0.00     0.016 A 
HETATM   22  C   UNL     1       7.905  21.960  52.809  1.00  0.00     0.003 A 
HETATM   23  C   UNL     1       7.719  23.337  52.943  1.00  0.00     0.029 A 
BRANCH  20  24
HETATM   24  C   UNL     1       8.357  20.906  56.437  1.00  0.00     0.417 C 
HETATM   25  F   UNL     1       7.417  19.933  56.589  1.00  0.00    -0.166 F 
HETATM   26  F   UNL     1       9.561  20.269  56.428  1.00  0.00    -0.166 F 
HETATM   27  F   UNL     1       8.330  21.627  57.594  1.00  0.00    -0.166 F 
ENDBRANCH  20  24
ENDBRANCH   3  18
TORSDOF 5
ENDMDL
MODEL 3
REMARK VINA RESULT:      -8.8      1.698      2.248
REMARK  5 active torsions:
REMARK  status: ('A' for Active; 'I' for Inactive)
REMARK    1  A    between atoms: C_2  and  C_3 
REMARK    2  A    between atoms: C_7  and  C_8 
REMARK    3  A    between atoms: C_8  and  N_9 
REMARK       I    between atoms: N_9  and  C_10 
REMARK       I    between atoms: C_10  and  N_11 
REMARK    4  A    between atoms: N_11  and  C_12 
REMARK    5  A    between atoms: C_14  and  C_15 
ROOT
HETATM    1  N   UNL     1       6.141  27.238  53.659  1.00  0.00    -0.333 N 
HETATM    2  C   UNL     1       6.173  25.941  54.167  1.00  0.00     0.322 C 
HETATM    3  N   UNL     1       7.435  25.402  54.256  1.00  0.00    -0.309 N 
HETATM    4  O   UNL     1       5.133  25.354  54.458  1.00  0.00    -0.247 OA
HETATM    5  C   UNL     1       7.244  28.191  53.718  1.00  0.00     0.155 C 
HETATM    6  H   UNL     1       8.141  25.874  53.715  1.00  0.00     0.170 HD
ENDROOT
BRANCH   1   7
HETATM    7  C   UNL     1       4.865  27.745  53.170  1.00  0.00     0.185 C 
BRANCH   7   8
HETATM    8  C   UNL     1       4.681  27.400  51.742  1.00  0.00     0.047 A 
HETATM    9  N   UNL     1       4.775  26.113  51.292  1.00  0.00    -0.280 N 
HETATM   10  N   UNL     1       4.603  25.998  49.964  1.00  0.00    -0.178 NA
HETATM   11  H   UNL     1       4.947  25.276  51.845  1.00  0.00     0.189 HD
HETATM   12  C   UNL     1       4.406  27.254  49.539  1.00  0.00     0.064 A 
HETATM   13  C   UNL     1       4.442  28.167  50.625  1.00  0.00     0.058 A 
BRANCH  12  14
HETATM   14  C   UNL     1       4.193  27.580  48.068  1.00  0.00    -0.005 C 
HETATM   15  C   UNL     1       5.521  27.845  47.327  1.00  0.00     0.021 C 
HETATM   16  C   UNL     1       3.313  28.840  47.935  1.00  0.00     0.021 C 
HETATM   17  C   UNL     1       3.486  26.402  47.365  1.00  0.00     0.021 C 
ENDBRANCH  12  14
ENDBRANCH   7   8
ENDBRANCH   1   7
BRANCH   3  18
HETATM   18  C   UNL     1       7.806  24.140  54.766  1.00  0.00     0.037 A 
HETATM   19  C   UNL     1       7.896  22.980  53.993  1.00  0.00     0.045 A 
HETATM   20  C   UNL     1       8.278  21.754  54.573  1.00  0.00     0.050 A 
HETATM   21  C   UNL     1       8.575  21.709  55.942  1.00  0.00     0.016 A 
HETATM   22  C   UNL     1       8.475  22.858  56.721  1.00  0.00     0.003 A 
HETATM   23  C   UNL     1       8.088  24.065  56.136  1.00  0.00     0.029 A 
BRANCH  20  24
HETATM   24  C   UNL     1       8.407  20.514  53.725  1.00  0.00     0.417 C 
HETATM   25  F   UNL     1       7.275  20.202  53.037  1.00  0.00    -0.166 F 
HETATM   26  F   UNL     1       9.396  20.625  52.794  1.00  0.00    -0.166 F 
HETATM   27  F   UNL     1       8.711  19.404  54.456  1.00  0.00    -0.166 F 
ENDBRANCH  20  24
ENDBRANCH   3  18
TORSDOF 5
ENDMDL
MODEL 4
REMARK VINA RESULT:      -8.8      5.410      8.758
REMARK  5 active torsions:
REMARK  status: ('A' for Active; 'I' for Inactive)
REMARK    1  A    between atoms: C_2  and  C_3 
REMARK    2  A    between atoms: C_7  and  C_8 
REMARK    3  A    between atoms: C_8  and  N_9 
REMARK       I    between atoms: N_9  and  C_10 
REMARK       I    between atoms: C_10  and  N_11 
REMARK    4  A    between atoms: N_11  and  C_12 
REMARK    5  A    between atoms: C_14  and  C_15 
ROOT
HETATM    1  N   UNL     1       6.633  27.789  55.872  1.00  0.00    -0.333 N 
HETATM    2  C   UNL     1       6.335  28.594  56.971  1.00  0.00     0.322 C 
HETATM    3  N   UNL     1       7.391  29.357  57.412  1.00  0.00    -0.309 N 
HETATM    4  O   UNL     1       5.223  28.561  57.492  1.00  0.00    -0.247 OA
HETATM    5  C   UNL     1       7.687  28.052  54.900  1.00  0.00     0.155 C 
HETATM    6  H   UNL     1       8.297  29.063  57.084  1.00  0.00     0.170 HD
ENDROOT
BRANCH   1   7
HETATM    7  C   UNL     1       5.730  26.684  55.576  1.00  0.00     0.185 C 
BRANCH   7   8
HETATM    8  C   UNL     1       6.446  25.390  55.659  1.00  0.00     0.047 A 
HETATM    9  N   UNL     1       7.027  24.959  56.818  1.00  0.00    -0.280 N 
HETATM   10  N   UNL     1       7.651  23.776  56.695  1.00  0.00    -0.178 NA
HETATM   11  H   UNL     1       7.022  25.427  57.723  1.00  0.00     0.189 HD
HETATM   12  C   UNL     1       7.481  23.437  55.409  1.00  0.00     0.064 A 
HETATM   13  C   UNL     1       6.724  24.422  54.722  1.00  0.00     0.058 A 
BRANCH  12  14
HETATM   14  C   UNL     1       8.065  22.156  54.832  1.00  0.00    -0.005 C 
HETATM   15  C   UNL     1       7.662  21.940  53.357  1.00  0.00     0.021 C 
HETATM   16  C   UNL     1       7.567  20.943  55.645  1.00  0.00     0.021 C 
HETATM   17  C   UNL     1       9.606  22.202  54.901  1.00  0.00     0.021 C 
ENDBRANCH  12  14
ENDBRANCH   7   8
ENDBRANCH   1   7
BRANCH   3  18
HETATM   18  C   UNL     1       7.402  30.299  58.462  1.00  0.00     0.037 A 
HETATM   19  C   UNL     1       8.279  30.250  59.548  1.00  0.00     0.045 A 
HETATM   20  C   UNL     1       8.234  31.230  60.558  1.00  0.00     0.050 A 
HETATM   21  C   UNL     1       7.297  32.268  60.460  1.00  0.00     0.016 A 
HETATM   22  C   UNL     1       6.411  32.318  59.387  1.00  0.00     0.003 A 
HETATM   23  C   UNL     1       6.461  31.335  58.398  1.00  0.00     0.029 A 
BRANCH  20  24
HETATM   24  C   UNL     1       9.208  31.189  61.708  1.00  0.00     0.417 C 
HETATM   25  F   UNL     1       9.777  29.967  61.900  1.00  0.00    -0.166 F 
HETATM   26  F   UNL     1      10.239  32.064  61.545  1.00  0.00    -0.166 F 
HETATM   27  F   UNL     1       8.631  31.517  62.900  1.00  0.00    -0.166 F 
ENDBRANCH  20  24
ENDBRANCH   3  18
TORSDOF 5
ENDMDL
MODEL 5
REMARK VINA RESULT:      -8.7      4.637      7.841
REMARK  5 active torsions:
REMARK  status: ('A' for Active; 'I' for Inactive)
REMARK    1  A    between atoms: C_2  and  C_3 
REMARK    2  A    between atoms: C_7  and  C_8 
REMARK    3  A    between atoms: C_8  and  N_9 
REMARK       I    between atoms: N_9  and  C_10 
REMARK       I    between atoms: C_10  and  N_11 
REMARK    4  A    between atoms: N_11  and  C_12 
REMARK    5  A    between atoms: C_14  and  C_15 
ROOT
HETATM    1  N   UNL     1       6.252  27.232  54.556  1.00  0.00    -0.333 N 
HETATM    2  C   UNL     1       6.891  27.708  55.699  1.00  0.00     0.322 C 
HETATM    3  N   UNL     1       7.915  28.591  55.445  1.00  0.00    -0.309 N 
HETATM    4  O   UNL     1       6.561  27.313  56.815  1.00  0.00    -0.247 OA
HETATM    5  C   UNL     1       6.202  27.923  53.272  1.00  0.00     0.155 C 
HETATM    6  H   UNL     1       8.257  28.588  54.498  1.00  0.00     0.170 HD
ENDROOT
BRANCH   1   7
HETATM    7  C   UNL     1       5.438  26.030  54.683  1.00  0.00     0.185 C 
BRANCH   7   8
HETATM    8  C   UNL     1       6.224  24.828  54.324  1.00  0.00     0.047 A 
HETATM    9  N   UNL     1       6.436  24.465  53.024  1.00  0.00    -0.280 N 
HETATM   10  N   UNL     1       7.150  23.334  52.894  1.00  0.00    -0.178 NA
HETATM   11  H   UNL     1       6.123  24.954  52.187  1.00  0.00     0.189 HD
HETATM   12  C   UNL     1       7.396  22.945  54.153  1.00  0.00     0.064 A 
HETATM   13  C   UNL     1       6.837  23.858  55.084  1.00  0.00     0.058 A 
BRANCH  12  14
HETATM   14  C   UNL     1       8.169  21.671  54.463  1.00  0.00    -0.005 C 
HETATM   15  C   UNL     1       7.597  20.921  55.685  1.00  0.00     0.021 C 
HETATM   16  C   UNL     1       9.643  22.015  54.761  1.00  0.00     0.021 C 
HETATM   17  C   UNL     1       8.116  20.716  53.252  1.00  0.00     0.021 C 
ENDBRANCH  12  14
ENDBRANCH   7   8
ENDBRANCH   1   7
BRANCH   3  18
HETATM   18  C   UNL     1       8.719  29.279  56.379  1.00  0.00     0.037 A 
HETATM   19  C   UNL     1       8.235  29.843  57.562  1.00  0.00     0.045 A 
HETATM   20  C   UNL     1       9.100  30.512  58.449  1.00  0.00     0.050 A 
HETATM   21  C   UNL     1      10.464  30.601  58.136  1.00  0.00     0.016 A 
HETATM   22  C   UNL     1      10.951  30.053  56.953  1.00  0.00     0.003 A 
HETATM   23  C   UNL     1      10.081  29.400  56.078  1.00  0.00     0.029 A 
BRANCH  20  24
HETATM   24  C   UNL     1       8.577  31.087  59.741  1.00  0.00     0.417 C 
HETATM   25  F   UNL     1       9.010  32.353  59.991  1.00  0.00    -0.166 F 
HETATM   26  F   UNL     1       7.216  31.141  59.770  1.00  0.00    -0.166 F 
HETATM   27  F   UNL     1       8.940  30.353  60.831  1.00  0.00    -0.166 F 
ENDBRANCH  20  24
ENDBRANCH   3  18
TORSDOF 5
ENDMDL
MODEL 6
REMARK VINA RESULT:      -8.2      4.193      8.065
REMARK  5 active torsions:
REMARK  status: ('A' for Active; 'I' for Inactive)
REMARK    1  A    between atoms: C_2  and  C_3 
REMARK    2  A    between atoms: C_7  and  C_8 
REMARK    3  A    between atoms: C_8  and  N_9 
REMARK       I    between atoms: N_9  and  C_10 
REMARK       I    between atoms: C_10  and  N_11 
REMARK    4  A    between atoms: N_11  and  C_12 
REMARK    5  A    between atoms: C_14  and  C_15 
ROOT
HETATM    1  N   UNL     1       6.246  26.898  53.672  1.00  0.00    -0.333 N 
HETATM    2  C   UNL     1       5.515  26.656  52.511  1.00  0.00     0.322 C 
HETATM    3  N   UNL     1       5.783  27.531  51.483  1.00  0.00    -0.309 N 
HETATM    4  O   UNL     1       4.684  25.751  52.468  1.00  0.00    -0.247 OA
HETATM    5  C   UNL     1       7.535  27.579  53.726  1.00  0.00     0.155 C 
HETATM    6  H   UNL     1       6.251  28.380  51.756  1.00  0.00     0.170 HD
ENDROOT
BRANCH   1   7
HETATM    7  C   UNL     1       5.773  26.295  54.911  1.00  0.00     0.185 C 
BRANCH   7   8
HETATM    8  C   UNL     1       6.489  25.027  55.179  1.00  0.00     0.047 A 
HETATM    9  N   UNL     1       7.011  24.738  56.409  1.00  0.00    -0.280 N 
HETATM   10  N   UNL     1       7.646  23.555  56.456  1.00  0.00    -0.178 NA
HETATM   11  H   UNL     1       6.958  25.308  57.252  1.00  0.00     0.189 HD
HETATM   12  C   UNL     1       7.545  23.069  55.211  1.00  0.00     0.064 A 
HETATM   13  C   UNL     1       6.820  23.960  54.376  1.00  0.00     0.058 A 
BRANCH  12  14
HETATM   14  C   UNL     1       8.163  21.736  54.816  1.00  0.00    -0.005 C 
HETATM   15  C   UNL     1       7.665  20.573  55.701  1.00  0.00     0.021 C 
HETATM   16  C   UNL     1       9.698  21.813  54.951  1.00  0.00     0.021 C 
HETATM   17  C   UNL     1       7.809  21.404  53.352  1.00  0.00     0.021 C 
ENDBRANCH  12  14
ENDBRANCH   7   8
ENDBRANCH   1   7
BRANCH   3  18
HETATM   18  C   UNL     1       5.248  27.526  50.178  1.00  0.00     0.037 A 
HETATM   19  C   UNL     1       4.389  26.538  49.688  1.00  0.00     0.045 A 
HETATM   20  C   UNL     1       3.891  26.603  48.373  1.00  0.00     0.050 A 
HETATM   21  C   UNL     1       4.262  27.678  47.554  1.00  0.00     0.016 A 
HETATM   22  C   UNL     1       5.128  28.659  48.030  1.00  0.00     0.003 A 
HETATM   23  C   UNL     1       5.621  28.579  49.333  1.00  0.00     0.029 A 
BRANCH  20  24
HETATM   24  C   UNL     1       2.937  25.553  47.863  1.00  0.00     0.417 C 
HETATM   25  F   UNL     1       2.963  24.396  48.581  1.00  0.00    -0.166 F 
HETATM   26  F   UNL     1       1.643  25.978  47.880  1.00  0.00    -0.166 F 
HETATM   27  F   UNL     1       3.190  25.190  46.573  1.00  0.00    -0.166 F 
ENDBRANCH  20  24
ENDBRANCH   3  18
TORSDOF 5
ENDMDL
MODEL 7
REMARK VINA RESULT:      -8.2      1.738      2.461
REMARK  5 active torsions:
REMARK  status: ('A' for Active; 'I' for Inactive)
REMARK    1  A    between atoms: C_2  and  C_3 
REMARK    2  A    between atoms: C_7  and  C_8 
REMARK    3  A    between atoms: C_8  and  N_9 
REMARK       I    between atoms: N_9  and  C_10 
REMARK       I    between atoms: C_10  and  N_11 
REMARK    4  A    between atoms: N_11  and  C_12 
REMARK    5  A    between atoms: C_14  and  C_15 
ROOT
HETATM    1  N   UNL     1       5.939  28.175  55.084  1.00  0.00    -0.333 N 
HETATM    2  C   UNL     1       6.022  26.785  55.131  1.00  0.00     0.322 C 
HETATM    3  N   UNL     1       7.283  26.305  55.400  1.00  0.00    -0.309 N 
HETATM    4  O   UNL     1       5.035  26.088  54.906  1.00  0.00    -0.247 OA
HETATM    5  C   UNL     1       6.846  29.094  55.762  1.00  0.00     0.155 C 
HETATM    6  H   UNL     1       8.029  26.967  55.267  1.00  0.00     0.170 HD
ENDROOT
BRANCH   1   7
HETATM    7  C   UNL     1       4.771  28.765  54.441  1.00  0.00     0.185 C 
BRANCH   7   8
HETATM    8  C   UNL     1       4.898  28.694  52.967  1.00  0.00     0.047 A 
HETATM    9  N   UNL     1       5.807  29.451  52.283  1.00  0.00    -0.280 N 
HETATM   10  N   UNL     1       5.759  29.272  50.953  1.00  0.00    -0.178 NA
HETATM   11  H   UNL     1       6.488  30.101  52.673  1.00  0.00     0.189 HD
HETATM   12  C   UNL     1       4.776  28.379  50.769  1.00  0.00     0.064 A 
HETATM   13  C   UNL     1       4.210  27.985  52.010  1.00  0.00     0.058 A 
BRANCH  12  14
HETATM   14  C   UNL     1       4.367  27.909  49.380  1.00  0.00    -0.005 C 
HETATM   15  C   UNL     1       2.937  28.355  49.007  1.00  0.00     0.021 C 
HETATM   16  C   UNL     1       4.418  26.369  49.315  1.00  0.00     0.021 C 
HETATM   17  C   UNL     1       5.334  28.485  48.324  1.00  0.00     0.021 C 
ENDBRANCH  12  14
ENDBRANCH   7   8
ENDBRANCH   1   7
BRANCH   3  18
HETATM   18  C   UNL     1       7.684  24.962  55.558  1.00  0.00     0.037 A 
HETATM   19  C   UNL     1       7.721  24.029  54.518  1.00  0.00     0.045 A 
HETATM   20  C   UNL     1       8.138  22.705  54.752  1.00  0.00     0.050 A 
HETATM   21  C   UNL     1       8.526  22.328  56.045  1.00  0.00     0.016 A 
HETATM   22  C   UNL     1       8.480  23.248  57.089  1.00  0.00     0.003 A 
HETATM   23  C   UNL     1       8.056  24.556  56.846  1.00  0.00     0.029 A 
BRANCH  20  24
HETATM   24  C   UNL     1       8.209  21.714  53.618  1.00  0.00     0.417 C 
HETATM   25  F   UNL     1       9.471  21.275  53.353  1.00  0.00    -0.166 F 
HETATM   26  F   UNL     1       7.465  20.598  53.857  1.00  0.00    -0.166 F 
HETATM   27  F   UNL     1       7.744  22.223  52.442  1.00  0.00    -0.166 F 
ENDBRANCH  20  24
ENDBRANCH   3  18
TORSDOF 5
ENDMDL
MODEL 8
REMARK VINA RESULT:      -8.0      7.266      9.860
REMARK  5 active torsions:
REMARK  status: ('A' for Active; 'I' for Inactive)
REMARK    1  A    between atoms: C_2  and  C_3 
REMARK    2  A    between atoms: C_7  and  C_8 
REMARK    3  A    between atoms: C_8  and  N_9 
REMARK       I    between atoms: N_9  and  C_10 
REMARK       I    between atoms: C_10  and  N_11 
REMARK    4  A    between atoms: N_11  and  C_12 
REMARK    5  A    between atoms: C_14  and  C_15 
ROOT
HETATM    1  N   UNL     1       7.124  29.727  57.269  1.00  0.00    -0.333 N 
HETATM    2  C   UNL     1       7.780  30.228  58.392  1.00  0.00     0.322 C 
HETATM    3  N   UNL     1       6.960  30.896  59.272  1.00  0.00    -0.309 N 
HETATM    4  O   UNL     1       8.994  30.095  58.522  1.00  0.00    -0.247 OA
HETATM    5  C   UNL     1       5.704  29.398  57.203  1.00  0.00     0.155 C 
HETATM    6  H   UNL     1       6.069  31.178  58.896  1.00  0.00     0.170 HD
ENDROOT
BRANCH   1   7
HETATM    7  C   UNL     1       7.935  29.355  56.118  1.00  0.00     0.185 C 
BRANCH   7   8
HETATM    8  C   UNL     1       7.717  27.933  55.765  1.00  0.00     0.047 A 
HETATM    9  N   UNL     1       7.964  26.923  56.652  1.00  0.00    -0.280 N 
HETATM   10  N   UNL     1       7.732  25.700  56.146  1.00  0.00    -0.178 NA
HETATM   11  H   UNL     1       8.284  27.010  57.615  1.00  0.00     0.189 HD
HETATM   12  C   UNL     1       7.336  25.926  54.886  1.00  0.00     0.064 A 
HETATM   13  C   UNL     1       7.307  27.317  54.605  1.00  0.00     0.058 A 
BRANCH  12  14
HETATM   14  C   UNL     1       6.993  24.788  53.936  1.00  0.00    -0.005 C 
HETATM   15  C   UNL     1       7.233  23.401  54.569  1.00  0.00     0.021 C 
HETATM   16  C   UNL     1       7.863  24.888  52.666  1.00  0.00     0.021 C 
HETATM   17  C   UNL     1       5.507  24.872  53.528  1.00  0.00     0.021 C 
ENDBRANCH  12  14
ENDBRANCH   7   8
ENDBRANCH   1   7
BRANCH   3  18
HETATM   18  C   UNL     1       7.306  31.474  60.512  1.00  0.00     0.037 A 
HETATM   19  C   UNL     1       6.633  32.556  61.085  1.00  0.00     0.045 A 
HETATM   20  C   UNL     1       7.033  33.077  62.330  1.00  0.00     0.050 A 
HETATM   21  C   UNL     1       8.118  32.492  62.999  1.00  0.00     0.016 A 
HETATM   22  C   UNL     1       8.802  31.423  62.428  1.00  0.00     0.003 A 
HETATM   23  C   UNL     1       8.400  30.921  61.189  1.00  0.00     0.029 A 
BRANCH  20  24
HETATM   24  C   UNL     1       6.279  34.221  62.959  1.00  0.00     0.417 C 
HETATM   25  F   UNL     1       6.297  35.362  62.216  1.00  0.00    -0.166 F 
HETATM   26  F   UNL     1       4.966  33.926  63.164  1.00  0.00    -0.166 F 
HETATM   27  F   UNL     1       6.774  34.571  64.181  1.00  0.00    -0.166 F 
ENDBRANCH  20  24
ENDBRANCH   3  18
TORSDOF 5
ENDMDL
MODEL 9
REMARK VINA RESULT:      -7.8      4.920      6.936
REMARK  5 active torsions:
REMARK  status: ('A' for Active; 'I' for Inactive)
REMARK    1  A    between atoms: C_2  and  C_3 
REMARK    2  A    between atoms: C_7  and  C_8 
REMARK    3  A    between atoms: C_8  and  N_9 
REMARK       I    between atoms: N_9  and  C_10 
REMARK       I    between atoms: C_10  and  N_11 
REMARK    4  A    between atoms: N_11  and  C_12 
REMARK    5  A    between atoms: C_14  and  C_15 
ROOT
HETATM    1  N   UNL     1       7.595  26.423  56.795  1.00  0.00    -0.333 N 
HETATM    2  C   UNL     1       7.712  25.283  56.002  1.00  0.00     0.322 C 
HETATM    3  N   UNL     1       8.002  24.136  56.704  1.00  0.00    -0.309 N 
HETATM    4  O   UNL     1       7.598  25.352  54.780  1.00  0.00    -0.247 OA
HETATM    5  C   UNL     1       7.243  26.428  58.211  1.00  0.00     0.155 C 
HETATM    6  H   UNL     1       8.354  24.283  57.636  1.00  0.00     0.170 HD
ENDROOT
BRANCH   1   7
HETATM    7  C   UNL     1       7.675  27.720  56.136  1.00  0.00     0.185 C 
BRANCH   7   8
HETATM    8  C   UNL     1       8.238  28.736  57.054  1.00  0.00     0.047 A 
HETATM    9  N   UNL     1       9.567  29.053  57.052  1.00  0.00    -0.280 N 
HETATM   10  N   UNL     1       9.898  29.978  57.969  1.00  0.00    -0.178 NA
HETATM   11  H   UNL     1      10.292  28.677  56.443  1.00  0.00     0.189 HD
HETATM   12  C   UNL     1       8.746  30.258  58.595  1.00  0.00     0.064 A 
HETATM   13  C   UNL     1       7.676  29.503  58.048  1.00  0.00     0.058 A 
BRANCH  12  14
HETATM   14  C   UNL     1       8.677  31.254  59.743  1.00  0.00    -0.005 C 
HETATM   15  C   UNL     1       8.798  30.571  61.122  1.00  0.00     0.021 C 
HETATM   16  C   UNL     1       7.331  32.006  59.701  1.00  0.00     0.021 C 
HETATM   17  C   UNL     1       9.824  32.279  59.620  1.00  0.00     0.021 C 
ENDBRANCH  12  14
ENDBRANCH   7   8
ENDBRANCH   1   7
BRANCH   3  18
HETATM   18  C   UNL     1       8.138  22.824  56.204  1.00  0.00     0.037 A 
HETATM   19  C   UNL     1       8.058  22.491  54.849  1.00  0.00     0.045 A 
HETATM   20  C   UNL     1       8.208  21.157  54.424  1.00  0.00     0.050 A 
HETATM   21  C   UNL     1       8.448  20.158  55.379  1.00  0.00     0.016 A 
HETATM   22  C   UNL     1       8.516  20.480  56.731  1.00  0.00     0.003 A 
HETATM   23  C   UNL     1       8.357  21.805  57.140  1.00  0.00     0.029 A 
BRANCH  20  24
HETATM   24  C   UNL     1       8.156  20.810  52.958  1.00  0.00     0.417 C 
HETATM   25  F   UNL     1       8.177  21.898  52.138  1.00  0.00    -0.166 F 
HETATM   26  F   UNL     1       9.202  20.028  52.573  1.00  0.00    -0.166 F 
HETATM   27  F   UNL     1       7.032  20.117  52.619  1.00  0.00    -0.166 F 
ENDBRANCH  20  24
ENDBRANCH   3  18
TORSDOF 5
ENDMDL
MODEL 10
REMARK VINA RESULT:      -7.8      4.036      6.100
REMARK  5 active torsions:
REMARK  status: ('A' for Active; 'I' for Inactive)
REMARK    1  A    between atoms: C_2  and  C_3 
REMARK    2  A    between atoms: C_7  and  C_8 
REMARK    3  A    between atoms: C_8  and  N_9 
REMARK       I    between atoms: N_9  and  C_10 
REMARK       I    between atoms: C_10  and  N_11 
REMARK    4  A    between atoms: N_11  and  C_12 
REMARK    5  A    between atoms: C_14  and  C_15 
ROOT
HETATM    1  N   UNL     1       7.098  27.990  56.343  1.00  0.00    -0.333 N 
HETATM    2  C   UNL     1       6.967  26.821  55.596  1.00  0.00     0.322 C 
HETATM    3  N   UNL     1       7.809  25.806  55.988  1.00  0.00    -0.309 N 
HETATM    4  O   UNL     1       6.181  26.761  54.654  1.00  0.00    -0.247 OA
HETATM    5  C   UNL     1       7.601  28.063  57.710  1.00  0.00     0.155 C 
HETATM    6  H   UNL     1       8.586  26.092  56.562  1.00  0.00     0.170 HD
ENDROOT
BRANCH   1   7
HETATM    7  C   UNL     1       6.550  29.219  55.782  1.00  0.00     0.185 C 
BRANCH   7   8
HETATM    8  C   UNL     1       5.731  29.931  56.789  1.00  0.00     0.047 A 
HETATM    9  N   UNL     1       4.463  29.531  57.103  1.00  0.00    -0.280 N 
HETATM   10  N   UNL     1       3.867  30.313  58.019  1.00  0.00    -0.178 NA
HETATM   11  H   UNL     1       3.957  28.730  56.729  1.00  0.00     0.189 HD
HETATM   12  C   UNL     1       4.775  31.259  58.297  1.00  0.00     0.064 A 
HETATM   13  C   UNL     1       5.964  31.054  57.550  1.00  0.00     0.058 A 
BRANCH  12  14
HETATM   14  C   UNL     1       4.490  32.381  59.285  1.00  0.00    -0.005 C 
HETATM   15  C   UNL     1       3.328  32.039  60.241  1.00  0.00     0.021 C 
HETATM   16  C   UNL     1       4.115  33.666  58.519  1.00  0.00     0.021 C 
HETATM   17  C   UNL     1       5.743  32.659  60.141  1.00  0.00     0.021 C 
ENDBRANCH  12  14
ENDBRANCH   7   8
ENDBRANCH   1   7
BRANCH   3  18
HETATM   18  C   UNL     1       7.889  24.496  55.470  1.00  0.00     0.037 A 
HETATM   19  C   UNL     1       8.082  23.356  56.253  1.00  0.00     0.045 A 
HETATM   20  C   UNL     1       8.147  22.078  55.664  1.00  0.00     0.050 A 
HETATM   21  C   UNL     1       8.007  21.959  54.275  1.00  0.00     0.016 A 
HETATM   22  C   UNL     1       7.827  23.092  53.486  1.00  0.00     0.003 A 
HETATM   23  C   UNL     1       7.774  24.353  54.081  1.00  0.00     0.029 A 
BRANCH  20  24
HETATM   24  C   UNL     1       8.320  20.849  56.520  1.00  0.00     0.417 C 
HETATM   25  F   UNL     1       7.366  19.900  56.312  1.00  0.00    -0.166 F 
HETATM   26  F   UNL     1       9.516  20.234  56.307  1.00  0.00    -0.166 F 
HETATM   27  F   UNL     1       8.279  21.125  57.855  1.00  0.00    -0.166 F 
ENDBRANCH  20  24
ENDBRANCH   3  18
TORSDOF 5
ENDMDL
