MODEL 1
REMARK VINA RESULT:      -9.2      0.000      0.000
REMARK  5 active torsions:
REMARK  status: ('A' for Active; 'I' for Inactive)
REMARK    1  A    between atoms: C_4  and  O_5 
REMARK    2  A    between atoms: O_5  and  C_6 
REMARK    3  A    between atoms: C_6  and  C_7 
REMARK       I    between atoms: C_7  and  N_8 
REMARK    4  A    between atoms: N_8  and  N_9 
REMARK    5  A    between atoms: C_10  and  C_11 
ROOT
HETATM    1  C   UNL     1       6.182  28.119  55.920  1.00  0.00     0.261 C 
HETATM    2  N   UNL     1       6.546  26.832  56.304  1.00  0.00    -0.246 N 
HETATM    3  O   UNL     1       5.798  28.465  54.805  1.00  0.00    -0.269 OA
HETATM    4  H   UNL     1       7.073  26.747  57.172  1.00  0.00     0.192 HD
ENDROOT
BRANCH   2   5
HETATM    5  N   UNL     1       6.602  25.718  55.498  1.00  0.00    -0.184 NA
HETATM    6  C   UNL     1       7.755  25.187  55.241  1.00  0.00     0.153 C 
BRANCH   6   7
HETATM    7  C   UNL     1       7.856  23.990  54.423  1.00  0.00     0.018 A 
HETATM    8  C   UNL     1       8.054  22.660  54.927  1.00  0.00     0.004 A 
HETATM    9  C   UNL     1       8.110  21.799  53.832  1.00  0.00     0.043 A 
HETATM   10  C   UNL     1       8.178  22.107  56.221  1.00  0.00     0.014 A 
HETATM   11  C   UNL     1       8.295  20.417  53.962  1.00  0.00     0.030 A 
HETATM   12  N   UNL     1       7.951  22.571  52.706  1.00  0.00    -0.358 N 
HETATM   13  C   UNL     1       8.419  19.897  55.252  1.00  0.00     0.002 A 
HETATM   14  C   UNL     1       8.360  20.728  56.369  1.00  0.00     0.001 A 
HETATM   15  H   UNL     1       7.951  22.206  51.765  1.00  0.00     0.166 HD
HETATM   16  C   UNL     1       7.798  23.895  53.039  1.00  0.00     0.018 A 
HETATM   17  C   UNL     1       7.623  24.936  51.991  1.00  0.00     0.069 C 
ENDBRANCH   6   7
ENDBRANCH   2   5
BRANCH   1  18
HETATM   18  C   UNL     1       6.202  29.107  57.082  1.00  0.00     0.280 C 
BRANCH  18  19
HETATM   19  O   UNL     1       7.134  28.714  58.086  1.00  0.00    -0.342 OA
BRANCH  19  20
HETATM   20  C   UNL     1       8.143  29.615  58.307  1.00  0.00     0.069 A 
HETATM   21  C   UNL     1       8.215  30.482  59.402  1.00  0.00     0.043 A 
HETATM   22  C   UNL     1       9.285  31.379  59.533  1.00  0.00    -0.059 A 
HETATM   23  C   UNL     1       9.372  32.295  60.719  1.00  0.00     0.048 C 
HETATM   24  C   UNL     1      10.302  31.374  58.571  1.00  0.00     0.007 A 
HETATM   25  C   UNL     1      10.244  30.495  57.490  1.00  0.00     0.003 A 
HETATM   26  C   UNL     1       9.170  29.614  57.363  1.00  0.00     0.037 A 
ENDBRANCH  19  20
ENDBRANCH  18  19
ENDBRANCH   1  18
TORSDOF 5
ENDMDL
MODEL 2
REMARK VINA RESULT:      -9.1      1.462      2.089
REMARK  5 active torsions:
REMARK  status: ('A' for Active; 'I' for Inactive)
REMARK    1  A    between atoms: C_4  and  O_5 
REMARK    2  A    between atoms: O_5  and  C_6 
REMARK    3  A    between atoms: C_6  and  C_7 
REMARK       I    between atoms: C_7  and  N_8 
REMARK    4  A    between atoms: N_8  and  N_9 
REMARK    5  A    between atoms: C_10  and  C_11 
ROOT
HETATM    1  C   UNL     1       8.066  28.075  56.991  1.00  0.00     0.261 C 
HETATM    2  N   UNL     1       7.974  26.716  57.278  1.00  0.00    -0.246 N 
HETATM    3  O   UNL     1       8.384  28.570  55.912  1.00  0.00    -0.269 OA
HETATM    4  H   UNL     1       7.945  26.460  58.264  1.00  0.00     0.192 HD
ENDROOT
BRANCH   2   5
HETATM    5  N   UNL     1       8.277  25.674  56.433  1.00  0.00    -0.184 NA
HETATM    6  C   UNL     1       7.366  25.240  55.621  1.00  0.00     0.153 C 
BRANCH   6   7
HETATM    7  C   UNL     1       7.654  24.163  54.688  1.00  0.00     0.018 A 
HETATM    8  C   UNL     1       7.899  22.796  55.054  1.00  0.00     0.004 A 
HETATM    9  C   UNL     1       8.147  22.085  53.882  1.00  0.00     0.043 A 
HETATM   10  C   UNL     1       7.921  22.096  56.281  1.00  0.00     0.014 A 
HETATM   11  C   UNL     1       8.425  20.712  53.872  1.00  0.00     0.030 A 
HETATM   12  N   UNL     1       8.055  22.979  52.842  1.00  0.00    -0.358 N 
HETATM   13  C   UNL     1       8.445  20.044  55.099  1.00  0.00     0.002 A 
HETATM   14  C   UNL     1       8.194  20.724  56.288  1.00  0.00     0.001 A 
HETATM   15  H   UNL     1       8.189  22.734  51.872  1.00  0.00     0.166 HD
HETATM   16  C   UNL     1       7.760  24.238  53.306  1.00  0.00     0.018 A 
HETATM   17  C   UNL     1       7.622  25.387  52.372  1.00  0.00     0.069 C 
ENDBRANCH   6   7
ENDBRANCH   2   5
BRANCH   1  18
HETATM   18  C   UNL     1       7.620  28.954  58.155  1.00  0.00     0.280 C 
BRANCH  18  19
HETATM   19  O   UNL     1       8.732  29.566  58.803  1.00  0.00    -0.342 OA
BRANCH  19  20
HETATM   20  C   UNL     1       8.395  30.515  59.732  1.00  0.00     0.069 A 
HETATM   21  C   UNL     1       7.242  31.306  59.685  1.00  0.00     0.043 A 
HETATM   22  C   UNL     1       6.992  32.263  60.679  1.00  0.00    -0.059 A 
HETATM   23  C   UNL     1       5.745  33.097  60.639  1.00  0.00     0.048 C 
HETATM   24  C   UNL     1       7.893  32.395  61.742  1.00  0.00     0.007 A 
HETATM   25  C   UNL     1       9.032  31.592  61.803  1.00  0.00     0.003 A 
HETATM   26  C   UNL     1       9.278  30.651  60.803  1.00  0.00     0.037 A 
ENDBRANCH  19  20
ENDBRANCH  18  19
ENDBRANCH   1  18
TORSDOF 5
ENDMDL
MODEL 3
REMARK VINA RESULT:      -8.9      2.364      9.456
REMARK  5 active torsions:
REMARK  status: ('A' for Active; 'I' for Inactive)
REMARK    1  A    between atoms: C_4  and  O_5 
REMARK    2  A    between atoms: O_5  and  C_6 
REMARK    3  A    between atoms: C_6  and  C_7 
REMARK       I    between atoms: C_7  and  N_8 
REMARK    4  A    between atoms: N_8  and  N_9 
REMARK    5  A    between atoms: C_10  and  C_11 
ROOT
HETATM    1  C   UNL     1       7.559  26.002  57.234  1.00  0.00     0.261 C 
HETATM    2  N   UNL     1       8.228  27.206  57.434  1.00  0.00    -0.246 N 
HETATM    3  O   UNL     1       6.465  25.692  57.699  1.00  0.00    -0.269 OA
HETATM    4  H   UNL     1       9.218  27.222  57.197  1.00  0.00     0.192 HD
ENDROOT
BRANCH   2   5
HETATM    5  N   UNL     1       7.822  28.249  58.234  1.00  0.00    -0.184 NA
HETATM    6  C   UNL     1       7.852  29.453  57.757  1.00  0.00     0.153 C 
BRANCH   6   7
HETATM    7  C   UNL     1       7.400  30.581  58.556  1.00  0.00     0.018 A 
HETATM    8  C   UNL     1       7.971  30.985  59.810  1.00  0.00     0.004 A 
HETATM    9  C   UNL     1       7.254  32.092  60.261  1.00  0.00     0.043 A 
HETATM   10  C   UNL     1       9.044  30.515  60.600  1.00  0.00     0.014 A 
HETATM   11  C   UNL     1       7.546  32.747  61.464  1.00  0.00     0.030 A 
HETATM   12  N   UNL     1       6.287  32.354  59.321  1.00  0.00    -0.358 N 
HETATM   13  C   UNL     1       8.610  32.259  62.228  1.00  0.00     0.002 A 
HETATM   14  C   UNL     1       9.352  31.159  61.803  1.00  0.00     0.001 A 
HETATM   15  H   UNL     1       5.619  33.108  59.391  1.00  0.00     0.166 HD
HETATM   16  C   UNL     1       6.356  31.454  58.285  1.00  0.00     0.018 A 
HETATM   17  C   UNL     1       5.403  31.520  57.146  1.00  0.00     0.069 C 
ENDBRANCH   6   7
ENDBRANCH   2   5
BRANCH   1  18
HETATM   18  C   UNL     1       8.283  25.082  56.257  1.00  0.00     0.280 C 
BRANCH  18  19
HETATM   19  O   UNL     1       7.364  24.310  55.489  1.00  0.00    -0.342 OA
BRANCH  19  20
HETATM   20  C   UNL     1       7.724  22.998  55.325  1.00  0.00     0.069 A 
HETATM   21  C   UNL     1       7.831  22.346  54.092  1.00  0.00     0.043 A 
HETATM   22  C   UNL     1       8.194  20.993  54.028  1.00  0.00    -0.059 A 
HETATM   23  C   UNL     1       8.328  20.300  52.703  1.00  0.00     0.048 C 
HETATM   24  C   UNL     1       8.483  20.308  55.214  1.00  0.00     0.007 A 
HETATM   25  C   UNL     1       8.400  20.961  56.443  1.00  0.00     0.003 A 
HETATM   26  C   UNL     1       8.026  22.304  56.496  1.00  0.00     0.037 A 
ENDBRANCH  19  20
ENDBRANCH  18  19
ENDBRANCH   1  18
TORSDOF 5
ENDMDL
MODEL 4
REMARK VINA RESULT:      -8.9      1.637      2.103
REMARK  5 active torsions:
REMARK  status: ('A' for Active; 'I' for Inactive)
REMARK    1  A    between atoms: C_4  and  O_5 
REMARK    2  A    between atoms: O_5  and  C_6 
REMARK    3  A    between atoms: C_6  and  C_7 
REMARK       I    between atoms: C_7  and  N_8 
REMARK    4  A    between atoms: N_8  and  N_9 
REMARK    5  A    between atoms: C_10  and  C_11 
ROOT
HETATM    1  C   UNL     1       7.699  27.560  57.436  1.00  0.00     0.261 C 
HETATM    2  N   UNL     1       7.755  27.446  56.050  1.00  0.00    -0.246 N 
HETATM    3  O   UNL     1       7.966  26.679  58.250  1.00  0.00    -0.269 OA
HETATM    4  H   UNL     1       7.273  28.166  55.514  1.00  0.00     0.192 HD
ENDROOT
BRANCH   2   5
HETATM    5  N   UNL     1       8.058  26.315  55.329  1.00  0.00    -0.184 NA
HETATM    6  C   UNL     1       7.155  25.397  55.193  1.00  0.00     0.153 C 
BRANCH   6   7
HETATM    7  C   UNL     1       7.422  24.201  54.411  1.00  0.00     0.018 A 
HETATM    8  C   UNL     1       7.733  22.910  54.957  1.00  0.00     0.004 A 
HETATM    9  C   UNL     1       7.933  22.038  53.888  1.00  0.00     0.043 A 
HETATM   10  C   UNL     1       7.851  22.399  56.269  1.00  0.00     0.014 A 
HETATM   11  C   UNL     1       8.256  20.686  54.061  1.00  0.00     0.030 A 
HETATM   12  N   UNL     1       7.750  22.765  52.737  1.00  0.00    -0.358 N 
HETATM   13  C   UNL     1       8.371  20.208  55.369  1.00  0.00     0.002 A 
HETATM   14  C   UNL     1       8.170  21.051  56.460  1.00  0.00     0.001 A 
HETATM   15  H   UNL     1       7.834  22.383  51.806  1.00  0.00     0.166 HD
HETATM   16  C   UNL     1       7.442  24.072  53.029  1.00  0.00     0.018 A 
HETATM   17  C   UNL     1       7.210  25.067  51.947  1.00  0.00     0.069 C 
ENDBRANCH   6   7
ENDBRANCH   2   5
BRANCH   1  18
HETATM   18  C   UNL     1       7.360  28.974  57.897  1.00  0.00     0.280 C 
BRANCH  18  19
HETATM   19  O   UNL     1       8.318  29.461  58.833  1.00  0.00    -0.342 OA
BRANCH  19  20
HETATM   20  C   UNL     1       7.884  30.518  59.590  1.00  0.00     0.069 A 
HETATM   21  C   UNL     1       8.352  30.830  60.871  1.00  0.00     0.043 A 
HETATM   22  C   UNL     1       7.834  31.927  61.573  1.00  0.00    -0.059 A 
HETATM   23  C   UNL     1       8.352  32.273  62.939  1.00  0.00     0.048 C 
HETATM   24  C   UNL     1       6.866  32.733  60.962  1.00  0.00     0.007 A 
HETATM   25  C   UNL     1       6.414  32.439  59.676  1.00  0.00     0.003 A 
HETATM   26  C   UNL     1       6.927  31.337  58.991  1.00  0.00     0.037 A 
ENDBRANCH  19  20
ENDBRANCH  18  19
ENDBRANCH   1  18
TORSDOF 5
ENDMDL
MODEL 5
REMARK VINA RESULT:      -8.9      4.353      8.095
REMARK  5 active torsions:
REMARK  status: ('A' for Active; 'I' for Inactive)
REMARK    1  A    between atoms: C_4  and  O_5 
REMARK    2  A    between atoms: O_5  and  C_6 
REMARK    3  A    between atoms: C_6  and  C_7 
REMARK       I    between atoms: C_7  and  N_8 
REMARK    4  A    between atoms: N_8  and  N_9 
REMARK    5  A    between atoms: C_10  and  C_11 
ROOT
HETATM    1  C   UNL     1       5.605  27.404  51.622  1.00  0.00     0.261 C 
HETATM    2  N   UNL     1       5.543  26.017  51.719  1.00  0.00    -0.246 N 
HETATM    3  O   UNL     1       5.972  28.178  52.503  1.00  0.00    -0.269 OA
HETATM    4  H   UNL     1       4.992  25.535  51.011  1.00  0.00     0.192 HD
ENDROOT
BRANCH   2   5
HETATM    5  N   UNL     1       5.820  25.256  52.831  1.00  0.00    -0.184 NA
HETATM    6  C   UNL     1       7.009  24.762  52.973  1.00  0.00     0.153 C 
BRANCH   6   7
HETATM    7  C   UNL     1       7.354  23.981  54.150  1.00  0.00     0.018 A 
HETATM    8  C   UNL     1       7.760  22.604  54.136  1.00  0.00     0.004 A 
HETATM    9  C   UNL     1       7.988  22.220  55.456  1.00  0.00     0.043 A 
HETATM   10  C   UNL     1       7.966  21.649  53.116  1.00  0.00     0.014 A 
HETATM   11  C   UNL     1       8.401  20.929  55.811  1.00  0.00     0.030 A 
HETATM   12  N   UNL     1       7.734  23.317  56.244  1.00  0.00    -0.358 N 
HETATM   13  C   UNL     1       8.593  20.003  54.783  1.00  0.00     0.002 A 
HETATM   14  C   UNL     1       8.381  20.356  53.452  1.00  0.00     0.001 A 
HETATM   15  H   UNL     1       7.820  23.324  57.250  1.00  0.00     0.166 HD
HETATM   16  C   UNL     1       7.349  24.390  55.476  1.00  0.00     0.018 A 
HETATM   17  C   UNL     1       7.004  25.696  56.099  1.00  0.00     0.069 C 
ENDBRANCH   6   7
ENDBRANCH   2   5
BRANCH   1  18
HETATM   18  C   UNL     1       5.260  27.912  50.226  1.00  0.00     0.280 C 
BRANCH  18  19
HETATM   19  O   UNL     1       3.860  28.135  50.084  1.00  0.00    -0.342 OA
BRANCH  19  20
HETATM   20  C   UNL     1       3.283  27.468  49.035  1.00  0.00     0.069 A 
HETATM   21  C   UNL     1       2.114  27.867  48.380  1.00  0.00     0.043 A 
HETATM   22  C   UNL     1       1.593  27.107  47.323  1.00  0.00    -0.059 A 
HETATM   23  C   UNL     1       0.349  27.547  46.607  1.00  0.00     0.048 C 
HETATM   24  C   UNL     1       2.277  25.960  46.905  1.00  0.00     0.007 A 
HETATM   25  C   UNL     1       3.456  25.572  47.541  1.00  0.00     0.003 A 
HETATM   26  C   UNL     1       3.959  26.328  48.600  1.00  0.00     0.037 A 
ENDBRANCH  19  20
ENDBRANCH  18  19
ENDBRANCH   1  18
TORSDOF 5
ENDMDL
MODEL 6
REMARK VINA RESULT:      -8.6      1.873      2.742
REMARK  5 active torsions:
REMARK  status: ('A' for Active; 'I' for Inactive)
REMARK    1  A    between atoms: C_4  and  O_5 
REMARK    2  A    between atoms: O_5  and  C_6 
REMARK    3  A    between atoms: C_6  and  C_7 
REMARK       I    between atoms: C_7  and  N_8 
REMARK    4  A    between atoms: N_8  and  N_9 
REMARK    5  A    between atoms: C_10  and  C_11 
ROOT
HETATM    1  C   UNL     1       7.500  28.565  57.539  1.00  0.00     0.261 C 
HETATM    2  N   UNL     1       7.215  28.591  56.177  1.00  0.00    -0.246 N 
HETATM    3  O   UNL     1       7.982  27.622  58.163  1.00  0.00    -0.269 OA
HETATM    4  H   UNL     1       6.598  29.335  55.855  1.00  0.00     0.192 HD
ENDROOT
BRANCH   2   5
HETATM    5  N   UNL     1       7.359  27.553  55.286  1.00  0.00    -0.184 NA
HETATM    6  C   UNL     1       6.507  26.579  55.314  1.00  0.00     0.153 C 
BRANCH   6   7
HETATM    7  C   UNL     1       6.603  25.479  54.368  1.00  0.00     0.018 A 
HETATM    8  C   UNL     1       7.463  24.338  54.513  1.00  0.00     0.004 A 
HETATM    9  C   UNL     1       7.272  23.523  53.398  1.00  0.00     0.043 A 
HETATM   10  C   UNL     1       8.380  23.917  55.502  1.00  0.00     0.014 A 
HETATM   11  C   UNL     1       7.958  22.317  53.214  1.00  0.00     0.030 A 
HETATM   12  N   UNL     1       6.334  24.140  52.606  1.00  0.00    -0.358 N 
HETATM   13  C   UNL     1       8.863  21.926  54.204  1.00  0.00     0.002 A 
HETATM   14  C   UNL     1       9.071  22.712  55.335  1.00  0.00     0.001 A 
HETATM   15  H   UNL     1       6.002  23.768  51.728  1.00  0.00     0.166 HD
HETATM   16  C   UNL     1       5.918  25.321  53.171  1.00  0.00     0.018 A 
HETATM   17  C   UNL     1       4.912  26.183  52.496  1.00  0.00     0.069 C 
ENDBRANCH   6   7
ENDBRANCH   2   5
BRANCH   1  18
HETATM   18  C   UNL     1       7.250  29.907  58.218  1.00  0.00     0.280 C 
BRANCH  18  19
HETATM   19  O   UNL     1       8.454  30.458  58.744  1.00  0.00    -0.342 OA
BRANCH  19  20
HETATM   20  C   UNL     1       8.316  31.060  59.968  1.00  0.00     0.069 A 
HETATM   21  C   UNL     1       7.381  32.056  60.268  1.00  0.00     0.043 A 
HETATM   22  C   UNL     1       7.327  32.621  61.550  1.00  0.00    -0.059 A 
HETATM   23  C   UNL     1       6.310  33.675  61.878  1.00  0.00     0.048 C 
HETATM   24  C   UNL     1       8.197  32.151  62.541  1.00  0.00     0.007 A 
HETATM   25  C   UNL     1       9.115  31.142  62.250  1.00  0.00     0.003 A 
HETATM   26  C   UNL     1       9.169  30.595  60.968  1.00  0.00     0.037 A 
ENDBRANCH  19  20
ENDBRANCH  18  19
ENDBRANCH   1  18
TORSDOF 5
ENDMDL
MODEL 7
REMARK VINA RESULT:      -8.4      2.835      9.686
REMARK  5 active torsions:
REMARK  status: ('A' for Active; 'I' for Inactive)
REMARK    1  A    between atoms: C_4  and  O_5 
REMARK    2  A    between atoms: O_5  and  C_6 
REMARK    3  A    between atoms: C_6  and  C_7 
REMARK       I    between atoms: C_7  and  N_8 
REMARK    4  A    between atoms: N_8  and  N_9 
REMARK    5  A    between atoms: C_10  and  C_11 
ROOT
HETATM    1  C   UNL     1       7.351  28.192  57.033  1.00  0.00     0.261 C 
HETATM    2  N   UNL     1       6.460  29.254  56.909  1.00  0.00    -0.246 N 
HETATM    3  O   UNL     1       7.880  27.804  58.072  1.00  0.00    -0.269 OA
HETATM    4  H   UNL     1       6.303  29.609  55.967  1.00  0.00     0.192 HD
ENDROOT
BRANCH   2   5
HETATM    5  N   UNL     1       6.051  30.106  57.908  1.00  0.00    -0.184 NA
HETATM    6  C   UNL     1       6.872  31.011  58.336  1.00  0.00     0.153 C 
BRANCH   6   7
HETATM    7  C   UNL     1       6.468  31.954  59.367  1.00  0.00     0.018 A 
HETATM    8  C   UNL     1       7.062  32.056  60.670  1.00  0.00     0.004 A 
HETATM    9  C   UNL     1       6.391  33.063  61.361  1.00  0.00     0.043 A 
HETATM   10  C   UNL     1       8.123  31.388  61.323  1.00  0.00     0.014 A 
HETATM   11  C   UNL     1       6.715  33.430  62.673  1.00  0.00     0.030 A 
HETATM   12  N   UNL     1       5.428  33.557  60.515  1.00  0.00    -0.358 N 
HETATM   13  C   UNL     1       7.765  32.751  63.297  1.00  0.00     0.002 A 
HETATM   14  C   UNL     1       8.462  31.745  62.632  1.00  0.00     0.001 A 
HETATM   15  H   UNL     1       4.788  34.300  60.757  1.00  0.00     0.166 HD
HETATM   16  C   UNL     1       5.455  32.901  59.308  1.00  0.00     0.018 A 
HETATM   17  C   UNL     1       4.497  33.246  58.224  1.00  0.00     0.069 C 
ENDBRANCH   6   7
ENDBRANCH   2   5
BRANCH   1  18
HETATM   18  C   UNL     1       7.555  27.438  55.723  1.00  0.00     0.280 C 
BRANCH  18  19
HETATM   19  O   UNL     1       7.356  26.038  55.890  1.00  0.00    -0.342 OA
BRANCH  19  20
HETATM   20  C   UNL     1       7.517  25.301  54.746  1.00  0.00     0.069 A 
HETATM   21  C   UNL     1       7.586  23.905  54.697  1.00  0.00     0.043 A 
HETATM   22  C   UNL     1       7.766  23.241  53.475  1.00  0.00    -0.059 A 
HETATM   23  C   UNL     1       7.819  21.742  53.421  1.00  0.00     0.048 C 
HETATM   24  C   UNL     1       7.842  23.991  52.295  1.00  0.00     0.007 A 
HETATM   25  C   UNL     1       7.750  25.382  52.339  1.00  0.00     0.003 A 
HETATM   26  C   UNL     1       7.583  26.033  53.561  1.00  0.00     0.037 A 
ENDBRANCH  19  20
ENDBRANCH  18  19
ENDBRANCH   1  18
TORSDOF 5
ENDMDL
MODEL 8
REMARK VINA RESULT:      -8.3      5.579      9.437
REMARK  5 active torsions:
REMARK  status: ('A' for Active; 'I' for Inactive)
REMARK    1  A    between atoms: C_4  and  O_5 
REMARK    2  A    between atoms: O_5  and  C_6 
REMARK    3  A    between atoms: C_6  and  C_7 
REMARK       I    between atoms: C_7  and  N_8 
REMARK    4  A    between atoms: N_8  and  N_9 
REMARK    5  A    between atoms: C_10  and  C_11 
ROOT
HETATM    1  C   UNL     1       5.859  26.522  52.498  1.00  0.00     0.261 C 
HETATM    2  N   UNL     1       5.830  26.260  51.131  1.00  0.00    -0.246 N 
HETATM    3  O   UNL     1       4.887  26.744  53.217  1.00  0.00    -0.269 OA
HETATM    4  H   UNL     1       6.714  26.343  50.633  1.00  0.00     0.192 HD
ENDROOT
BRANCH   2   5
HETATM    5  N   UNL     1       4.721  26.260  50.317  1.00  0.00    -0.184 NA
HETATM    6  C   UNL     1       4.669  27.095  49.328  1.00  0.00     0.153 C 
BRANCH   6   7
HETATM    7  C   UNL     1       3.532  27.106  48.423  1.00  0.00     0.018 A 
HETATM    8  C   UNL     1       2.885  28.287  47.924  1.00  0.00     0.004 A 
HETATM    9  C   UNL     1       1.837  27.877  47.102  1.00  0.00     0.043 A 
HETATM   10  C   UNL     1       3.104  29.673  48.090  1.00  0.00     0.014 A 
HETATM   11  C   UNL     1       0.991  28.778  46.445  1.00  0.00     0.030 A 
HETATM   12  N   UNL     1       1.846  26.503  47.096  1.00  0.00    -0.358 N 
HETATM   13  C   UNL     1       1.227  30.143  46.629  1.00  0.00     0.002 A 
HETATM   14  C   UNL     1       2.269  30.587  47.438  1.00  0.00     0.001 A 
HETATM   15  H   UNL     1       1.190  25.935  46.578  1.00  0.00     0.166 HD
HETATM   16  C   UNL     1       2.858  26.017  47.887  1.00  0.00     0.018 A 
HETATM   17  C   UNL     1       3.067  24.554  48.056  1.00  0.00     0.069 C 
ENDBRANCH   6   7
ENDBRANCH   2   5
BRANCH   1  18
HETATM   18  C   UNL     1       7.260  26.405  53.090  1.00  0.00     0.280 C 
BRANCH  18  19
HETATM   19  O   UNL     1       7.980  25.318  52.517  1.00  0.00    -0.342 OA
BRANCH  19  20
HETATM   20  C   UNL     1       7.948  24.163  53.255  1.00  0.00     0.069 A 
HETATM   21  C   UNL     1       8.062  22.873  52.728  1.00  0.00     0.043 A 
HETATM   22  C   UNL     1       8.002  21.751  53.566  1.00  0.00    -0.059 A 
HETATM   23  C   UNL     1       8.145  20.368  53.002  1.00  0.00     0.048 C 
HETATM   24  C   UNL     1       7.864  21.937  54.947  1.00  0.00     0.007 A 
HETATM   25  C   UNL     1       7.774  23.223  55.478  1.00  0.00     0.003 A 
HETATM   26  C   UNL     1       7.821  24.333  54.634  1.00  0.00     0.037 A 
ENDBRANCH  19  20
ENDBRANCH  18  19
ENDBRANCH   1  18
TORSDOF 5
ENDMDL
MODEL 9
REMARK VINA RESULT:      -8.3      2.488      4.538
REMARK  5 active torsions:
REMARK  status: ('A' for Active; 'I' for Inactive)
REMARK    1  A    between atoms: C_4  and  O_5 
REMARK    2  A    between atoms: O_5  and  C_6 
REMARK    3  A    between atoms: C_6  and  C_7 
REMARK       I    between atoms: C_7  and  N_8 
REMARK    4  A    between atoms: N_8  and  N_9 
REMARK    5  A    between atoms: C_10  and  C_11 
ROOT
HETATM    1  C   UNL     1       8.970  30.402  58.484  1.00  0.00     0.261 C 
HETATM    2  N   UNL     1       7.731  29.780  58.360  1.00  0.00    -0.246 N 
HETATM    3  O   UNL     1       9.864  30.418  57.640  1.00  0.00    -0.269 OA
HETATM    4  H   UNL     1       7.204  29.641  59.221  1.00  0.00     0.192 HD
ENDROOT
BRANCH   2   5
HETATM    5  N   UNL     1       7.295  29.018  57.302  1.00  0.00    -0.184 NA
HETATM    6  C   UNL     1       6.892  27.808  57.524  1.00  0.00     0.153 C 
BRANCH   6   7
HETATM    7  C   UNL     1       6.391  26.979  56.439  1.00  0.00     0.018 A 
HETATM    8  C   UNL     1       6.976  25.741  56.009  1.00  0.00     0.004 A 
HETATM    9  C   UNL     1       6.215  25.264  54.943  1.00  0.00     0.043 A 
HETATM   10  C   UNL     1       8.081  24.973  56.439  1.00  0.00     0.014 A 
HETATM   11  C   UNL     1       6.507  24.067  54.277  1.00  0.00     0.030 A 
HETATM   12  N   UNL     1       5.206  26.173  54.732  1.00  0.00    -0.358 N 
HETATM   13  C   UNL     1       7.608  23.329  54.720  1.00  0.00     0.002 A 
HETATM   14  C   UNL     1       8.384  23.773  55.788  1.00  0.00     0.001 A 
HETATM   15  H   UNL     1       4.501  26.080  54.015  1.00  0.00     0.166 HD
HETATM   16  C   UNL     1       5.294  27.216  55.622  1.00  0.00     0.018 A 
HETATM   17  C   UNL     1       4.320  28.339  55.588  1.00  0.00     0.069 C 
ENDBRANCH   6   7
ENDBRANCH   2   5
BRANCH   1  18
HETATM   18  C   UNL     1       9.105  31.194  59.781  1.00  0.00     0.280 C 
BRANCH  18  19
HETATM   19  O   UNL     1       8.168  30.754  60.760  1.00  0.00    -0.342 OA
BRANCH  19  20
HETATM   20  C   UNL     1       7.711  31.743  61.592  1.00  0.00     0.069 A 
HETATM   21  C   UNL     1       6.735  32.685  61.253  1.00  0.00     0.043 A 
HETATM   22  C   UNL     1       6.343  33.670  62.172  1.00  0.00    -0.059 A 
HETATM   23  C   UNL     1       5.281  34.668  61.815  1.00  0.00     0.048 C 
HETATM   24  C   UNL     1       6.915  33.677  63.449  1.00  0.00     0.007 A 
HETATM   25  C   UNL     1       7.872  32.725  63.798  1.00  0.00     0.003 A 
HETATM   26  C   UNL     1       8.264  31.757  62.872  1.00  0.00     0.037 A 
ENDBRANCH  19  20
ENDBRANCH  18  19
ENDBRANCH   1  18
TORSDOF 5
ENDMDL
MODEL 10
REMARK VINA RESULT:      -8.1      2.730      4.687
REMARK  5 active torsions:
REMARK  status: ('A' for Active; 'I' for Inactive)
REMARK    1  A    between atoms: C_4  and  O_5 
REMARK    2  A    between atoms: O_5  and  C_6 
REMARK    3  A    between atoms: C_6  and  C_7 
REMARK       I    between atoms: C_7  and  N_8 
REMARK    4  A    between atoms: N_8  and  N_9 
REMARK    5  A    between atoms: C_10  and  C_11 
ROOT
HETATM    1  C   UNL     1       9.176  30.171  58.218  1.00  0.00     0.261 C 
HETATM    2  N   UNL     1       8.112  29.313  57.955  1.00  0.00    -0.246 N 
HETATM    3  O   UNL     1      10.273  30.160  57.664  1.00  0.00    -0.269 OA
HETATM    4  H   UNL     1       7.371  29.279  58.653  1.00  0.00     0.192 HD
ENDROOT
BRANCH   2   5
HETATM    5  N   UNL     1       8.105  28.258  57.072  1.00  0.00    -0.184 NA
HETATM    6  C   UNL     1       7.365  27.228  57.333  1.00  0.00     0.153 C 
BRANCH   6   7
HETATM    7  C   UNL     1       7.302  26.105  56.411  1.00  0.00     0.018 A 
HETATM    8  C   UNL     1       6.466  26.042  55.244  1.00  0.00     0.004 A 
HETATM    9  C   UNL     1       6.684  24.806  54.638  1.00  0.00     0.043 A 
HETATM   10  C   UNL     1       5.551  26.933  54.641  1.00  0.00     0.014 A 
HETATM   11  C   UNL     1       6.026  24.409  53.467  1.00  0.00     0.030 A 
HETATM   12  N   UNL     1       7.614  24.143  55.401  1.00  0.00    -0.358 N 
HETATM   13  C   UNL     1       5.123  25.307  52.893  1.00  0.00     0.002 A 
HETATM   14  C   UNL     1       4.888  26.553  53.469  1.00  0.00     0.001 A 
HETATM   15  H   UNL     1       7.961  23.217  55.193  1.00  0.00     0.166 HD
HETATM   16  C   UNL     1       7.999  24.907  56.476  1.00  0.00     0.018 A 
HETATM   17  C   UNL     1       8.991  24.402  57.462  1.00  0.00     0.069 C 
ENDBRANCH   6   7
ENDBRANCH   2   5
BRANCH   1  18
HETATM   18  C   UNL     1       8.823  31.252  59.234  1.00  0.00     0.280 C 
BRANCH  18  19
HETATM   19  O   UNL     1       7.990  30.741  60.271  1.00  0.00    -0.342 OA
BRANCH  19  20
HETATM   20  C   UNL     1       7.648  31.661  61.229  1.00  0.00     0.069 A 
HETATM   21  C   UNL     1       6.698  32.673  61.062  1.00  0.00     0.043 A 
HETATM   22  C   UNL     1       6.427  33.576  62.099  1.00  0.00    -0.059 A 
HETATM   23  C   UNL     1       5.392  34.649  61.927  1.00  0.00     0.048 C 
HETATM   24  C   UNL     1       7.094  33.432  63.321  1.00  0.00     0.007 A 
HETATM   25  C   UNL     1       8.026  32.410  63.498  1.00  0.00     0.003 A 
HETATM   26  C   UNL     1       8.297  31.523  62.456  1.00  0.00     0.037 A 
ENDBRANCH  19  20
ENDBRANCH  18  19
ENDBRANCH   1  18
TORSDOF 5
ENDMDL
