MODEL 1
REMARK VINA RESULT:     -10.3      0.000      0.000
REMARK  3 active torsions:
REMARK  status: ('A' for Active; 'I' for Inactive)
REMARK    1  A    between atoms: C_4  and  C_5 
REMARK    2  A    between atoms: C_9  and  C_10 
REMARK    3  A    between atoms: C_23  and  N_24 
ROOT
HETATM    1  C   UNL     1       6.829  24.905  54.541  1.00  0.00     0.070 A 
HETATM    2  N   UNL     1       5.783  25.268  53.767  1.00  0.00    -0.228 NA
HETATM    3  C   UNL     1       5.329  26.517  53.763  1.00  0.00     0.165 A 
HETATM    4  C   UNL     1       5.913  27.524  54.536  1.00  0.00     0.063 A 
HETATM    5  C   UNL     1       7.011  27.154  55.382  1.00  0.00    -0.006 A 
HETATM    6  C   UNL     1       7.456  25.825  55.363  1.00  0.00     0.046 A 
HETATM    7  N   UNL     1       4.297  26.727  52.961  1.00  0.00    -0.222 NA
HETATM    8  C   UNL     1       3.805  27.960  52.896  1.00  0.00     0.237 A 
HETATM    9  N   UNL     1       4.274  29.019  53.549  1.00  0.00    -0.229 NA
HETATM   10  C   UNL     1       5.325  28.796  54.346  1.00  0.00     0.117 A 
ENDROOT
BRANCH   5  11
HETATM   11  C   UNL     1       7.718  28.090  56.274  1.00  0.00    -0.022 A 
HETATM   12  C   UNL     1       8.867  28.775  55.837  1.00  0.00     0.052 A 
HETATM   13  C   UNL     1       9.500  29.627  56.720  1.00  0.00     0.105 A 
HETATM   14  C   UNL     1       9.025  29.838  57.991  1.00  0.00     0.105 A 
HETATM   15  O   UNL     1      10.633  30.335  56.466  1.00  0.00    -0.323 OA
HETATM   16  O   UNL     1       9.798  30.704  58.699  1.00  0.00    -0.323 OA
HETATM   17  C   UNL     1       7.889  29.212  58.453  1.00  0.00     0.040 A 
HETATM   18  C   UNL     1      10.838  30.987  57.738  1.00  0.00     0.352 A 
HETATM   19  C   UNL     1       7.235  28.330  57.585  1.00  0.00     0.015 A 
ENDBRANCH   5  11
BRANCH  10  20
HETATM   20  N   UNL     1       5.762  29.948  54.996  1.00  0.00    -0.286 NA
HETATM   21  H   UNL     1       5.181  30.722  54.681  1.00  0.00     0.125 HD
HETATM   22  H   UNL     1       6.748  30.131  54.848  1.00  0.00     0.125 HD
ENDBRANCH  10  20
BRANCH   1  23
HETATM   23  C   UNL     1       7.261  23.495  54.414  1.00  0.00    -0.007 A 
HETATM   24  C   UNL     1       7.527  22.942  53.145  1.00  0.00     0.014 A 
HETATM   25  C   UNL     1       7.956  21.620  52.994  1.00  0.00     0.001 A 
HETATM   26  C   UNL     1       8.127  20.814  54.113  1.00  0.00     0.000 A 
HETATM   27  C   UNL     1       7.860  21.327  55.379  1.00  0.00     0.001 A 
HETATM   28  C   UNL     1       7.430  22.650  55.527  1.00  0.00     0.014 A 
ENDBRANCH   1  23
TORSDOF 3
ENDMDL
MODEL 2
REMARK VINA RESULT:     -10.2      1.480      1.946
REMARK  3 active torsions:
REMARK  status: ('A' for Active; 'I' for Inactive)
REMARK    1  A    between atoms: C_4  and  C_5 
REMARK    2  A    between atoms: C_9  and  C_10 
REMARK    3  A    between atoms: C_23  and  N_24 
ROOT
HETATM    1  C   UNL     1       7.047  24.224  53.852  1.00  0.00     0.070 A 
HETATM    2  N   UNL     1       6.557  24.498  52.624  1.00  0.00    -0.228 NA
HETATM    3  C   UNL     1       6.148  25.721  52.302  1.00  0.00     0.165 A 
HETATM    4  C   UNL     1       6.217  26.790  53.199  1.00  0.00     0.063 A 
HETATM    5  C   UNL     1       6.713  26.514  54.517  1.00  0.00    -0.006 A 
HETATM    6  C   UNL     1       7.129  25.210  54.819  1.00  0.00     0.046 A 
HETATM    7  N   UNL     1       5.688  25.842  51.067  1.00  0.00    -0.222 NA
HETATM    8  C   UNL     1       5.279  27.044  50.675  1.00  0.00     0.237 A 
HETATM    9  N   UNL     1       5.312  28.154  51.406  1.00  0.00    -0.229 NA
HETATM   10  C   UNL     1       5.791  28.020  52.648  1.00  0.00     0.117 A 
ENDROOT
BRANCH   5  11
HETATM   11  C   UNL     1       6.826  27.524  55.585  1.00  0.00    -0.022 A 
HETATM   12  C   UNL     1       8.028  28.227  55.790  1.00  0.00     0.052 A 
HETATM   13  C   UNL     1       8.084  29.149  56.815  1.00  0.00     0.105 A 
HETATM   14  C   UNL     1       6.998  29.411  57.615  1.00  0.00     0.105 A 
HETATM   15  O   UNL     1       9.173  29.884  57.164  1.00  0.00    -0.323 OA
HETATM   16  O   UNL     1       7.266  30.343  58.568  1.00  0.00    -0.323 OA
HETATM   17  C   UNL     1       5.794  28.768  57.434  1.00  0.00     0.040 A 
HETATM   18  C   UNL     1       8.659  30.612  58.300  1.00  0.00     0.352 A 
HETATM   19  C   UNL     1       5.713  27.817  56.412  1.00  0.00     0.015 A 
ENDBRANCH   5  11
BRANCH  10  20
HETATM   20  N   UNL     1       5.798  29.221  53.355  1.00  0.00    -0.286 NA
HETATM   21  H   UNL     1       6.732  29.352  53.735  1.00  0.00     0.125 HD
HETATM   22  H   UNL     1       5.087  29.255  54.076  1.00  0.00     0.125 HD
ENDBRANCH  10  20
BRANCH   1  23
HETATM   23  C   UNL     1       7.510  22.834  54.061  1.00  0.00    -0.007 A 
HETATM   24  C   UNL     1       7.569  22.289  55.359  1.00  0.00     0.014 A 
HETATM   25  C   UNL     1       7.982  20.973  55.587  1.00  0.00     0.001 A 
HETATM   26  C   UNL     1       8.352  20.167  54.516  1.00  0.00     0.000 A 
HETATM   27  C   UNL     1       8.317  20.679  53.223  1.00  0.00     0.001 A 
HETATM   28  C   UNL     1       7.903  21.997  52.999  1.00  0.00     0.014 A 
ENDBRANCH   1  23
TORSDOF 3
ENDMDL
MODEL 3
REMARK VINA RESULT:      -9.7      2.794      6.680
REMARK  3 active torsions:
REMARK  status: ('A' for Active; 'I' for Inactive)
REMARK    1  A    between atoms: C_4  and  C_5 
REMARK    2  A    between atoms: C_9  and  C_10 
REMARK    3  A    between atoms: C_23  and  N_24 
ROOT
HETATM    1  C   UNL     1       7.597  28.594  55.915  1.00  0.00     0.070 A 
HETATM    2  N   UNL     1       6.488  29.253  55.514  1.00  0.00    -0.228 NA
HETATM    3  C   UNL     1       5.591  28.674  54.722  1.00  0.00     0.165 A 
HETATM    4  C   UNL     1       5.729  27.357  54.277  1.00  0.00     0.063 A 
HETATM    5  C   UNL     1       6.912  26.648  54.673  1.00  0.00    -0.006 A 
HETATM    6  C   UNL     1       7.838  27.295  55.504  1.00  0.00     0.046 A 
HETATM    7  N   UNL     1       4.558  29.440  54.407  1.00  0.00    -0.222 NA
HETATM    8  C   UNL     1       3.614  28.916  53.631  1.00  0.00     0.237 A 
HETATM    9  N   UNL     1       3.597  27.674  53.158  1.00  0.00    -0.229 NA
HETATM   10  C   UNL     1       4.641  26.907  53.495  1.00  0.00     0.117 A 
ENDROOT
BRANCH   5  11
HETATM   11  C   UNL     1       7.219  25.264  54.269  1.00  0.00    -0.022 A 
HETATM   12  C   UNL     1       7.068  24.197  55.173  1.00  0.00     0.052 A 
HETATM   13  C   UNL     1       7.386  22.923  54.748  1.00  0.00     0.105 A 
HETATM   14  C   UNL     1       7.817  22.673  53.468  1.00  0.00     0.105 A 
HETATM   15  O   UNL     1       7.327  21.795  55.504  1.00  0.00    -0.323 OA
HETATM   16  O   UNL     1       8.084  21.357  53.257  1.00  0.00    -0.323 OA
HETATM   17  C   UNL     1       7.953  23.681  52.540  1.00  0.00     0.040 A 
HETATM   18  C   UNL     1       7.807  20.810  54.564  1.00  0.00     0.352 A 
HETATM   19  C   UNL     1       7.653  24.985  52.948  1.00  0.00     0.015 A 
ENDBRANCH   5  11
BRANCH  10  20
HETATM   20  N   UNL     1       4.556  25.621  52.966  1.00  0.00    -0.286 NA
HETATM   21  H   UNL     1       4.454  25.705  51.958  1.00  0.00     0.125 HD
HETATM   22  H   UNL     1       3.807  25.077  53.378  1.00  0.00     0.125 HD
ENDBRANCH  10  20
BRANCH   1  23
HETATM   23  C   UNL     1       8.488  29.338  56.832  1.00  0.00    -0.007 A 
HETATM   24  C   UNL     1       9.799  29.672  56.439  1.00  0.00     0.014 A 
HETATM   25  C   UNL     1      10.657  30.393  57.275  1.00  0.00     0.001 A 
HETATM   26  C   UNL     1      10.224  30.795  58.533  1.00  0.00     0.000 A 
HETATM   27  C   UNL     1       8.939  30.470  58.956  1.00  0.00     0.001 A 
HETATM   28  C   UNL     1       8.082  29.748  58.117  1.00  0.00     0.014 A 
ENDBRANCH   1  23
TORSDOF 3
ENDMDL
MODEL 4
REMARK VINA RESULT:      -9.6      2.925      4.899
REMARK  3 active torsions:
REMARK  status: ('A' for Active; 'I' for Inactive)
REMARK    1  A    between atoms: C_4  and  C_5 
REMARK    2  A    between atoms: C_9  and  C_10 
REMARK    3  A    between atoms: C_23  and  N_24 
ROOT
HETATM    1  C   UNL     1       7.253  24.792  54.850  1.00  0.00     0.070 A 
HETATM    2  N   UNL     1       7.749  25.290  56.004  1.00  0.00    -0.228 NA
HETATM    3  C   UNL     1       7.561  26.561  56.344  1.00  0.00     0.165 A 
HETATM    4  C   UNL     1       6.830  27.445  55.546  1.00  0.00     0.063 A 
HETATM    5  C   UNL     1       6.314  26.942  54.306  1.00  0.00    -0.006 A 
HETATM    6  C   UNL     1       6.539  25.597  53.980  1.00  0.00     0.046 A 
HETATM    7  N   UNL     1       8.107  26.910  57.498  1.00  0.00    -0.222 NA
HETATM    8  C   UNL     1       7.941  28.163  57.906  1.00  0.00     0.237 A 
HETATM    9  N   UNL     1       7.249  29.103  57.270  1.00  0.00    -0.229 NA
HETATM   10  C   UNL     1       6.692  28.734  56.111  1.00  0.00     0.117 A 
ENDROOT
BRANCH   5  11
HETATM   11  C   UNL     1       5.545  27.751  53.343  1.00  0.00    -0.022 A 
HETATM   12  C   UNL     1       6.193  28.449  52.307  1.00  0.00     0.052 A 
HETATM   13  C   UNL     1       5.426  29.206  51.444  1.00  0.00     0.105 A 
HETATM   14  C   UNL     1       4.058  29.271  51.557  1.00  0.00     0.105 A 
HETATM   15  O   UNL     1       5.897  29.962  50.417  1.00  0.00    -0.323 OA
HETATM   16  O   UNL     1       3.497  30.076  50.616  1.00  0.00    -0.323 OA
HETATM   17  C   UNL     1       3.379  28.583  52.536  1.00  0.00     0.040 A 
HETATM   18  C   UNL     1       4.672  30.541  49.919  1.00  0.00     0.352 A 
HETATM   19  C   UNL     1       4.132  27.820  53.436  1.00  0.00     0.015 A 
ENDBRANCH   5  11
BRANCH  10  20
HETATM   20  N   UNL     1       5.984  29.767  55.501  1.00  0.00    -0.286 NA
HETATM   21  H   UNL     1       6.045  29.634  54.495  1.00  0.00     0.125 HD
HETATM   22  H   UNL     1       6.309  30.685  55.782  1.00  0.00     0.125 HD
ENDBRANCH  10  20
BRANCH   1  23
HETATM   23  C   UNL     1       7.494  23.351  54.617  1.00  0.00    -0.007 A 
HETATM   24  C   UNL     1       7.683  22.861  53.310  1.00  0.00     0.014 A 
HETATM   25  C   UNL     1       7.934  21.509  53.060  1.00  0.00     0.001 A 
HETATM   26  C   UNL     1       7.999  20.608  54.116  1.00  0.00     0.000 A 
HETATM   27  C   UNL     1       7.804  21.058  55.419  1.00  0.00     0.001 A 
HETATM   28  C   UNL     1       7.553  22.413  55.666  1.00  0.00     0.014 A 
ENDBRANCH   1  23
TORSDOF 3
ENDMDL
MODEL 5
REMARK VINA RESULT:      -9.5      4.160      6.109
REMARK  3 active torsions:
REMARK  status: ('A' for Active; 'I' for Inactive)
REMARK    1  A    between atoms: C_4  and  C_5 
REMARK    2  A    between atoms: C_9  and  C_10 
REMARK    3  A    between atoms: C_23  and  N_24 
ROOT
HETATM    1  C   UNL     1       6.784  23.941  54.080  1.00  0.00     0.070 A 
HETATM    2  N   UNL     1       6.502  24.540  55.257  1.00  0.00    -0.228 NA
HETATM    3  C   UNL     1       5.864  25.706  55.302  1.00  0.00     0.165 A 
HETATM    4  C   UNL     1       5.436  26.366  54.147  1.00  0.00     0.063 A 
HETATM    5  C   UNL     1       5.747  25.757  52.886  1.00  0.00    -0.006 A 
HETATM    6  C   UNL     1       6.425  24.531  52.880  1.00  0.00     0.046 A 
HETATM    7  N   UNL     1       5.659  26.176  56.523  1.00  0.00    -0.222 NA
HETATM    8  C   UNL     1       5.011  27.330  56.639  1.00  0.00     0.237 A 
HETATM    9  N   UNL     1       4.521  28.052  55.636  1.00  0.00    -0.229 NA
HETATM   10  C   UNL     1       4.725  27.559  54.409  1.00  0.00     0.117 A 
ENDROOT
BRANCH   5  11
HETATM   11  C   UNL     1       5.387  26.337  51.579  1.00  0.00    -0.022 A 
HETATM   12  C   UNL     1       4.562  25.635  50.681  1.00  0.00     0.052 A 
HETATM   13  C   UNL     1       4.271  26.217  49.463  1.00  0.00     0.105 A 
HETATM   14  C   UNL     1       4.743  27.461  49.123  1.00  0.00     0.105 A 
HETATM   15  O   UNL     1       3.520  25.661  48.476  1.00  0.00    -0.323 OA
HETATM   16  O   UNL     1       4.349  27.845  47.880  1.00  0.00    -0.323 OA
HETATM   17  C   UNL     1       5.530  28.197  49.981  1.00  0.00     0.040 A 
HETATM   18  C   UNL     1       3.604  26.682  47.460  1.00  0.00     0.352 A 
HETATM   19  C   UNL     1       5.854  27.625  51.216  1.00  0.00     0.015 A 
ENDBRANCH   5  11
BRANCH  10  20
HETATM   20  N   UNL     1       4.185  28.366  53.409  1.00  0.00    -0.286 NA
HETATM   21  H   UNL     1       3.299  28.732  53.750  1.00  0.00     0.125 HD
HETATM   22  H   UNL     1       4.078  27.878  52.528  1.00  0.00     0.125 HD
ENDBRANCH  10  20
BRANCH   1  23
HETATM   23  C   UNL     1       7.454  22.626  54.175  1.00  0.00    -0.007 A 
HETATM   24  C   UNL     1       7.613  21.995  55.425  1.00  0.00     0.014 A 
HETATM   25  C   UNL     1       8.223  20.742  55.545  1.00  0.00     0.001 A 
HETATM   26  C   UNL     1       8.695  20.089  54.412  1.00  0.00     0.000 A 
HETATM   27  C   UNL     1       8.566  20.692  53.165  1.00  0.00     0.001 A 
HETATM   28  C   UNL     1       7.954  21.946  53.048  1.00  0.00     0.014 A 
ENDBRANCH   1  23
TORSDOF 3
ENDMDL
MODEL 6
REMARK VINA RESULT:      -8.9      2.036      4.430
REMARK  3 active torsions:
REMARK  status: ('A' for Active; 'I' for Inactive)
REMARK    1  A    between atoms: C_4  and  C_5 
REMARK    2  A    between atoms: C_9  and  C_10 
REMARK    3  A    between atoms: C_23  and  N_24 
ROOT
HETATM    1  C   UNL     1       6.298  26.600  53.107  1.00  0.00     0.070 A 
HETATM    2  N   UNL     1       6.421  25.285  53.387  1.00  0.00    -0.228 NA
HETATM    3  C   UNL     1       6.936  24.870  54.540  1.00  0.00     0.165 A 
HETATM    4  C   UNL     1       7.359  25.761  55.530  1.00  0.00     0.063 A 
HETATM    5  C   UNL     1       7.258  27.163  55.242  1.00  0.00    -0.006 A 
HETATM    6  C   UNL     1       6.715  27.560  54.012  1.00  0.00     0.046 A 
HETATM    7  N   UNL     1       6.999  23.555  54.675  1.00  0.00    -0.222 NA
HETATM    8  C   UNL     1       7.488  23.073  55.813  1.00  0.00     0.237 A 
HETATM    9  N   UNL     1       7.900  23.796  56.850  1.00  0.00    -0.229 NA
HETATM   10  C   UNL     1       7.819  25.124  56.705  1.00  0.00     0.117 A 
ENDROOT
BRANCH   5  11
HETATM   11  C   UNL     1       7.683  28.228  56.169  1.00  0.00    -0.022 A 
HETATM   12  C   UNL     1       8.956  28.817  56.057  1.00  0.00     0.052 A 
HETATM   13  C   UNL     1       9.309  29.798  56.962  1.00  0.00     0.105 A 
HETATM   14  C   UNL     1       8.445  30.225  57.941  1.00  0.00     0.105 A 
HETATM   15  O   UNL     1      10.506  30.440  57.011  1.00  0.00    -0.323 OA
HETATM   16  O   UNL     1       8.990  31.189  58.730  1.00  0.00    -0.323 OA
HETATM   17  C   UNL     1       7.180  29.698  58.071  1.00  0.00     0.040 A 
HETATM   18  C   UNL     1      10.311  31.294  58.158  1.00  0.00     0.352 A 
HETATM   19  C   UNL     1       6.801  28.691  57.177  1.00  0.00     0.015 A 
ENDBRANCH   5  11
BRANCH  10  20
HETATM   20  N   UNL     1       8.266  25.816  57.828  1.00  0.00    -0.286 NA
HETATM   21  H   UNL     1       7.552  25.734  58.548  1.00  0.00     0.125 HD
HETATM   22  H   UNL     1       8.493  26.783  57.628  1.00  0.00     0.125 HD
ENDBRANCH  10  20
BRANCH   1  23
HETATM   23  C   UNL     1       5.666  26.923  51.809  1.00  0.00    -0.007 A 
HETATM   24  C   UNL     1       5.467  28.264  51.425  1.00  0.00     0.014 A 
HETATM   25  C   UNL     1       4.891  28.600  50.196  1.00  0.00     0.001 A 
HETATM   26  C   UNL     1       4.495  27.598  49.319  1.00  0.00     0.000 A 
HETATM   27  C   UNL     1       4.665  26.264  49.673  1.00  0.00     0.001 A 
HETATM   28  C   UNL     1       5.242  25.930  50.904  1.00  0.00     0.014 A 
ENDBRANCH   1  23
TORSDOF 3
ENDMDL
MODEL 7
REMARK VINA RESULT:      -8.6      3.227      7.058
REMARK  3 active torsions:
REMARK  status: ('A' for Active; 'I' for Inactive)
REMARK    1  A    between atoms: C_4  and  C_5 
REMARK    2  A    between atoms: C_9  and  C_10 
REMARK    3  A    between atoms: C_23  and  N_24 
ROOT
HETATM    1  C   UNL     1       8.086  28.433  57.021  1.00  0.00     0.070 A 
HETATM    2  N   UNL     1       8.403  27.187  57.437  1.00  0.00    -0.228 NA
HETATM    3  C   UNL     1       7.917  26.112  56.826  1.00  0.00     0.165 A 
HETATM    4  C   UNL     1       7.073  26.203  55.716  1.00  0.00     0.063 A 
HETATM    5  C   UNL     1       6.706  27.518  55.273  1.00  0.00    -0.006 A 
HETATM    6  C   UNL     1       7.235  28.627  55.947  1.00  0.00     0.046 A 
HETATM    7  N   UNL     1       8.308  24.958  57.344  1.00  0.00    -0.222 NA
HETATM    8  C   UNL     1       7.872  23.843  56.769  1.00  0.00     0.237 A 
HETATM    9  N   UNL     1       7.092  23.775  55.694  1.00  0.00    -0.229 NA
HETATM   10  C   UNL     1       6.714  24.948  55.173  1.00  0.00     0.117 A 
ENDROOT
BRANCH   5  11
HETATM   11  C   UNL     1       5.808  27.784  54.134  1.00  0.00    -0.022 A 
HETATM   12  C   UNL     1       6.307  27.852  52.821  1.00  0.00     0.052 A 
HETATM   13  C   UNL     1       5.424  28.122  51.795  1.00  0.00     0.105 A 
HETATM   14  C   UNL     1       4.081  28.299  52.022  1.00  0.00     0.105 A 
HETATM   15  O   UNL     1       5.749  28.252  50.481  1.00  0.00    -0.323 OA
HETATM   16  O   UNL     1       3.391  28.563  50.880  1.00  0.00    -0.323 OA
HETATM   17  C   UNL     1       3.543  28.213  53.286  1.00  0.00     0.040 A 
HETATM   18  C   UNL     1       4.461  28.569  49.911  1.00  0.00     0.352 A 
HETATM   19  C   UNL     1       4.417  27.956  54.348  1.00  0.00     0.015 A 
ENDBRANCH   5  11
BRANCH  10  20
HETATM   20  N   UNL     1       5.901  24.801  54.052  1.00  0.00    -0.286 NA
HETATM   21  H   UNL     1       5.872  25.696  53.569  1.00  0.00     0.125 HD
HETATM   22  H   UNL     1       4.973  24.466  54.282  1.00  0.00     0.125 HD
ENDBRANCH  10  20
BRANCH   1  23
HETATM   23  C   UNL     1       8.733  29.539  57.760  1.00  0.00    -0.007 A 
HETATM   24  C   UNL     1       9.937  30.102  57.292  1.00  0.00     0.014 A 
HETATM   25  C   UNL     1      10.562  31.162  57.957  1.00  0.00     0.001 A 
HETATM   26  C   UNL     1       9.997  31.683  59.114  1.00  0.00     0.000 A 
HETATM   27  C   UNL     1       8.815  31.141  59.610  1.00  0.00     0.001 A 
HETATM   28  C   UNL     1       8.193  30.080  58.943  1.00  0.00     0.014 A 
ENDBRANCH   1  23
TORSDOF 3
ENDMDL
MODEL 8
REMARK VINA RESULT:      -8.5      2.412      4.904
REMARK  3 active torsions:
REMARK  status: ('A' for Active; 'I' for Inactive)
REMARK    1  A    between atoms: C_4  and  C_5 
REMARK    2  A    between atoms: C_9  and  C_10 
REMARK    3  A    between atoms: C_23  and  N_24 
ROOT
HETATM    1  C   UNL     1       6.083  26.585  51.918  1.00  0.00     0.070 A 
HETATM    2  N   UNL     1       6.520  25.308  51.884  1.00  0.00    -0.228 NA
HETATM    3  C   UNL     1       7.101  24.750  52.940  1.00  0.00     0.165 A 
HETATM    4  C   UNL     1       7.276  25.437  54.144  1.00  0.00     0.063 A 
HETATM    5  C   UNL     1       6.840  26.803  54.193  1.00  0.00    -0.006 A 
HETATM    6  C   UNL     1       6.237  27.357  53.056  1.00  0.00     0.046 A 
HETATM    7  N   UNL     1       7.483  23.495  52.762  1.00  0.00    -0.222 NA
HETATM    8  C   UNL     1       8.055  22.871  53.786  1.00  0.00     0.237 A 
HETATM    9  N   UNL     1       8.260  23.386  54.994  1.00  0.00    -0.229 NA
HETATM   10  C   UNL     1       7.859  24.652  55.165  1.00  0.00     0.117 A 
ENDROOT
BRANCH   5  11
HETATM   11  C   UNL     1       6.975  27.671  55.377  1.00  0.00    -0.022 A 
HETATM   12  C   UNL     1       8.152  28.407  55.602  1.00  0.00     0.052 A 
HETATM   13  C   UNL     1       8.232  29.190  56.736  1.00  0.00     0.105 A 
HETATM   14  C   UNL     1       7.190  29.286  57.626  1.00  0.00     0.105 A 
HETATM   15  O   UNL     1       9.305  29.934  57.114  1.00  0.00    -0.323 OA
HETATM   16  O   UNL     1       7.475  30.100  58.676  1.00  0.00    -0.323 OA
HETATM   17  C   UNL     1       6.008  28.606  57.433  1.00  0.00     0.040 A 
HETATM   18  C   UNL     1       8.833  30.479  58.365  1.00  0.00     0.352 A 
HETATM   19  C   UNL     1       5.905  27.792  56.300  1.00  0.00     0.015 A 
ENDBRANCH   5  11
BRANCH  10  20
HETATM   20  N   UNL     1       8.104  25.124  56.452  1.00  0.00    -0.286 NA
HETATM   21  H   UNL     1       7.258  24.985  57.000  1.00  0.00     0.125 HD
HETATM   22  H   UNL     1       8.407  26.091  56.463  1.00  0.00     0.125 HD
ENDBRANCH  10  20
BRANCH   1  23
HETATM   23  C   UNL     1       5.413  27.066  50.689  1.00  0.00    -0.007 A 
HETATM   24  C   UNL     1       4.753  26.160  49.835  1.00  0.00     0.014 A 
HETATM   25  C   UNL     1       4.093  26.586  48.678  1.00  0.00     0.001 A 
HETATM   26  C   UNL     1       4.080  27.935  48.344  1.00  0.00     0.000 A 
HETATM   27  C   UNL     1       4.733  28.854  49.160  1.00  0.00     0.001 A 
HETATM   28  C   UNL     1       5.393  28.424  50.317  1.00  0.00     0.014 A 
ENDBRANCH   1  23
TORSDOF 3
ENDMDL
MODEL 9
REMARK VINA RESULT:      -8.5      2.967      7.033
REMARK  3 active torsions:
REMARK  status: ('A' for Active; 'I' for Inactive)
REMARK    1  A    between atoms: C_4  and  C_5 
REMARK    2  A    between atoms: C_9  and  C_10 
REMARK    3  A    between atoms: C_23  and  N_24 
ROOT
HETATM    1  C   UNL     1       6.820  30.366  58.051  1.00  0.00     0.070 A 
HETATM    2  N   UNL     1       5.951  31.201  57.442  1.00  0.00    -0.228 NA
HETATM    3  C   UNL     1       5.201  30.792  56.424  1.00  0.00     0.165 A 
HETATM    4  C   UNL     1       5.251  29.482  55.940  1.00  0.00     0.063 A 
HETATM    5  C   UNL     1       6.185  28.586  56.559  1.00  0.00    -0.006 A 
HETATM    6  C   UNL     1       6.963  29.057  57.626  1.00  0.00     0.046 A 
HETATM    7  N   UNL     1       4.399  31.718  55.922  1.00  0.00    -0.222 NA
HETATM    8  C   UNL     1       3.608  31.370  54.912  1.00  0.00     0.237 A 
HETATM    9  N   UNL     1       3.528  30.159  54.370  1.00  0.00    -0.229 NA
HETATM   10  C   UNL     1       4.334  29.229  54.894  1.00  0.00     0.117 A 
ENDROOT
BRANCH   5  11
HETATM   11  C   UNL     1       6.378  27.182  56.151  1.00  0.00    -0.022 A 
HETATM   12  C   UNL     1       7.206  26.854  55.063  1.00  0.00     0.052 A 
HETATM   13  C   UNL     1       7.337  25.525  54.713  1.00  0.00     0.105 A 
HETATM   14  C   UNL     1       6.704  24.526  55.411  1.00  0.00     0.105 A 
HETATM   15  O   UNL     1       8.070  25.046  53.673  1.00  0.00    -0.323 OA
HETATM   16  O   UNL     1       6.957  23.292  54.898  1.00  0.00    -0.323 OA
HETATM   17  C   UNL     1       5.905  24.797  56.499  1.00  0.00     0.040 A 
HETATM   18  C   UNL     1       7.795  23.633  53.773  1.00  0.00     0.352 A 
HETATM   19  C   UNL     1       5.742  26.137  56.867  1.00  0.00     0.015 A 
ENDBRANCH   5  11
BRANCH  10  20
HETATM   20  N   UNL     1       4.196  27.987  54.279  1.00  0.00    -0.286 NA
HETATM   21  H   UNL     1       3.274  27.625  54.514  1.00  0.00     0.125 HD
HETATM   22  H   UNL     1       4.933  27.340  54.533  1.00  0.00     0.125 HD
ENDBRANCH  10  20
BRANCH   1  23
HETATM   23  C   UNL     1       7.557  30.936  59.201  1.00  0.00    -0.007 A 
HETATM   24  C   UNL     1       7.134  32.143  59.792  1.00  0.00     0.014 A 
HETATM   25  C   UNL     1       7.797  32.696  60.892  1.00  0.00     0.001 A 
HETATM   26  C   UNL     1       8.908  32.055  61.426  1.00  0.00     0.000 A 
HETATM   27  C   UNL     1       9.360  30.868  60.857  1.00  0.00     0.001 A 
HETATM   28  C   UNL     1       8.693  30.317  59.756  1.00  0.00     0.014 A 
ENDBRANCH   1  23
TORSDOF 3
ENDMDL
MODEL 10
REMARK VINA RESULT:      -8.1      8.873     13.514
REMARK  3 active torsions:
REMARK  status: ('A' for Active; 'I' for Inactive)
REMARK    1  A    between atoms: C_4  and  C_5 
REMARK    2  A    between atoms: C_9  and  C_10 
REMARK    3  A    between atoms: C_23  and  N_24 
ROOT
HETATM    1  C   UNL     1       5.895  37.416  63.366  1.00  0.00     0.070 A 
HETATM    2  N   UNL     1       5.352  37.162  64.576  1.00  0.00    -0.228 NA
HETATM    3  C   UNL     1       4.986  35.933  64.924  1.00  0.00     0.165 A 
HETATM    4  C   UNL     1       5.156  34.836  64.074  1.00  0.00     0.063 A 
HETATM    5  C   UNL     1       5.709  35.089  62.775  1.00  0.00    -0.006 A 
HETATM    6  C   UNL     1       6.077  36.400  62.444  1.00  0.00     0.046 A 
HETATM    7  N   UNL     1       4.465  35.834  66.137  1.00  0.00    -0.222 NA
HETATM    8  C   UNL     1       4.094  34.628  66.554  1.00  0.00     0.237 A 
HETATM    9  N   UNL     1       4.221  33.495  65.869  1.00  0.00    -0.229 NA
HETATM   10  C   UNL     1       4.760  33.607  64.650  1.00  0.00     0.117 A 
ENDROOT
BRANCH   5  11
HETATM   11  C   UNL     1       5.929  34.048  61.754  1.00  0.00    -0.022 A 
HETATM   12  C   UNL     1       7.104  33.274  61.755  1.00  0.00     0.052 A 
HETATM   13  C   UNL     1       7.267  32.325  60.766  1.00  0.00     0.105 A 
HETATM   14  C   UNL     1       6.307  32.103  59.808  1.00  0.00     0.105 A 
HETATM   15  O   UNL     1       8.352  31.521  60.606  1.00  0.00    -0.323 OA
HETATM   16  O   UNL     1       6.667  31.134  58.925  1.00  0.00    -0.323 OA
HETATM   17  C   UNL     1       5.130  32.816  59.785  1.00  0.00     0.040 A 
HETATM   18  C   UNL     1       7.982  30.795  59.415  1.00  0.00     0.352 A 
HETATM   19  C   UNL     1       4.944  33.796  60.766  1.00  0.00     0.015 A 
ENDBRANCH   5  11
BRANCH  10  20
HETATM   20  N   UNL     1       4.863  32.383  63.992  1.00  0.00    -0.286 NA
HETATM   21  H   UNL     1       4.102  32.326  63.321  1.00  0.00     0.125 HD
HETATM   22  H   UNL     1       4.866  31.596  64.630  1.00  0.00     0.125 HD
ENDBRANCH  10  20
BRANCH   1  23
HETATM   23  C   UNL     1       6.301  38.819  63.127  1.00  0.00    -0.007 A 
HETATM   24  C   UNL     1       6.196  39.776  64.155  1.00  0.00     0.014 A 
HETATM   25  C   UNL     1       6.591  41.104  63.967  1.00  0.00     0.001 A 
HETATM   26  C   UNL     1       7.099  41.509  62.738  1.00  0.00     0.000 A 
HETATM   27  C   UNL     1       7.202  40.591  61.698  1.00  0.00     0.001 A 
HETATM   28  C   UNL     1       6.806  39.262  61.890  1.00  0.00     0.014 A 
ENDBRANCH   1  23
TORSDOF 3
ENDMDL
