MODEL 1
REMARK VINA RESULT:     -10.8      0.000      0.000
REMARK  5 active torsions:
REMARK  status: ('A' for Active; 'I' for Inactive)
REMARK    1  A    between atoms: C_3  and  N_4 
REMARK       I    between atoms: N_4  and  C_5 
REMARK    2  A    between atoms: C_5  and  C_6 
REMARK    3  A    between atoms: C_6  and  C_7 
REMARK    4  A    between atoms: C_9  and  N_10 
REMARK       I    between atoms: N_10  and  C_11 
REMARK       I    between atoms: C_11  and  N_12 
REMARK    5  A    between atoms: N_12  and  C_13 
ROOT
HETATM    1  C   UNL     1       7.755  28.168  57.151  1.00  0.00     0.052 A 
HETATM    2  N   UNL     1       7.501  28.977  58.254  1.00  0.00    -0.228 NA
HETATM    3  C   UNL     1       8.495  29.818  58.427  1.00  0.00     0.174 A 
HETATM    4  S   UNL     1       9.744  29.743  57.273  1.00  0.00    -0.062 SA
HETATM    5  C   UNL     1       8.938  28.446  56.494  1.00  0.00     0.081 A 
ENDROOT
BRANCH   1   6
HETATM    6  C   UNL     1       6.785  27.071  56.846  1.00  0.00     0.163 C 
BRANCH   6   7
HETATM    7  C   UNL     1       7.481  25.760  56.488  1.00  0.00     0.227 C 
HETATM    8  N   UNL     1       7.137  25.266  55.244  1.00  0.00    -0.326 N 
HETATM    9  H   UNL     1       6.671  25.946  54.646  1.00  0.00     0.169 HD
HETATM   10  O   UNL     1       8.334  25.298  57.241  1.00  0.00    -0.273 OA
BRANCH   8  11
HETATM   11  C   UNL     1       7.425  24.026  54.634  1.00  0.00     0.042 A 
HETATM   12  C   UNL     1       7.763  23.805  53.286  1.00  0.00    -0.035 A 
HETATM   13  C   UNL     1       7.924  24.880  52.249  1.00  0.00     0.050 C 
HETATM   14  C   UNL     1       8.016  22.483  52.855  1.00  0.00     0.011 A 
HETATM   15  C   UNL     1       7.991  21.408  53.743  1.00  0.00     0.024 A 
HETATM   16  C   UNL     1       7.709  21.642  55.079  1.00  0.00     0.036 A 
HETATM   17  C   UNL     1       7.433  22.934  55.522  1.00  0.00     0.053 A 
HETATM   18 CL   UNL     1       7.700  20.333  56.196  1.00  0.00    -0.084 Cl
ENDBRANCH   8  11
ENDBRANCH   6   7
ENDBRANCH   1   6
BRANCH   3  19
HETATM   19  N   UNL     1       8.478  30.732  59.446  1.00  0.00    -0.287 N 
HETATM   20  C   UNL     1       9.183  31.898  59.498  1.00  0.00     0.326 C 
HETATM   21  N   UNL     1       9.014  32.646  60.637  1.00  0.00    -0.309 N 
HETATM   22  O   UNL     1      10.021  32.278  58.684  1.00  0.00    -0.247 OA
HETATM   23  H   UNL     1       9.767  33.314  60.757  1.00  0.00     0.170 HD
HETATM   24  H   UNL     1       8.176  30.348  60.328  1.00  0.00     0.172 HD
BRANCH  21  25
HETATM   25  C   UNL     1       7.983  32.669  61.592  1.00  0.00     0.036 A 
HETATM   26  C   UNL     1       8.354  32.548  62.938  1.00  0.00     0.032 A 
HETATM   27  C   UNL     1       7.386  32.570  63.944  1.00  0.00     0.044 A 
HETATM   28  C   UNL     1       6.051  32.744  63.605  1.00  0.00     0.116 A 
HETATM   29  F   UNL     1       5.123  32.776  64.570  1.00  0.00    -0.206 F 
HETATM   30  C   UNL     1       5.669  32.901  62.280  1.00  0.00     0.044 A 
HETATM   31  C   UNL     1       6.635  32.867  61.270  1.00  0.00     0.032 A 
ENDBRANCH  21  25
ENDBRANCH   3  19
TORSDOF 5
ENDMDL
MODEL 2
REMARK VINA RESULT:     -10.6      4.551     10.361
REMARK  5 active torsions:
REMARK  status: ('A' for Active; 'I' for Inactive)
REMARK    1  A    between atoms: C_3  and  N_4 
REMARK       I    between atoms: N_4  and  C_5 
REMARK    2  A    between atoms: C_5  and  C_6 
REMARK    3  A    between atoms: C_6  and  C_7 
REMARK    4  A    between atoms: C_9  and  N_10 
REMARK       I    between atoms: N_10  and  C_11 
REMARK       I    between atoms: C_11  and  N_12 
REMARK    5  A    between atoms: N_12  and  C_13 
ROOT
HETATM    1  C   UNL     1       8.991  29.260  57.080  1.00  0.00     0.052 A 
HETATM    2  N   UNL     1       8.932  27.870  57.062  1.00  0.00    -0.228 NA
HETATM    3  C   UNL     1       7.896  27.478  56.357  1.00  0.00     0.174 A 
HETATM    4  S   UNL     1       6.977  28.713  55.631  1.00  0.00    -0.062 SA
HETATM    5  C   UNL     1       7.999  29.887  56.349  1.00  0.00     0.081 A 
ENDROOT
BRANCH   1   6
HETATM    6  C   UNL     1      10.045  29.909  57.918  1.00  0.00     0.163 C 
BRANCH   6   7
HETATM    7  C   UNL     1       9.526  31.136  58.663  1.00  0.00     0.227 C 
HETATM    8  N   UNL     1       8.516  30.859  59.563  1.00  0.00    -0.326 N 
HETATM    9  H   UNL     1       8.425  29.868  59.786  1.00  0.00     0.169 HD
HETATM   10  O   UNL     1      10.073  32.224  58.500  1.00  0.00    -0.273 OA
BRANCH   8  11
HETATM   11  C   UNL     1       7.679  31.721  60.304  1.00  0.00     0.042 A 
HETATM   12  C   UNL     1       6.457  32.281  59.885  1.00  0.00    -0.035 A 
HETATM   13  C   UNL     1       5.793  32.014  58.564  1.00  0.00     0.050 C 
HETATM   14  C   UNL     1       5.758  33.130  60.772  1.00  0.00     0.011 A 
HETATM   15  C   UNL     1       6.223  33.381  62.062  1.00  0.00     0.024 A 
HETATM   16  C   UNL     1       7.400  32.784  62.484  1.00  0.00     0.036 A 
HETATM   17  C   UNL     1       8.119  31.962  61.619  1.00  0.00     0.053 A 
HETATM   18 CL   UNL     1       7.977  33.059  64.082  1.00  0.00    -0.084 Cl
ENDBRANCH   8  11
ENDBRANCH   6   7
ENDBRANCH   1   6
BRANCH   3  19
HETATM   19  N   UNL     1       7.624  26.147  56.180  1.00  0.00    -0.287 N 
HETATM   20  C   UNL     1       6.477  25.503  56.535  1.00  0.00     0.326 C 
HETATM   21  N   UNL     1       6.443  24.156  56.270  1.00  0.00    -0.309 N 
HETATM   22  O   UNL     1       5.533  25.986  57.156  1.00  0.00    -0.247 OA
HETATM   23  H   UNL     1       5.729  23.689  56.816  1.00  0.00     0.170 HD
HETATM   24  H   UNL     1       8.449  25.577  56.079  1.00  0.00     0.172 HD
BRANCH  21  25
HETATM   25  C   UNL     1       7.174  23.366  55.365  1.00  0.00     0.036 A 
HETATM   26  C   UNL     1       7.962  22.340  55.903  1.00  0.00     0.032 A 
HETATM   27  C   UNL     1       8.709  21.509  55.066  1.00  0.00     0.044 A 
HETATM   28  C   UNL     1       8.644  21.685  53.690  1.00  0.00     0.116 A 
HETATM   29  F   UNL     1       9.352  20.883  52.886  1.00  0.00    -0.206 F 
HETATM   30  C   UNL     1       7.841  22.675  53.138  1.00  0.00     0.044 A 
HETATM   31  C   UNL     1       7.101  23.515  53.975  1.00  0.00     0.032 A 
ENDBRANCH  21  25
ENDBRANCH   3  19
TORSDOF 5
ENDMDL
MODEL 3
REMARK VINA RESULT:     -10.3      6.661      9.676
REMARK  5 active torsions:
REMARK  status: ('A' for Active; 'I' for Inactive)
REMARK    1  A    between atoms: C_3  and  N_4 
REMARK       I    between atoms: N_4  and  C_5 
REMARK    2  A    between atoms: C_5  and  C_6 
REMARK    3  A    between atoms: C_6  and  C_7 
REMARK    4  A    between atoms: C_9  and  N_10 
REMARK       I    between atoms: N_10  and  C_11 
REMARK       I    between atoms: C_11  and  N_12 
REMARK    5  A    between atoms: N_12  and  C_13 
ROOT
HETATM    1  C   UNL     1       4.720  28.306  54.801  1.00  0.00     0.052 A 
HETATM    2  N   UNL     1       4.843  27.979  53.454  1.00  0.00    -0.228 NA
HETATM    3  C   UNL     1       4.310  28.927  52.716  1.00  0.00     0.174 A 
HETATM    4  S   UNL     1       3.696  30.272  53.560  1.00  0.00    -0.062 SA
HETATM    5  C   UNL     1       4.118  29.525  55.044  1.00  0.00     0.081 A 
ENDROOT
BRANCH   1   6
HETATM    6  C   UNL     1       5.177  27.303  55.811  1.00  0.00     0.163 C 
BRANCH   6   7
HETATM    7  C   UNL     1       6.375  26.490  55.326  1.00  0.00     0.227 C 
HETATM    8  N   UNL     1       6.035  25.276  54.761  1.00  0.00    -0.326 N 
HETATM    9  H   UNL     1       5.047  25.195  54.523  1.00  0.00     0.169 HD
HETATM   10  O   UNL     1       7.501  26.977  55.374  1.00  0.00    -0.273 OA
BRANCH   8  11
HETATM   11  C   UNL     1       6.841  24.190  54.357  1.00  0.00     0.042 A 
HETATM   12  C   UNL     1       7.487  24.030  53.118  1.00  0.00    -0.035 A 
HETATM   13  C   UNL     1       7.470  25.034  52.000  1.00  0.00     0.050 C 
HETATM   14  C   UNL     1       8.254  22.864  52.895  1.00  0.00     0.011 A 
HETATM   15  C   UNL     1       8.425  21.901  53.888  1.00  0.00     0.024 A 
HETATM   16  C   UNL     1       7.828  22.091  55.123  1.00  0.00     0.036 A 
HETATM   17  C   UNL     1       7.047  23.222  55.359  1.00  0.00     0.053 A 
HETATM   18 CL   UNL     1       8.049  20.928  56.372  1.00  0.00    -0.084 Cl
ENDBRANCH   8  11
ENDBRANCH   6   7
ENDBRANCH   1   6
BRANCH   3  19
HETATM   19  N   UNL     1       4.312  28.844  51.350  1.00  0.00    -0.287 N 
HETATM   20  C   UNL     1       5.211  29.427  50.506  1.00  0.00     0.326 C 
HETATM   21  N   UNL     1       4.997  29.213  49.167  1.00  0.00    -0.309 N 
HETATM   22  O   UNL     1       6.112  30.199  50.824  1.00  0.00    -0.247 OA
HETATM   23  H   UNL     1       5.485  29.897  48.600  1.00  0.00     0.170 HD
HETATM   24  H   UNL     1       3.414  28.607  50.958  1.00  0.00     0.172 HD
BRANCH  21  25
HETATM   25  C   UNL     1       4.284  28.211  48.486  1.00  0.00     0.036 A 
HETATM   26  C   UNL     1       3.121  28.601  47.809  1.00  0.00     0.032 A 
HETATM   27  C   UNL     1       2.364  27.663  47.103  1.00  0.00     0.044 A 
HETATM   28  C   UNL     1       2.788  26.342  47.050  1.00  0.00     0.116 A 
HETATM   29  F   UNL     1       2.068  25.444  46.366  1.00  0.00    -0.206 F 
HETATM   30  C   UNL     1       3.957  25.945  47.686  1.00  0.00     0.044 A 
HETATM   31  C   UNL     1       4.709  26.880  48.403  1.00  0.00     0.032 A 
ENDBRANCH  21  25
ENDBRANCH   3  19
TORSDOF 5
ENDMDL
MODEL 4
REMARK VINA RESULT:     -10.3      3.633      5.041
REMARK  5 active torsions:
REMARK  status: ('A' for Active; 'I' for Inactive)
REMARK    1  A    between atoms: C_3  and  N_4 
REMARK       I    between atoms: N_4  and  C_5 
REMARK    2  A    between atoms: C_5  and  C_6 
REMARK    3  A    between atoms: C_6  and  C_7 
REMARK    4  A    between atoms: C_9  and  N_10 
REMARK       I    between atoms: N_10  and  C_11 
REMARK       I    between atoms: C_11  and  N_12 
REMARK    5  A    between atoms: N_12  and  C_13 
ROOT
HETATM    1  C   UNL     1       5.248  27.661  52.314  1.00  0.00     0.052 A 
HETATM    2  N   UNL     1       5.798  27.716  53.591  1.00  0.00    -0.228 NA
HETATM    3  C   UNL     1       5.471  28.851  54.166  1.00  0.00     0.174 A 
HETATM    4  S   UNL     1       4.457  29.879  53.266  1.00  0.00    -0.062 SA
HETATM    5  C   UNL     1       4.484  28.759  51.969  1.00  0.00     0.081 A 
ENDROOT
BRANCH   1   6
HETATM    6  C   UNL     1       5.588  26.487  51.453  1.00  0.00     0.163 C 
BRANCH   6   7
HETATM    7  C   UNL     1       5.573  25.171  52.227  1.00  0.00     0.227 C 
HETATM    8  N   UNL     1       6.665  24.995  53.054  1.00  0.00    -0.326 N 
HETATM    9  H   UNL     1       7.195  25.849  53.222  1.00  0.00     0.169 HD
HETATM   10  O   UNL     1       4.596  24.431  52.149  1.00  0.00    -0.273 OA
BRANCH   8  11
HETATM   11  C   UNL     1       7.094  23.868  53.787  1.00  0.00     0.042 A 
HETATM   12  C   UNL     1       7.058  23.703  55.184  1.00  0.00    -0.035 A 
HETATM   13  C   UNL     1       6.501  24.704  56.157  1.00  0.00     0.050 C 
HETATM   14  C   UNL     1       7.538  22.496  55.740  1.00  0.00     0.011 A 
HETATM   15  C   UNL     1       7.993  21.452  54.937  1.00  0.00     0.024 A 
HETATM   16  C   UNL     1       7.977  21.602  53.560  1.00  0.00     0.036 A 
HETATM   17  C   UNL     1       7.530  22.793  52.989  1.00  0.00     0.053 A 
HETATM   18 CL   UNL     1       8.509  20.315  52.549  1.00  0.00    -0.084 Cl
ENDBRANCH   8  11
ENDBRANCH   6   7
ENDBRANCH   1   6
BRANCH   3  19
HETATM   19  N   UNL     1       5.886  29.143  55.438  1.00  0.00    -0.287 N 
HETATM   20  C   UNL     1       5.463  28.538  56.585  1.00  0.00     0.326 C 
HETATM   21  N   UNL     1       6.013  29.015  57.748  1.00  0.00    -0.309 N 
HETATM   22  O   UNL     1       4.572  27.697  56.677  1.00  0.00    -0.247 OA
HETATM   23  H   UNL     1       5.455  28.759  58.554  1.00  0.00     0.170 HD
HETATM   24  H   UNL     1       6.276  30.067  55.534  1.00  0.00     0.172 HD
BRANCH  21  25
HETATM   25  C   UNL     1       7.200  29.727  57.994  1.00  0.00     0.036 A 
HETATM   26  C   UNL     1       7.089  30.937  58.692  1.00  0.00     0.032 A 
HETATM   27  C   UNL     1       8.226  31.694  58.981  1.00  0.00     0.044 A 
HETATM   28  C   UNL     1       9.476  31.227  58.598  1.00  0.00     0.116 A 
HETATM   29  F   UNL     1      10.567  31.948  58.883  1.00  0.00    -0.206 F 
HETATM   30  C   UNL     1       9.608  30.013  57.937  1.00  0.00     0.044 A 
HETATM   31  C   UNL     1       8.470  29.259  57.636  1.00  0.00     0.032 A 
ENDBRANCH  21  25
ENDBRANCH   3  19
TORSDOF 5
ENDMDL
MODEL 5
REMARK VINA RESULT:     -10.3      2.176      2.896
REMARK  5 active torsions:
REMARK  status: ('A' for Active; 'I' for Inactive)
REMARK    1  A    between atoms: C_3  and  N_4 
REMARK       I    between atoms: N_4  and  C_5 
REMARK    2  A    between atoms: C_5  and  C_6 
REMARK    3  A    between atoms: C_6  and  C_7 
REMARK    4  A    between atoms: C_9  and  N_10 
REMARK       I    between atoms: N_10  and  C_11 
REMARK       I    between atoms: C_11  and  N_12 
REMARK    5  A    between atoms: N_12  and  C_13 
ROOT
HETATM    1  C   UNL     1       6.315  28.398  54.794  1.00  0.00     0.052 A 
HETATM    2  N   UNL     1       7.269  28.548  55.796  1.00  0.00    -0.228 NA
HETATM    3  C   UNL     1       6.959  29.576  56.553  1.00  0.00     0.174 A 
HETATM    4  S   UNL     1       5.508  30.376  56.168  1.00  0.00    -0.062 SA
HETATM    5  C   UNL     1       5.279  29.311  54.845  1.00  0.00     0.081 A 
ENDROOT
BRANCH   1   6
HETATM    6  C   UNL     1       6.541  27.340  53.762  1.00  0.00     0.163 C 
BRANCH   6   7
HETATM    7  C   UNL     1       6.444  25.930  54.339  1.00  0.00     0.227 C 
HETATM    8  N   UNL     1       7.668  25.362  54.637  1.00  0.00    -0.326 N 
HETATM    9  H   UNL     1       8.436  26.031  54.665  1.00  0.00     0.169 HD
HETATM   10  O   UNL     1       5.342  25.447  54.585  1.00  0.00    -0.273 OA
BRANCH   8  11
HETATM   11  C   UNL     1       8.004  24.046  55.019  1.00  0.00     0.042 A 
HETATM   12  C   UNL     1       8.467  23.621  56.278  1.00  0.00    -0.035 A 
HETATM   13  C   UNL     1       8.644  24.510  57.477  1.00  0.00     0.050 C 
HETATM   14  C   UNL     1       8.757  22.252  56.471  1.00  0.00     0.011 A 
HETATM   15  C   UNL     1       8.544  21.311  55.465  1.00  0.00     0.024 A 
HETATM   16  C   UNL     1       8.039  21.730  54.245  1.00  0.00     0.036 A 
HETATM   17  C   UNL     1       7.768  23.079  54.023  1.00  0.00     0.053 A 
HETATM   18 CL   UNL     1       7.743  20.581  52.998  1.00  0.00    -0.084 Cl
ENDBRANCH   8  11
ENDBRANCH   6   7
ENDBRANCH   1   6
BRANCH   3  19
HETATM   19  N   UNL     1       7.742  29.928  57.620  1.00  0.00    -0.287 N 
HETATM   20  C   UNL     1       9.092  30.119  57.604  1.00  0.00     0.326 C 
HETATM   21  N   UNL     1       9.661  30.454  58.808  1.00  0.00    -0.309 N 
HETATM   22  O   UNL     1       9.844  29.916  56.654  1.00  0.00    -0.247 OA
HETATM   23  H   UNL     1      10.660  30.282  58.806  1.00  0.00     0.170 HD
HETATM   24  H   UNL     1       7.328  29.713  58.513  1.00  0.00     0.172 HD
BRANCH  21  25
HETATM   25  C   UNL     1       9.113  31.021  59.971  1.00  0.00     0.036 A 
HETATM   26  C   UNL     1       9.317  30.334  61.176  1.00  0.00     0.032 A 
HETATM   27  C   UNL     1       8.810  30.841  62.374  1.00  0.00     0.044 A 
HETATM   28  C   UNL     1       8.125  32.048  62.372  1.00  0.00     0.116 A 
HETATM   29  F   UNL     1       7.646  32.539  63.522  1.00  0.00    -0.206 F 
HETATM   30  C   UNL     1       7.944  32.760  61.193  1.00  0.00     0.044 A 
HETATM   31  C   UNL     1       8.441  32.249  59.991  1.00  0.00     0.032 A 
ENDBRANCH  21  25
ENDBRANCH   3  19
TORSDOF 5
ENDMDL
MODEL 6
REMARK VINA RESULT:     -10.3      4.689     10.774
REMARK  5 active torsions:
REMARK  status: ('A' for Active; 'I' for Inactive)
REMARK    1  A    between atoms: C_3  and  N_4 
REMARK       I    between atoms: N_4  and  C_5 
REMARK    2  A    between atoms: C_5  and  C_6 
REMARK    3  A    between atoms: C_6  and  C_7 
REMARK    4  A    between atoms: C_9  and  N_10 
REMARK       I    between atoms: N_10  and  C_11 
REMARK       I    between atoms: C_11  and  N_12 
REMARK    5  A    between atoms: N_12  and  C_13 
ROOT
HETATM    1  C   UNL     1       6.852  30.058  57.803  1.00  0.00     0.052 A 
HETATM    2  N   UNL     1       6.218  28.972  57.207  1.00  0.00    -0.228 NA
HETATM    3  C   UNL     1       7.112  28.184  56.654  1.00  0.00     0.174 A 
HETATM    4  S   UNL     1       8.738  28.643  56.857  1.00  0.00    -0.062 SA
HETATM    5  C   UNL     1       8.230  30.041  57.709  1.00  0.00     0.081 A 
ENDROOT
BRANCH   1   6
HETATM    6  C   UNL     1       5.998  31.128  58.403  1.00  0.00     0.163 C 
BRANCH   6   7
HETATM    7  C   UNL     1       6.717  31.897  59.509  1.00  0.00     0.227 C 
HETATM    8  N   UNL     1       6.339  31.527  60.785  1.00  0.00    -0.326 N 
HETATM    9  H   UNL     1       5.831  30.645  60.824  1.00  0.00     0.169 HD
HETATM   10  O   UNL     1       7.612  32.687  59.218  1.00  0.00    -0.273 OA
BRANCH   8  11
HETATM   11  C   UNL     1       6.640  32.102  62.039  1.00  0.00     0.042 A 
HETATM   12  C   UNL     1       7.913  32.240  62.623  1.00  0.00    -0.035 A 
HETATM   13  C   UNL     1       9.207  31.831  61.980  1.00  0.00     0.050 C 
HETATM   14  C   UNL     1       8.015  32.844  63.897  1.00  0.00     0.011 A 
HETATM   15  C   UNL     1       6.897  33.350  64.557  1.00  0.00     0.024 A 
HETATM   16  C   UNL     1       5.655  33.257  63.951  1.00  0.00     0.036 A 
HETATM   17  C   UNL     1       5.525  32.644  62.706  1.00  0.00     0.053 A 
HETATM   18 CL   UNL     1       4.265  33.900  64.737  1.00  0.00    -0.084 Cl
ENDBRANCH   8  11
ENDBRANCH   6   7
ENDBRANCH   1   6
BRANCH   3  19
HETATM   19  N   UNL     1       6.738  27.036  56.008  1.00  0.00    -0.287 N 
HETATM   20  C   UNL     1       5.601  26.853  55.278  1.00  0.00     0.326 C 
HETATM   21  N   UNL     1       5.436  25.603  54.735  1.00  0.00    -0.309 N 
HETATM   22  O   UNL     1       4.679  27.656  55.154  1.00  0.00    -0.247 OA
HETATM   23  H   UNL     1       4.470  25.435  54.480  1.00  0.00     0.170 HD
HETATM   24  H   UNL     1       7.178  26.206  56.373  1.00  0.00     0.172 HD
BRANCH  21  25
HETATM   25  C   UNL     1       6.360  24.585  54.442  1.00  0.00     0.036 A 
HETATM   26  C   UNL     1       6.795  24.478  53.114  1.00  0.00     0.032 A 
HETATM   27  C   UNL     1       7.719  23.497  52.749  1.00  0.00     0.044 A 
HETATM   28  C   UNL     1       8.229  22.643  53.717  1.00  0.00     0.116 A 
HETATM   29  F   UNL     1       9.122  21.708  53.370  1.00  0.00    -0.206 F 
HETATM   30  C   UNL     1       7.836  22.757  55.044  1.00  0.00     0.044 A 
HETATM   31  C   UNL     1       6.902  23.731  55.410  1.00  0.00     0.032 A 
ENDBRANCH  21  25
ENDBRANCH   3  19
TORSDOF 5
ENDMDL
MODEL 7
REMARK VINA RESULT:     -10.3      4.483     10.676
REMARK  5 active torsions:
REMARK  status: ('A' for Active; 'I' for Inactive)
REMARK    1  A    between atoms: C_3  and  N_4 
REMARK       I    between atoms: N_4  and  C_5 
REMARK    2  A    between atoms: C_5  and  C_6 
REMARK    3  A    between atoms: C_6  and  C_7 
REMARK    4  A    between atoms: C_9  and  N_10 
REMARK       I    between atoms: N_10  and  C_11 
REMARK       I    between atoms: C_11  and  N_12 
REMARK    5  A    between atoms: N_12  and  C_13 
ROOT
HETATM    1  C   UNL     1       8.040  29.685  58.334  1.00  0.00     0.052 A 
HETATM    2  N   UNL     1       8.007  28.310  58.127  1.00  0.00    -0.228 NA
HETATM    3  C   UNL     1       7.179  28.029  57.146  1.00  0.00     0.174 A 
HETATM    4  S   UNL     1       6.448  29.362  56.382  1.00  0.00    -0.062 SA
HETATM    5  C   UNL     1       7.249  30.417  57.470  1.00  0.00     0.081 A 
ENDROOT
BRANCH   1   6
HETATM    6  C   UNL     1       8.850  30.204  59.479  1.00  0.00     0.163 C 
BRANCH   6   7
HETATM    7  C   UNL     1       8.366  31.567  59.966  1.00  0.00     0.227 C 
HETATM    8  N   UNL     1       7.335  31.501  60.883  1.00  0.00    -0.326 N 
HETATM    9  H   UNL     1       7.205  30.575  61.289  1.00  0.00     0.169 HD
HETATM   10  O   UNL     1       8.955  32.585  59.611  1.00  0.00    -0.273 OA
BRANCH   8  11
HETATM   11  C   UNL     1       6.520  32.516  61.429  1.00  0.00     0.042 A 
HETATM   12  C   UNL     1       6.686  33.159  62.669  1.00  0.00    -0.035 A 
HETATM   13  C   UNL     1       7.813  32.904  63.630  1.00  0.00     0.050 C 
HETATM   14  C   UNL     1       5.760  34.157  63.048  1.00  0.00     0.011 A 
HETATM   15  C   UNL     1       4.724  34.551  62.203  1.00  0.00     0.024 A 
HETATM   16  C   UNL     1       4.598  33.948  60.962  1.00  0.00     0.036 A 
HETATM   17  C   UNL     1       5.486  32.946  60.576  1.00  0.00     0.053 A 
HETATM   18 CL   UNL     1       3.343  34.439  59.892  1.00  0.00    -0.084 Cl
ENDBRANCH   8  11
ENDBRANCH   6   7
ENDBRANCH   1   6
BRANCH   3  19
HETATM   19  N   UNL     1       6.976  26.736  56.742  1.00  0.00    -0.287 N 
HETATM   20  C   UNL     1       5.786  26.072  56.725  1.00  0.00     0.326 C 
HETATM   21  N   UNL     1       5.836  24.771  56.290  1.00  0.00    -0.309 N 
HETATM   22  O   UNL     1       4.714  26.489  57.158  1.00  0.00    -0.247 OA
HETATM   23  H   UNL     1       5.017  24.250  56.584  1.00  0.00     0.170 HD
HETATM   24  H   UNL     1       7.809  26.170  56.769  1.00  0.00     0.172 HD
BRANCH  21  25
HETATM   25  C   UNL     1       6.773  24.090  55.494  1.00  0.00     0.036 A 
HETATM   26  C   UNL     1       7.745  23.329  56.159  1.00  0.00     0.032 A 
HETATM   27  C   UNL     1       8.704  22.618  55.435  1.00  0.00     0.044 A 
HETATM   28  C   UNL     1       8.673  22.644  54.047  1.00  0.00     0.116 A 
HETATM   29  F   UNL     1       9.587  21.956  53.352  1.00  0.00    -0.206 F 
HETATM   30  C   UNL     1       7.696  23.365  53.372  1.00  0.00     0.044 A 
HETATM   31  C   UNL     1       6.742  24.086  54.095  1.00  0.00     0.032 A 
ENDBRANCH  21  25
ENDBRANCH   3  19
TORSDOF 5
ENDMDL
MODEL 8
REMARK VINA RESULT:     -10.2      4.995     10.018
REMARK  5 active torsions:
REMARK  status: ('A' for Active; 'I' for Inactive)
REMARK    1  A    between atoms: C_3  and  N_4 
REMARK       I    between atoms: N_4  and  C_5 
REMARK    2  A    between atoms: C_5  and  C_6 
REMARK    3  A    between atoms: C_6  and  C_7 
REMARK    4  A    between atoms: C_9  and  N_10 
REMARK       I    between atoms: N_10  and  C_11 
REMARK       I    between atoms: C_11  and  N_12 
REMARK    5  A    between atoms: N_12  and  C_13 
ROOT
HETATM    1  C   UNL     1       4.871  27.970  55.159  1.00  0.00     0.052 A 
HETATM    2  N   UNL     1       5.759  26.899  55.174  1.00  0.00    -0.228 NA
HETATM    3  C   UNL     1       5.737  26.288  54.011  1.00  0.00     0.174 A 
HETATM    4  S   UNL     1       4.725  26.975  52.827  1.00  0.00    -0.062 SA
HETATM    5  C   UNL     1       4.219  28.160  53.956  1.00  0.00     0.081 A 
ENDROOT
BRANCH   1   6
HETATM    6  C   UNL     1       4.672  28.736  56.428  1.00  0.00     0.163 C 
BRANCH   6   7
HETATM    7  C   UNL     1       5.735  29.812  56.633  1.00  0.00     0.227 C 
HETATM    8  N   UNL     1       6.809  29.400  57.398  1.00  0.00    -0.326 N 
HETATM    9  H   UNL     1       6.869  28.389  57.512  1.00  0.00     0.169 HD
HETATM   10  O   UNL     1       5.628  30.891  56.055  1.00  0.00    -0.273 OA
BRANCH   8  11
HETATM   11  C   UNL     1       7.888  30.131  57.941  1.00  0.00     0.042 A 
HETATM   12  C   UNL     1       9.212  30.166  57.465  1.00  0.00    -0.035 A 
HETATM   13  C   UNL     1       9.707  29.450  56.240  1.00  0.00     0.050 C 
HETATM   14  C   UNL     1      10.161  30.959  58.148  1.00  0.00     0.011 A 
HETATM   15  C   UNL     1       9.804  31.744  59.243  1.00  0.00     0.024 A 
HETATM   16  C   UNL     1       8.487  31.745  59.673  1.00  0.00     0.036 A 
HETATM   17  C   UNL     1       7.538  30.952  59.030  1.00  0.00     0.053 A 
HETATM   18 CL   UNL     1       8.019  32.727  61.006  1.00  0.00    -0.084 Cl
ENDBRANCH   8  11
ENDBRANCH   6   7
ENDBRANCH   1   6
BRANCH   3  19
HETATM   19  N   UNL     1       6.535  25.202  53.769  1.00  0.00    -0.287 N 
HETATM   20  C   UNL     1       7.611  25.160  52.932  1.00  0.00     0.326 C 
HETATM   21  N   UNL     1       8.248  23.947  52.842  1.00  0.00    -0.309 N 
HETATM   22  O   UNL     1       7.988  26.060  52.186  1.00  0.00    -0.247 OA
HETATM   23  H   UNL     1       8.818  23.890  52.006  1.00  0.00     0.170 HD
HETATM   24  H   UNL     1       6.093  24.322  53.979  1.00  0.00     0.172 HD
BRANCH  21  25
HETATM   25  C   UNL     1       8.275  22.841  53.709  1.00  0.00     0.036 A 
HETATM   26  C   UNL     1       7.931  21.595  53.169  1.00  0.00     0.032 A 
HETATM   27  C   UNL     1       7.943  20.450  53.968  1.00  0.00     0.044 A 
HETATM   28  C   UNL     1       8.327  20.547  55.298  1.00  0.00     0.116 A 
HETATM   29  F   UNL     1       8.348  19.448  56.063  1.00  0.00    -0.206 F 
HETATM   30  C   UNL     1       8.704  21.768  55.841  1.00  0.00     0.044 A 
HETATM   31  C   UNL     1       8.682  22.918  55.046  1.00  0.00     0.032 A 
ENDBRANCH  21  25
ENDBRANCH   3  19
TORSDOF 5
ENDMDL
MODEL 9
REMARK VINA RESULT:     -10.1      4.604     10.628
REMARK  5 active torsions:
REMARK  status: ('A' for Active; 'I' for Inactive)
REMARK    1  A    between atoms: C_3  and  N_4 
REMARK       I    between atoms: N_4  and  C_5 
REMARK    2  A    between atoms: C_5  and  C_6 
REMARK    3  A    between atoms: C_6  and  C_7 
REMARK    4  A    between atoms: C_9  and  N_10 
REMARK       I    between atoms: N_10  and  C_11 
REMARK       I    between atoms: C_11  and  N_12 
REMARK    5  A    between atoms: N_12  and  C_13 
ROOT
HETATM    1  C   UNL     1       7.733  29.616  57.933  1.00  0.00     0.052 A 
HETATM    2  N   UNL     1       8.051  28.495  57.173  1.00  0.00    -0.228 NA
HETATM    3  C   UNL     1       7.104  28.272  56.290  1.00  0.00     0.174 A 
HETATM    4  S   UNL     1       5.828  29.397  56.267  1.00  0.00    -0.062 SA
HETATM    5  C   UNL     1       6.551  30.236  57.575  1.00  0.00     0.081 A 
ENDROOT
BRANCH   1   6
HETATM    6  C   UNL     1       8.639  29.979  59.065  1.00  0.00     0.163 C 
BRANCH   6   7
HETATM    7  C   UNL     1       8.326  31.356  59.644  1.00  0.00     0.227 C 
HETATM    8  N   UNL     1       7.459  31.328  60.719  1.00  0.00    -0.326 N 
HETATM    9  H   UNL     1       7.342  30.401  61.129  1.00  0.00     0.169 HD
HETATM   10  O   UNL     1       8.908  32.346  59.209  1.00  0.00    -0.273 OA
BRANCH   8  11
HETATM   11  C   UNL     1       6.809  32.375  61.407  1.00  0.00     0.042 A 
HETATM   12  C   UNL     1       5.685  33.103  60.975  1.00  0.00    -0.035 A 
HETATM   13  C   UNL     1       4.936  32.854  59.697  1.00  0.00     0.050 C 
HETATM   14  C   UNL     1       5.175  34.125  61.807  1.00  0.00     0.011 A 
HETATM   15  C   UNL     1       5.724  34.389  63.060  1.00  0.00     0.024 A 
HETATM   16  C   UNL     1       6.798  33.633  63.500  1.00  0.00     0.036 A 
HETATM   17  C   UNL     1       7.334  32.636  62.688  1.00  0.00     0.053 A 
HETATM   18 CL   UNL     1       7.474  33.926  65.055  1.00  0.00    -0.084 Cl
ENDBRANCH   8  11
ENDBRANCH   6   7
ENDBRANCH   1   6
BRANCH   3  19
HETATM   19  N   UNL     1       7.189  27.225  55.412  1.00  0.00    -0.287 N 
HETATM   20  C   UNL     1       7.610  27.288  54.117  1.00  0.00     0.326 C 
HETATM   21  N   UNL     1       7.594  26.102  53.426  1.00  0.00    -0.309 N 
HETATM   22  O   UNL     1       7.894  28.308  53.494  1.00  0.00    -0.247 OA
HETATM   23  H   UNL     1       7.614  26.256  52.425  1.00  0.00     0.170 HD
HETATM   24  H   UNL     1       6.602  26.443  55.658  1.00  0.00     0.172 HD
BRANCH  21  25
HETATM   25  C   UNL     1       7.605  24.767  53.867  1.00  0.00     0.036 A 
HETATM   26  C   UNL     1       7.737  23.771  52.889  1.00  0.00     0.032 A 
HETATM   27  C   UNL     1       7.764  22.423  53.252  1.00  0.00     0.044 A 
HETATM   28  C   UNL     1       7.690  22.073  54.593  1.00  0.00     0.116 A 
HETATM   29  F   UNL     1       7.726  20.781  54.942  1.00  0.00    -0.206 F 
HETATM   30  C   UNL     1       7.594  23.048  55.577  1.00  0.00     0.044 A 
HETATM   31  C   UNL     1       7.555  24.398  55.216  1.00  0.00     0.032 A 
ENDBRANCH  21  25
ENDBRANCH   3  19
TORSDOF 5
ENDMDL
MODEL 10
REMARK VINA RESULT:     -10.0      4.663     10.489
REMARK  5 active torsions:
REMARK  status: ('A' for Active; 'I' for Inactive)
REMARK    1  A    between atoms: C_3  and  N_4 
REMARK       I    between atoms: N_4  and  C_5 
REMARK    2  A    between atoms: C_5  and  C_6 
REMARK    3  A    between atoms: C_6  and  C_7 
REMARK    4  A    between atoms: C_9  and  N_10 
REMARK       I    between atoms: N_10  and  C_11 
REMARK       I    between atoms: C_11  and  N_12 
REMARK    5  A    between atoms: N_12  and  C_13 
ROOT
HETATM    1  C   UNL     1       6.561  29.029  56.699  1.00  0.00     0.052 A 
HETATM    2  N   UNL     1       7.454  27.964  56.644  1.00  0.00    -0.228 NA
HETATM    3  C   UNL     1       6.821  26.871  56.285  1.00  0.00     0.174 A 
HETATM    4  S   UNL     1       5.165  27.049  55.936  1.00  0.00    -0.062 SA
HETATM    5  C   UNL     1       5.264  28.711  56.344  1.00  0.00     0.081 A 
ENDROOT
BRANCH   1   6
HETATM    6  C   UNL     1       7.068  30.348  57.189  1.00  0.00     0.163 C 
BRANCH   6   7
HETATM    7  C   UNL     1       7.483  30.305  58.657  1.00  0.00     0.227 C 
HETATM    8  N   UNL     1       7.040  31.386  59.396  1.00  0.00    -0.326 N 
HETATM    9  H   UNL     1       6.307  31.925  58.936  1.00  0.00     0.169 HD
HETATM   10  O   UNL     1       8.069  29.319  59.096  1.00  0.00    -0.273 OA
BRANCH   8  11
HETATM   11  C   UNL     1       7.347  31.790  60.713  1.00  0.00     0.042 A 
HETATM   12  C   UNL     1       8.625  32.047  61.243  1.00  0.00    -0.035 A 
HETATM   13  C   UNL     1       9.910  31.980  60.468  1.00  0.00     0.050 C 
HETATM   14  C   UNL     1       8.734  32.442  62.595  1.00  0.00     0.011 A 
HETATM   15  C   UNL     1       7.608  32.632  63.394  1.00  0.00     0.024 A 
HETATM   16  C   UNL     1       6.351  32.427  62.849  1.00  0.00     0.036 A 
HETATM   17  C   UNL     1       6.219  32.014  61.525  1.00  0.00     0.053 A 
HETATM   18 CL   UNL     1       4.946  32.681  63.810  1.00  0.00    -0.084 Cl
ENDBRANCH   8  11
ENDBRANCH   6   7
ENDBRANCH   1   6
BRANCH   3  19
HETATM   19  N   UNL     1       7.486  25.682  56.148  1.00  0.00    -0.287 N 
HETATM   20  C   UNL     1       8.230  25.058  57.105  1.00  0.00     0.326 C 
HETATM   21  N   UNL     1       8.817  23.876  56.727  1.00  0.00    -0.309 N 
HETATM   22  O   UNL     1       8.505  25.502  58.218  1.00  0.00    -0.247 OA
HETATM   23  H   UNL     1       9.580  23.627  57.346  1.00  0.00     0.170 HD
HETATM   24  H   UNL     1       7.687  25.440  55.191  1.00  0.00     0.172 HD
BRANCH  21  25
HETATM   25  C   UNL     1       8.510  22.971  55.696  1.00  0.00     0.036 A 
HETATM   26  C   UNL     1       8.189  21.659  56.069  1.00  0.00     0.032 A 
HETATM   27  C   UNL     1       7.865  20.707  55.101  1.00  0.00     0.044 A 
HETATM   28  C   UNL     1       7.834  21.075  53.762  1.00  0.00     0.116 A 
HETATM   29  F   UNL     1       7.514  20.165  52.834  1.00  0.00    -0.206 F 
HETATM   30  C   UNL     1       8.116  22.379  53.377  1.00  0.00     0.044 A 
HETATM   31  C   UNL     1       8.452  23.331  54.344  1.00  0.00     0.032 A 
ENDBRANCH  21  25
ENDBRANCH   3  19
TORSDOF 5
ENDMDL
