MODEL 1
REMARK VINA RESULT:      -9.0      0.000      0.000
REMARK  4 active torsions:
REMARK  status: ('A' for Active; 'I' for Inactive)
REMARK    1  A    between atoms: C_3  and  N_4 
REMARK       I    between atoms: N_4  and  C_5 
REMARK    2  A    between atoms: C_5  and  C_6 
REMARK    3  A    between atoms: C_7  and  C_8 
REMARK    4  A    between atoms: C_16  and  C_17 
ROOT
HETATM    1  C   UNL     1       7.696  24.905  52.166  1.00  0.00     0.003 A 
HETATM    2  C   UNL     1       7.312  25.809  53.157  1.00  0.00     0.029 A 
HETATM    3  C   UNL     1       7.291  25.417  54.495  1.00  0.00     0.035 A 
HETATM    4  C   UNL     1       7.663  24.105  54.830  1.00  0.00     0.042 A 
HETATM    5  C   UNL     1       8.015  23.172  53.839  1.00  0.00    -0.021 A 
HETATM    6  C   UNL     1       8.041  23.595  52.503  1.00  0.00     0.012 A 
ENDROOT
BRANCH   3   7
HETATM    7  N   UNL     1       6.928  26.284  55.546  1.00  0.00    -0.327 N 
HETATM    8  C   UNL     1       7.556  26.396  56.773  1.00  0.00     0.227 C 
HETATM    9  O   UNL     1       8.590  25.843  57.118  1.00  0.00    -0.273 OA
HETATM   10  H   UNL     1       6.201  26.956  55.343  1.00  0.00     0.169 HD
BRANCH   8  11
HETATM   11  C   UNL     1       6.894  27.391  57.667  1.00  0.00     0.089 A 
HETATM   12  C   UNL     1       7.529  28.733  58.003  1.00  0.00     0.057 A 
HETATM   13  C   UNL     1       6.298  28.653  57.123  1.00  0.00     0.027 A 
BRANCH  12  14
HETATM   14  C   UNL     1       8.801  29.222  57.335  1.00  0.00     0.057 A 
HETATM   15  O   UNL     1       9.016  29.262  55.991  1.00  0.00    -0.327 OA
HETATM   16  C   UNL     1      10.243  29.803  55.794  1.00  0.00     0.142 A 
HETATM   17  C   UNL     1      10.829  30.115  56.997  1.00  0.00     0.027 A 
HETATM   18  C   UNL     1       9.897  29.738  57.996  1.00  0.00     0.035 A 
ENDBRANCH  12  14
ENDBRANCH   8  11
ENDBRANCH   3   7
BRANCH   5  19
HETATM   19  C   UNL     1       8.321  21.795  54.203  1.00  0.00     0.010 A 
HETATM   20  C   UNL     1       8.588  20.657  53.400  1.00  0.00     0.152 A 
HETATM   21  N   UNL     1       8.867  19.565  54.118  1.00  0.00    -0.187 NA
HETATM   22  N   UNL     1       8.785  19.996  55.386  1.00  0.00    -0.289 N 
HETATM   23  H   UNL     1       8.969  19.333  56.132  1.00  0.00     0.188 HD
HETATM   24  C   UNL     1       8.465  21.319  55.491  1.00  0.00     0.123 A 
ENDBRANCH   5  19
TORSDOF 4
ENDMDL
MODEL 2
REMARK VINA RESULT:      -8.5      2.523      4.606
REMARK  4 active torsions:
REMARK  status: ('A' for Active; 'I' for Inactive)
REMARK    1  A    between atoms: C_3  and  N_4 
REMARK       I    between atoms: N_4  and  C_5 
REMARK    2  A    between atoms: C_5  and  C_6 
REMARK    3  A    between atoms: C_7  and  C_8 
REMARK    4  A    between atoms: C_16  and  C_17 
ROOT
HETATM    1  C   UNL     1       8.751  24.523  57.438  1.00  0.00     0.003 A 
HETATM    2  C   UNL     1       7.976  25.616  57.051  1.00  0.00     0.029 A 
HETATM    3  C   UNL     1       7.239  25.572  55.868  1.00  0.00     0.035 A 
HETATM    4  C   UNL     1       7.285  24.413  55.076  1.00  0.00     0.042 A 
HETATM    5  C   UNL     1       8.092  23.318  55.433  1.00  0.00    -0.021 A 
HETATM    6  C   UNL     1       8.812  23.384  56.633  1.00  0.00     0.012 A 
ENDROOT
BRANCH   3   7
HETATM    7  N   UNL     1       6.425  26.635  55.427  1.00  0.00    -0.327 N 
HETATM    8  C   UNL     1       6.856  27.826  54.874  1.00  0.00     0.227 C 
HETATM    9  O   UNL     1       8.005  28.120  54.577  1.00  0.00    -0.273 OA
HETATM   10  H   UNL     1       5.428  26.465  55.424  1.00  0.00     0.169 HD
BRANCH   8  11
HETATM   11  C   UNL     1       5.728  28.747  54.543  1.00  0.00     0.089 A 
HETATM   12  C   UNL     1       4.850  28.551  53.316  1.00  0.00     0.057 A 
HETATM   13  C   UNL     1       4.301  28.324  54.710  1.00  0.00     0.027 A 
BRANCH  12  14
HETATM   14  C   UNL     1       4.954  27.324  52.428  1.00  0.00     0.057 A 
HETATM   15  O   UNL     1       4.787  26.038  52.843  1.00  0.00    -0.327 OA
HETATM   16  C   UNL     1       4.909  25.242  51.752  1.00  0.00     0.142 A 
HETATM   17  C   UNL     1       5.153  25.999  50.631  1.00  0.00     0.027 A 
HETATM   18  C   UNL     1       5.184  27.347  51.067  1.00  0.00     0.035 A 
ENDBRANCH  12  14
ENDBRANCH   8  11
ENDBRANCH   3   7
BRANCH   5  19
HETATM   19  C   UNL     1       8.186  22.159  54.556  1.00  0.00     0.010 A 
HETATM   20  C   UNL     1       8.582  20.823  54.818  1.00  0.00     0.152 A 
HETATM   21  N   UNL     1       8.495  20.032  53.744  1.00  0.00    -0.187 NA
HETATM   22  N   UNL     1       8.040  20.855  52.787  1.00  0.00    -0.289 N 
HETATM   23  H   UNL     1       7.882  20.474  51.859  1.00  0.00     0.188 HD
HETATM   24  C   UNL     1       7.836  22.133  53.221  1.00  0.00     0.123 A 
ENDBRANCH   5  19
TORSDOF 4
ENDMDL
MODEL 3
REMARK VINA RESULT:      -8.5      5.781      9.655
REMARK  4 active torsions:
REMARK  status: ('A' for Active; 'I' for Inactive)
REMARK    1  A    between atoms: C_3  and  N_4 
REMARK       I    between atoms: N_4  and  C_5 
REMARK    2  A    between atoms: C_5  and  C_6 
REMARK    3  A    between atoms: C_7  and  C_8 
REMARK    4  A    between atoms: C_16  and  C_17 
ROOT
HETATM    1  C   UNL     1       8.159  32.296  62.852  1.00  0.00     0.003 A 
HETATM    2  C   UNL     1       8.939  31.568  61.953  1.00  0.00     0.029 A 
HETATM    3  C   UNL     1       8.427  31.215  60.705  1.00  0.00     0.035 A 
HETATM    4  C   UNL     1       7.120  31.602  60.367  1.00  0.00     0.042 A 
HETATM    5  C   UNL     1       6.309  32.302  61.277  1.00  0.00    -0.021 A 
HETATM    6  C   UNL     1       6.853  32.657  62.519  1.00  0.00     0.012 A 
ENDROOT
BRANCH   3   7
HETATM    7  N   UNL     1       9.165  30.493  59.744  1.00  0.00    -0.327 N 
HETATM    8  C   UNL     1       9.830  31.021  58.653  1.00  0.00     0.227 C 
HETATM    9  O   UNL     1       9.980  32.205  58.391  1.00  0.00    -0.273 OA
HETATM   10  H   UNL     1       9.302  29.509  59.930  1.00  0.00     0.169 HD
BRANCH   8  11
HETATM   11  C   UNL     1      10.488  29.971  57.820  1.00  0.00     0.089 A 
HETATM   12  C   UNL     1       9.696  28.930  57.045  1.00  0.00     0.057 A 
HETATM   13  C   UNL     1      10.452  30.026  56.324  1.00  0.00     0.027 A 
BRANCH  12  14
HETATM   14  C   UNL     1       8.182  28.974  56.935  1.00  0.00     0.057 A 
HETATM   15  O   UNL     1       7.314  28.753  57.961  1.00  0.00    -0.327 OA
HETATM   16  C   UNL     1       6.061  28.929  57.475  1.00  0.00     0.142 A 
HETATM   17  C   UNL     1       6.106  29.263  56.142  1.00  0.00     0.027 A 
HETATM   18  C   UNL     1       7.478  29.290  55.791  1.00  0.00     0.035 A 
ENDBRANCH  12  14
ENDBRANCH   8  11
ENDBRANCH   3   7
BRANCH   5  19
HETATM   19  C   UNL     1       4.930  32.624  60.935  1.00  0.00     0.010 A 
HETATM   20  C   UNL     1       4.278  32.711  59.679  1.00  0.00     0.152 A 
HETATM   21  N   UNL     1       2.977  32.999  59.785  1.00  0.00    -0.187 NA
HETATM   22  N   UNL     1       2.785  33.095  61.109  1.00  0.00    -0.289 N 
HETATM   23  H   UNL     1       1.851  33.304  61.447  1.00  0.00     0.188 HD
HETATM   24  C   UNL     1       3.918  32.878  61.840  1.00  0.00     0.123 A 
ENDBRANCH   5  19
TORSDOF 4
ENDMDL
MODEL 4
REMARK VINA RESULT:      -8.4      2.334      7.001
REMARK  4 active torsions:
REMARK  status: ('A' for Active; 'I' for Inactive)
REMARK    1  A    between atoms: C_3  and  N_4 
REMARK       I    between atoms: N_4  and  C_5 
REMARK    2  A    between atoms: C_5  and  C_6 
REMARK    3  A    between atoms: C_7  and  C_8 
REMARK    4  A    between atoms: C_16  and  C_17 
ROOT
HETATM    1  C   UNL     1       5.538  28.251  57.275  1.00  0.00     0.003 A 
HETATM    2  C   UNL     1       5.648  26.890  56.987  1.00  0.00     0.029 A 
HETATM    3  C   UNL     1       6.905  26.300  56.858  1.00  0.00     0.035 A 
HETATM    4  C   UNL     1       8.053  27.092  57.024  1.00  0.00     0.042 A 
HETATM    5  C   UNL     1       7.957  28.471  57.276  1.00  0.00    -0.021 A 
HETATM    6  C   UNL     1       6.683  29.037  57.415  1.00  0.00     0.012 A 
ENDROOT
BRANCH   3   7
HETATM    7  N   UNL     1       7.089  24.930  56.583  1.00  0.00    -0.327 N 
HETATM    8  C   UNL     1       8.255  24.206  56.752  1.00  0.00     0.227 C 
HETATM    9  O   UNL     1       9.292  24.601  57.265  1.00  0.00    -0.273 OA
HETATM   10  H   UNL     1       6.261  24.407  56.333  1.00  0.00     0.169 HD
BRANCH   8  11
HETATM   11  C   UNL     1       8.111  22.780  56.336  1.00  0.00     0.089 A 
HETATM   12  C   UNL     1       7.579  22.381  54.968  1.00  0.00     0.057 A 
HETATM   13  C   UNL     1       9.034  22.165  55.329  1.00  0.00     0.027 A 
BRANCH  12  14
HETATM   14  C   UNL     1       7.302  23.396  53.873  1.00  0.00     0.057 A 
HETATM   15  O   UNL     1       6.217  24.217  53.821  1.00  0.00    -0.327 OA
HETATM   16  C   UNL     1       6.357  25.002  52.725  1.00  0.00     0.142 A 
HETATM   17  C   UNL     1       7.524  24.701  52.065  1.00  0.00     0.027 A 
HETATM   18  C   UNL     1       8.136  23.659  52.806  1.00  0.00     0.035 A 
ENDBRANCH  12  14
ENDBRANCH   8  11
ENDBRANCH   3   7
BRANCH   5  19
HETATM   19  C   UNL     1       9.161  29.287  57.366  1.00  0.00     0.010 A 
HETATM   20  C   UNL     1      10.442  29.124  56.783  1.00  0.00     0.152 A 
HETATM   21  N   UNL     1      11.281  30.122  57.077  1.00  0.00    -0.187 NA
HETATM   22  N   UNL     1      10.542  30.934  57.848  1.00  0.00    -0.289 N 
HETATM   23  H   UNL     1      10.969  31.786  58.198  1.00  0.00     0.188 HD
HETATM   24  C   UNL     1       9.269  30.482  58.049  1.00  0.00     0.123 A 
ENDBRANCH   5  19
TORSDOF 4
ENDMDL
MODEL 5
REMARK VINA RESULT:      -8.2      2.904      3.931
REMARK  4 active torsions:
REMARK  status: ('A' for Active; 'I' for Inactive)
REMARK    1  A    between atoms: C_3  and  N_4 
REMARK       I    between atoms: N_4  and  C_5 
REMARK    2  A    between atoms: C_5  and  C_6 
REMARK    3  A    between atoms: C_7  and  C_8 
REMARK    4  A    between atoms: C_16  and  C_17 
ROOT
HETATM    1  C   UNL     1       8.201  24.900  57.177  1.00  0.00     0.003 A 
HETATM    2  C   UNL     1       7.263  25.607  56.425  1.00  0.00     0.029 A 
HETATM    3  C   UNL     1       6.637  25.003  55.335  1.00  0.00     0.035 A 
HETATM    4  C   UNL     1       6.962  23.677  55.008  1.00  0.00     0.042 A 
HETATM    5  C   UNL     1       7.934  22.965  55.732  1.00  0.00    -0.021 A 
HETATM    6  C   UNL     1       8.537  23.590  56.831  1.00  0.00     0.012 A 
ENDROOT
BRANCH   3   7
HETATM    7  N   UNL     1       5.670  25.655  54.543  1.00  0.00    -0.327 N 
HETATM    8  C   UNL     1       5.914  26.490  53.469  1.00  0.00     0.227 C 
HETATM    9  O   UNL     1       6.999  26.723  52.957  1.00  0.00    -0.273 OA
HETATM   10  H   UNL     1       4.706  25.407  54.718  1.00  0.00     0.169 HD
BRANCH   8  11
HETATM   11  C   UNL     1       4.660  27.037  52.871  1.00  0.00     0.089 A 
HETATM   12  C   UNL     1       3.822  28.099  53.565  1.00  0.00     0.057 A 
HETATM   13  C   UNL     1       4.605  28.425  52.310  1.00  0.00     0.027 A 
BRANCH  12  14
HETATM   14  C   UNL     1       4.276  28.792  54.838  1.00  0.00     0.057 A 
HETATM   15  O   UNL     1       4.430  28.187  56.048  1.00  0.00    -0.327 OA
HETATM   16  C   UNL     1       4.892  29.123  56.912  1.00  0.00     0.142 A 
HETATM   17  C   UNL     1       5.040  30.332  56.276  1.00  0.00     0.027 A 
HETATM   18  C   UNL     1       4.640  30.120  54.933  1.00  0.00     0.035 A 
ENDBRANCH  12  14
ENDBRANCH   8  11
ENDBRANCH   3   7
BRANCH   5  19
HETATM   19  C   UNL     1       8.312  21.617  55.326  1.00  0.00     0.010 A 
HETATM   20  C   UNL     1       8.339  21.003  54.049  1.00  0.00     0.152 A 
HETATM   21  N   UNL     1       8.790  19.745  54.084  1.00  0.00    -0.187 NA
HETATM   22  N   UNL     1       9.059  19.546  55.384  1.00  0.00    -0.289 N 
HETATM   23  H   UNL     1       9.431  18.645  55.666  1.00  0.00     0.188 HD
HETATM   24  C   UNL     1       8.794  20.633  56.166  1.00  0.00     0.123 A 
ENDBRANCH   5  19
TORSDOF 4
ENDMDL
MODEL 6
REMARK VINA RESULT:      -8.1      4.163      6.569
REMARK  4 active torsions:
REMARK  status: ('A' for Active; 'I' for Inactive)
REMARK    1  A    between atoms: C_3  and  N_4 
REMARK       I    between atoms: N_4  and  C_5 
REMARK    2  A    between atoms: C_5  and  C_6 
REMARK    3  A    between atoms: C_7  and  C_8 
REMARK    4  A    between atoms: C_16  and  C_17 
ROOT
HETATM    1  C   UNL     1       6.025  30.493  56.650  1.00  0.00     0.003 A 
HETATM    2  C   UNL     1       6.533  30.932  57.873  1.00  0.00     0.029 A 
HETATM    3  C   UNL     1       7.391  30.117  58.610  1.00  0.00     0.035 A 
HETATM    4  C   UNL     1       7.737  28.854  58.105  1.00  0.00     0.042 A 
HETATM    5  C   UNL     1       7.204  28.382  56.893  1.00  0.00    -0.021 A 
HETATM    6  C   UNL     1       6.355  29.226  56.165  1.00  0.00     0.012 A 
ENDROOT
BRANCH   3   7
HETATM    7  N   UNL     1       7.950  30.504  59.845  1.00  0.00    -0.327 N 
HETATM    8  C   UNL     1       8.846  31.536  60.054  1.00  0.00     0.227 C 
HETATM    9  O   UNL     1       9.224  32.354  59.228  1.00  0.00    -0.273 OA
HETATM   10  H   UNL     1       7.583  30.045  60.668  1.00  0.00     0.169 HD
BRANCH   8  11
HETATM   11  C   UNL     1       9.261  31.656  61.483  1.00  0.00     0.089 A 
HETATM   12  C   UNL     1       8.391  32.335  62.530  1.00  0.00     0.057 A 
HETATM   13  C   UNL     1       8.610  30.837  62.555  1.00  0.00     0.027 A 
BRANCH  12  14
HETATM   14  C   UNL     1       6.976  32.802  62.236  1.00  0.00     0.057 A 
HETATM   15  O   UNL     1       5.951  31.998  61.840  1.00  0.00    -0.327 OA
HETATM   16  C   UNL     1       4.848  32.776  61.727  1.00  0.00     0.142 A 
HETATM   17  C   UNL     1       5.144  34.080  62.047  1.00  0.00     0.027 A 
HETATM   18  C   UNL     1       6.523  34.098  62.375  1.00  0.00     0.035 A 
ENDBRANCH  12  14
ENDBRANCH   8  11
ENDBRANCH   3   7
BRANCH   5  19
HETATM   19  C   UNL     1       7.515  27.037  56.427  1.00  0.00     0.010 A 
HETATM   20  C   UNL     1       8.082  25.926  57.101  1.00  0.00     0.152 A 
HETATM   21  N   UNL     1       8.174  24.839  56.329  1.00  0.00    -0.187 NA
HETATM   22  N   UNL     1       7.663  25.244  55.156  1.00  0.00    -0.289 N 
HETATM   23  H   UNL     1       7.617  24.575  54.394  1.00  0.00     0.188 HD
HETATM   24  C   UNL     1       7.253  26.546  55.164  1.00  0.00     0.123 A 
ENDBRANCH   5  19
TORSDOF 4
ENDMDL
MODEL 7
REMARK VINA RESULT:      -8.0      5.014      7.427
REMARK  4 active torsions:
REMARK  status: ('A' for Active; 'I' for Inactive)
REMARK    1  A    between atoms: C_3  and  N_4 
REMARK       I    between atoms: N_4  and  C_5 
REMARK    2  A    between atoms: C_5  and  C_6 
REMARK    3  A    between atoms: C_7  and  C_8 
REMARK    4  A    between atoms: C_16  and  C_17 
ROOT
HETATM    1  C   UNL     1       4.394  29.059  51.092  1.00  0.00     0.003 A 
HETATM    2  C   UNL     1       5.344  28.168  51.593  1.00  0.00     0.029 A 
HETATM    3  C   UNL     1       5.525  26.924  50.991  1.00  0.00     0.035 A 
HETATM    4  C   UNL     1       4.743  26.582  49.876  1.00  0.00     0.042 A 
HETATM    5  C   UNL     1       3.755  27.453  49.384  1.00  0.00    -0.021 A 
HETATM    6  C   UNL     1       3.603  28.703  49.999  1.00  0.00     0.012 A 
ENDROOT
BRANCH   3   7
HETATM    7  N   UNL     1       6.477  25.983  51.436  1.00  0.00    -0.327 N 
HETATM    8  C   UNL     1       6.249  24.929  52.301  1.00  0.00     0.227 C 
HETATM    9  O   UNL     1       5.167  24.569  52.744  1.00  0.00    -0.273 OA
HETATM   10  H   UNL     1       7.389  26.028  51.002  1.00  0.00     0.169 HD
BRANCH   8  11
HETATM   11  C   UNL     1       7.485  24.143  52.587  1.00  0.00     0.089 A 
HETATM   12  C   UNL     1       8.156  24.149  53.953  1.00  0.00     0.057 A 
HETATM   13  C   UNL     1       7.447  22.912  53.439  1.00  0.00     0.027 A 
BRANCH  12  14
HETATM   14  C   UNL     1       7.536  24.825  55.162  1.00  0.00     0.057 A 
HETATM   15  O   UNL     1       7.548  26.165  55.403  1.00  0.00    -0.327 OA
HETATM   16  C   UNL     1       6.855  26.375  56.549  1.00  0.00     0.142 A 
HETATM   17  C   UNL     1       6.392  25.185  57.056  1.00  0.00     0.027 A 
HETATM   18  C   UNL     1       6.834  24.179  56.160  1.00  0.00     0.035 A 
ENDBRANCH  12  14
ENDBRANCH   8  11
ENDBRANCH   3   7
BRANCH   5  19
HETATM   19  C   UNL     1       2.902  27.045  48.276  1.00  0.00     0.010 A 
HETATM   20  C   UNL     1       1.633  27.516  47.856  1.00  0.00     0.152 A 
HETATM   21  N   UNL     1       1.187  26.905  46.754  1.00  0.00    -0.187 NA
HETATM   22  N   UNL     1       2.170  26.040  46.458  1.00  0.00    -0.289 N 
HETATM   23  H   UNL     1       2.063  25.453  45.637  1.00  0.00     0.188 HD
HETATM   24  C   UNL     1       3.216  26.087  47.333  1.00  0.00     0.123 A 
ENDBRANCH   5  19
TORSDOF 4
ENDMDL
MODEL 8
REMARK VINA RESULT:      -7.9      3.423      8.265
REMARK  4 active torsions:
REMARK  status: ('A' for Active; 'I' for Inactive)
REMARK    1  A    between atoms: C_3  and  N_4 
REMARK       I    between atoms: N_4  and  C_5 
REMARK    2  A    between atoms: C_5  and  C_6 
REMARK    3  A    between atoms: C_7  and  C_8 
REMARK    4  A    between atoms: C_16  and  C_17 
ROOT
HETATM    1  C   UNL     1      10.442  30.148  57.228  1.00  0.00     0.003 A 
HETATM    2  C   UNL     1       9.476  29.294  56.694  1.00  0.00     0.029 A 
HETATM    3  C   UNL     1       8.230  29.173  57.309  1.00  0.00     0.035 A 
HETATM    4  C   UNL     1       7.962  29.922  58.466  1.00  0.00     0.042 A 
HETATM    5  C   UNL     1       8.939  30.756  59.037  1.00  0.00    -0.021 A 
HETATM    6  C   UNL     1      10.178  30.870  58.392  1.00  0.00     0.012 A 
ENDROOT
BRANCH   3   7
HETATM    7  N   UNL     1       7.205  28.341  56.815  1.00  0.00    -0.327 N 
HETATM    8  C   UNL     1       6.951  27.036  57.193  1.00  0.00     0.227 C 
HETATM    9  O   UNL     1       7.501  26.415  58.091  1.00  0.00    -0.273 OA
HETATM   10  H   UNL     1       6.532  28.776  56.198  1.00  0.00     0.169 HD
BRANCH   8  11
HETATM   11  C   UNL     1       5.804  26.435  56.449  1.00  0.00     0.089 A 
HETATM   12  C   UNL     1       5.918  25.112  55.707  1.00  0.00     0.057 A 
HETATM   13  C   UNL     1       5.085  25.228  56.967  1.00  0.00     0.027 A 
BRANCH  12  14
HETATM   14  C   UNL     1       7.151  24.231  55.797  1.00  0.00     0.057 A 
HETATM   15  O   UNL     1       7.485  23.455  56.864  1.00  0.00    -0.327 OA
HETATM   16  C   UNL     1       8.620  22.789  56.540  1.00  0.00     0.142 A 
HETATM   17  C   UNL     1       9.029  23.125  55.272  1.00  0.00     0.027 A 
HETATM   18  C   UNL     1       8.079  24.060  54.789  1.00  0.00     0.035 A 
ENDBRANCH  12  14
ENDBRANCH   8  11
ENDBRANCH   3   7
BRANCH   5  19
HETATM   19  C   UNL     1       8.666  31.462  60.282  1.00  0.00     0.010 A 
HETATM   20  C   UNL     1       9.417  31.564  61.479  1.00  0.00     0.152 A 
HETATM   21  N   UNL     1       8.839  32.348  62.394  1.00  0.00    -0.187 NA
HETATM   22  N   UNL     1       7.715  32.758  61.787  1.00  0.00    -0.289 N 
HETATM   23  H   UNL     1       7.097  33.386  62.292  1.00  0.00     0.188 HD
HETATM   24  C   UNL     1       7.566  32.260  60.525  1.00  0.00     0.123 A 
ENDBRANCH   5  19
TORSDOF 4
ENDMDL
MODEL 9
REMARK VINA RESULT:      -7.9      7.055     10.307
REMARK  4 active torsions:
REMARK  status: ('A' for Active; 'I' for Inactive)
REMARK    1  A    between atoms: C_3  and  N_4 
REMARK       I    between atoms: N_4  and  C_5 
REMARK    2  A    between atoms: C_5  and  C_6 
REMARK    3  A    between atoms: C_7  and  C_8 
REMARK    4  A    between atoms: C_16  and  C_17 
ROOT
HETATM    1  C   UNL     1       9.044  32.072  62.346  1.00  0.00     0.003 A 
HETATM    2  C   UNL     1       7.732  32.541  62.423  1.00  0.00     0.029 A 
HETATM    3  C   UNL     1       6.876  32.413  61.330  1.00  0.00     0.035 A 
HETATM    4  C   UNL     1       7.350  31.805  60.156  1.00  0.00     0.042 A 
HETATM    5  C   UNL     1       8.681  31.363  60.051  1.00  0.00    -0.021 A 
HETATM    6  C   UNL     1       9.516  31.491  61.169  1.00  0.00     0.012 A 
ENDROOT
BRANCH   3   7
HETATM    7  N   UNL     1       5.536  32.851  61.344  1.00  0.00    -0.327 N 
HETATM    8  C   UNL     1       4.508  32.328  62.107  1.00  0.00     0.227 C 
HETATM    9  O   UNL     1       4.605  31.470  62.973  1.00  0.00    -0.273 OA
HETATM   10  H   UNL     1       5.333  33.691  60.821  1.00  0.00     0.169 HD
BRANCH   8  11
HETATM   11  C   UNL     1       3.204  33.010  61.857  1.00  0.00     0.089 A 
HETATM   12  C   UNL     1       2.612  34.018  62.830  1.00  0.00     0.057 A 
HETATM   13  C   UNL     1       3.140  34.458  61.480  1.00  0.00     0.027 A 
BRANCH  12  14
HETATM   14  C   UNL     1       3.372  34.521  64.045  1.00  0.00     0.057 A 
HETATM   15  O   UNL     1       3.686  33.773  65.138  1.00  0.00    -0.327 OA
HETATM   16  C   UNL     1       4.403  34.562  65.975  1.00  0.00     0.142 A 
HETATM   17  C   UNL     1       4.558  35.817  65.436  1.00  0.00     0.027 A 
HETATM   18  C   UNL     1       3.890  35.792  64.187  1.00  0.00     0.035 A 
ENDBRANCH  12  14
ENDBRANCH   8  11
ENDBRANCH   3   7
BRANCH   5  19
HETATM   19  C   UNL     1       9.173  30.807  58.797  1.00  0.00     0.010 A 
HETATM   20  C   UNL     1      10.304  31.142  58.011  1.00  0.00     0.152 A 
HETATM   21  N   UNL     1      10.440  30.363  56.934  1.00  0.00    -0.187 NA
HETATM   22  N   UNL     1       9.399  29.522  57.023  1.00  0.00    -0.289 N 
HETATM   23  H   UNL     1       9.289  28.813  56.305  1.00  0.00     0.188 HD
HETATM   24  C   UNL     1       8.615  29.743  58.119  1.00  0.00     0.123 A 
ENDBRANCH   5  19
TORSDOF 4
ENDMDL
MODEL 10
REMARK VINA RESULT:      -7.8      4.237      7.003
REMARK  4 active torsions:
REMARK  status: ('A' for Active; 'I' for Inactive)
REMARK    1  A    between atoms: C_3  and  N_4 
REMARK       I    between atoms: N_4  and  C_5 
REMARK    2  A    between atoms: C_5  and  C_6 
REMARK    3  A    between atoms: C_7  and  C_8 
REMARK    4  A    between atoms: C_16  and  C_17 
ROOT
HETATM    1  C   UNL     1      10.547  29.996  56.897  1.00  0.00     0.003 A 
HETATM    2  C   UNL     1      10.415  30.864  57.981  1.00  0.00     0.029 A 
HETATM    3  C   UNL     1       9.325  30.750  58.843  1.00  0.00     0.035 A 
HETATM    4  C   UNL     1       8.367  29.750  58.607  1.00  0.00     0.042 A 
HETATM    5  C   UNL     1       8.467  28.893  57.497  1.00  0.00    -0.021 A 
HETATM    6  C   UNL     1       9.579  29.020  56.655  1.00  0.00     0.012 A 
ENDROOT
BRANCH   3   7
HETATM    7  N   UNL     1       9.137  31.585  59.964  1.00  0.00    -0.327 N 
HETATM    8  C   UNL     1       9.028  31.180  61.281  1.00  0.00     0.227 C 
HETATM    9  O   UNL     1       9.179  30.045  61.711  1.00  0.00    -0.273 OA
HETATM   10  H   UNL     1       9.188  32.580  59.795  1.00  0.00     0.169 HD
BRANCH   8  11
HETATM   11  C   UNL     1       8.806  32.322  62.216  1.00  0.00     0.089 A 
HETATM   12  C   UNL     1       7.532  33.153  62.199  1.00  0.00     0.057 A 
HETATM   13  C   UNL     1       7.837  32.221  63.354  1.00  0.00     0.027 A 
BRANCH  12  14
HETATM   14  C   UNL     1       6.333  32.789  61.342  1.00  0.00     0.057 A 
HETATM   15  O   UNL     1       6.338  32.700  59.983  1.00  0.00    -0.327 OA
HETATM   16  C   UNL     1       5.100  32.307  59.599  1.00  0.00     0.142 A 
HETATM   17  C   UNL     1       4.288  32.138  60.695  1.00  0.00     0.027 A 
HETATM   18  C   UNL     1       5.085  32.451  61.824  1.00  0.00     0.035 A 
ENDBRANCH  12  14
ENDBRANCH   8  11
ENDBRANCH   3   7
BRANCH   5  19
HETATM   19  C   UNL     1       7.421  27.915  57.228  1.00  0.00     0.010 A 
HETATM   20  C   UNL     1       6.011  28.047  57.187  1.00  0.00     0.152 A 
HETATM   21  N   UNL     1       5.388  26.911  56.862  1.00  0.00    -0.187 NA
HETATM   22  N   UNL     1       6.396  26.042  56.688  1.00  0.00    -0.289 N 
HETATM   23  H   UNL     1       6.170  25.089  56.422  1.00  0.00     0.188 HD
HETATM   24  C   UNL     1       7.629  26.592  56.892  1.00  0.00     0.123 A 
ENDBRANCH   5  19
TORSDOF 4
ENDMDL
