MODEL 1
REMARK VINA RESULT:     -10.1      0.000      0.000
REMARK  10 active torsions:
REMARK  status: ('A' for Active; 'I' for Inactive)
REMARK    1  A    between atoms: C_8  and  N_9 
REMARK    2  A    between atoms: C_10  and  S_11 
REMARK    3  A    between atoms: S_11  and  C_12 
REMARK    4  A    between atoms: C_12  and  C_13 
REMARK       I    between atoms: C_13  and  N_14 
REMARK    5  A    between atoms: N_14  and  C_15 
REMARK    6  A    between atoms: C_15  and  C_16 
REMARK    7  A    between atoms: C_16  and  C_17 
REMARK    8  A    between atoms: C_20  and  S_21 
REMARK    9  A    between atoms: S_21  and  N_22 
REMARK   10  A    between atoms: C_31  and  N_32 
ROOT
HETATM    1  N   UNL     1       6.049  27.021  54.230  1.00  0.00    -0.275 N 
HETATM    2  C   UNL     1       6.541  27.936  55.114  1.00  0.00     0.177 A 
HETATM    3  N   UNL     1       6.062  29.189  55.279  1.00  0.00    -0.204 NA
HETATM    4  C   UNL     1       5.029  29.440  54.475  1.00  0.00     0.162 A 
HETATM    5  C   UNL     1       4.467  28.580  53.556  1.00  0.00     0.081 A 
HETATM    6  C   UNL     1       4.975  27.277  53.428  1.00  0.00     0.124 A 
HETATM    7  N   UNL     1       4.336  30.613  54.399  1.00  0.00    -0.260 N 
HETATM    8  H   UNL     1       4.478  31.459  54.941  1.00  0.00     0.191 HD
HETATM    9  N   UNL     1       3.377  30.597  53.462  1.00  0.00    -0.177 NA
HETATM   10  C   UNL     1       3.450  29.369  52.934  1.00  0.00     0.068 A 
HETATM   11  C   UNL     1       2.540  29.007  51.816  1.00  0.00     0.073 C 
ENDROOT
BRANCH   2  12
HETATM   12  S   UNL     1       8.030  27.603  56.077  1.00  0.00    -0.082 SA
BRANCH  12  13
HETATM   13  C   UNL     1       8.860  29.224  55.960  1.00  0.00     0.185 C 
BRANCH  13  14
HETATM   14  C   UNL     1       9.437  29.655  57.302  1.00  0.00     0.227 C 
HETATM   15  N   UNL     1       8.478  29.946  58.251  1.00  0.00    -0.360 N 
HETATM   16  H   UNL     1       7.522  29.655  58.082  1.00  0.00     0.162 HD
HETATM   17  O   UNL     1      10.645  29.728  57.516  1.00  0.00    -0.273 OA
BRANCH  15  18
HETATM   18  C   UNL     1       8.838  30.292  59.620  1.00  0.00     0.127 C 
BRANCH  18  19
HETATM   19  C   UNL     1       8.969  31.805  59.802  1.00  0.00     0.058 C 
BRANCH  19  20
HETATM   20  C   UNL     1       8.190  32.311  60.988  1.00  0.00    -0.057 A 
HETATM   21  C   UNL     1       8.692  32.153  62.289  1.00  0.00     0.009 A 
HETATM   22  C   UNL     1       7.967  32.617  63.390  1.00  0.00     0.025 A 
HETATM   23  C   UNL     1       6.736  33.244  63.189  1.00  0.00     0.074 A 
HETATM   24  C   UNL     1       6.216  33.396  61.902  1.00  0.00     0.025 A 
HETATM   25  C   UNL     1       6.945  32.933  60.805  1.00  0.00     0.009 A 
BRANCH  23  26
HETATM   26  S   UNL     1       5.791  33.789  64.584  1.00  0.00     0.239 S 
HETATM   27  O   UNL     1       5.627  35.221  64.510  1.00  0.00    -0.206 OA
HETATM   28  O   UNL     1       4.678  32.890  64.776  1.00  0.00    -0.206 OA
BRANCH  26  29
HETATM   29  N   UNL     1       6.847  33.502  65.855  1.00  0.00    -0.225 NA
HETATM   30  H   UNL     1       6.380  32.953  66.578  1.00  0.00     0.136 HD
HETATM   31  H   UNL     1       7.703  33.069  65.506  1.00  0.00     0.136 HD
ENDBRANCH  26  29
ENDBRANCH  23  26
ENDBRANCH  19  20
ENDBRANCH  18  19
ENDBRANCH  15  18
ENDBRANCH  13  14
ENDBRANCH  12  13
ENDBRANCH   2  12
BRANCH   1  32
HETATM   32  C   UNL     1       6.746  25.775  54.042  1.00  0.00     0.051 A 
HETATM   33  C   UNL     1       6.607  24.725  54.965  1.00  0.00    -0.013 A 
HETATM   34  C   UNL     1       5.751  24.831  56.196  1.00  0.00     0.052 C 
HETATM   35  C   UNL     1       7.345  23.558  54.702  1.00  0.00     0.042 A 
HETATM   36 CL   UNL     1       7.319  22.210  55.781  1.00  0.00    -0.084 Cl
HETATM   37  C   UNL     1       8.133  23.441  53.548  1.00  0.00     0.024 A 
HETATM   38  C   UNL     1       8.215  24.489  52.633  1.00  0.00     0.004 A 
HETATM   39  C   UNL     1       7.521  25.668  52.878  1.00  0.00     0.031 A 
ENDBRANCH   1  32
BRANCH   6  40
HETATM   40  N   UNL     1       4.461  26.348  52.529  1.00  0.00    -0.384 N 
HETATM   41  H   UNL     1       3.491  26.070  52.641  1.00  0.00     0.157 HD
HETATM   42  H   UNL     1       5.051  25.620  52.142  1.00  0.00     0.157 HD
ENDBRANCH   6  40
TORSDOF 10
ENDMDL
MODEL 2
REMARK VINA RESULT:     -10.0      1.899      2.441
REMARK  10 active torsions:
REMARK  status: ('A' for Active; 'I' for Inactive)
REMARK    1  A    between atoms: C_8  and  N_9 
REMARK    2  A    between atoms: C_10  and  S_11 
REMARK    3  A    between atoms: S_11  and  C_12 
REMARK    4  A    between atoms: C_12  and  C_13 
REMARK       I    between atoms: C_13  and  N_14 
REMARK    5  A    between atoms: N_14  and  C_15 
REMARK    6  A    between atoms: C_15  and  C_16 
REMARK    7  A    between atoms: C_16  and  C_17 
REMARK    8  A    between atoms: C_20  and  S_21 
REMARK    9  A    between atoms: S_21  and  N_22 
REMARK   10  A    between atoms: C_31  and  N_32 
ROOT
HETATM    1  N   UNL     1       6.079  28.583  56.092  1.00  0.00    -0.275 N 
HETATM    2  C   UNL     1       6.861  29.063  57.102  1.00  0.00     0.177 A 
HETATM    3  N   UNL     1       6.581  30.155  57.847  1.00  0.00    -0.204 NA
HETATM    4  C   UNL     1       5.429  30.722  57.490  1.00  0.00     0.162 A 
HETATM    5  C   UNL     1       4.578  30.309  56.488  1.00  0.00     0.081 A 
HETATM    6  C   UNL     1       4.889  29.155  55.749  1.00  0.00     0.124 A 
HETATM    7  N   UNL     1       4.878  31.841  58.045  1.00  0.00    -0.260 N 
HETATM    8  H   UNL     1       5.236  32.398  58.813  1.00  0.00     0.191 HD
HETATM    9  N   UNL     1       3.737  32.215  57.449  1.00  0.00    -0.177 NA
HETATM   10  C   UNL     1       3.545  31.297  56.493  1.00  0.00     0.068 A 
HETATM   11  C   UNL     1       2.370  31.425  55.593  1.00  0.00     0.073 C 
ENDROOT
BRANCH   2  12
HETATM   12  S   UNL     1       8.480  28.348  57.453  1.00  0.00    -0.082 SA
BRANCH  12  13
HETATM   13  C   UNL     1       9.555  29.545  56.591  1.00  0.00     0.185 C 
BRANCH  13  14
HETATM   14  C   UNL     1      10.173  30.542  57.561  1.00  0.00     0.227 C 
HETATM   15  N   UNL     1       9.285  31.026  58.500  1.00  0.00    -0.360 N 
HETATM   16  H   UNL     1       8.399  30.550  58.622  1.00  0.00     0.162 HD
HETATM   17  O   UNL     1      11.355  30.876  57.512  1.00  0.00    -0.273 OA
BRANCH  15  18
HETATM   18  C   UNL     1       9.713  31.923  59.565  1.00  0.00     0.127 C 
BRANCH  18  19
HETATM   19  C   UNL     1       9.475  31.310  60.946  1.00  0.00     0.058 C 
BRANCH  19  20
HETATM   20  C   UNL     1       8.297  31.927  61.655  1.00  0.00    -0.057 A 
HETATM   21  C   UNL     1       8.394  32.298  63.005  1.00  0.00     0.009 A 
HETATM   22  C   UNL     1       7.299  32.864  63.665  1.00  0.00     0.025 A 
HETATM   23  C   UNL     1       6.104  33.063  62.971  1.00  0.00     0.074 A 
HETATM   24  C   UNL     1       5.988  32.685  61.631  1.00  0.00     0.025 A 
HETATM   25  C   UNL     1       7.084  32.122  60.976  1.00  0.00     0.009 A 
BRANCH  23  26
HETATM   26  S   UNL     1       4.701  33.733  63.816  1.00  0.00     0.239 S 
HETATM   27  O   UNL     1       4.598  33.118  65.117  1.00  0.00    -0.206 OA
HETATM   28  O   UNL     1       4.682  35.165  63.632  1.00  0.00    -0.206 OA
BRANCH  26  29
HETATM   29  N   UNL     1       3.425  33.129  62.909  1.00  0.00    -0.225 NA
HETATM   30  H   UNL     1       2.725  33.859  62.765  1.00  0.00     0.136 HD
HETATM   31  H   UNL     1       3.775  32.726  62.040  1.00  0.00     0.136 HD
ENDBRANCH  26  29
ENDBRANCH  23  26
ENDBRANCH  19  20
ENDBRANCH  18  19
ENDBRANCH  15  18
ENDBRANCH  13  14
ENDBRANCH  12  13
ENDBRANCH   2  12
BRANCH   1  32
HETATM   32  C   UNL     1       6.566  27.503  55.274  1.00  0.00     0.051 A 
HETATM   33  C   UNL     1       6.369  26.165  55.655  1.00  0.00    -0.013 A 
HETATM   34  C   UNL     1       5.666  25.775  56.924  1.00  0.00     0.052 C 
HETATM   35  C   UNL     1       6.900  25.186  54.797  1.00  0.00     0.042 A 
HETATM   36 CL   UNL     1       6.788  23.502  55.169  1.00  0.00    -0.084 Cl
HETATM   37  C   UNL     1       7.543  25.536  53.602  1.00  0.00     0.024 A 
HETATM   38  C   UNL     1       7.684  26.874  53.236  1.00  0.00     0.004 A 
HETATM   39  C   UNL     1       7.196  27.869  54.075  1.00  0.00     0.031 A 
ENDBRANCH   1  32
BRANCH   6  40
HETATM   40  N   UNL     1       4.080  28.669  54.727  1.00  0.00    -0.384 N 
HETATM   41  H   UNL     1       3.156  29.076  54.623  1.00  0.00     0.157 HD
HETATM   42  H   UNL     1       4.132  27.698  54.442  1.00  0.00     0.157 HD
ENDBRANCH   6  40
TORSDOF 10
ENDMDL
MODEL 3
REMARK VINA RESULT:      -9.9      2.790      4.895
REMARK  10 active torsions:
REMARK  status: ('A' for Active; 'I' for Inactive)
REMARK    1  A    between atoms: C_8  and  N_9 
REMARK    2  A    between atoms: C_10  and  S_11 
REMARK    3  A    between atoms: S_11  and  C_12 
REMARK    4  A    between atoms: C_12  and  C_13 
REMARK       I    between atoms: C_13  and  N_14 
REMARK    5  A    between atoms: N_14  and  C_15 
REMARK    6  A    between atoms: C_15  and  C_16 
REMARK    7  A    between atoms: C_16  and  C_17 
REMARK    8  A    between atoms: C_20  and  S_21 
REMARK    9  A    between atoms: S_21  and  N_22 
REMARK   10  A    between atoms: C_31  and  N_32 
ROOT
HETATM    1  N   UNL     1       7.178  24.699  54.655  1.00  0.00    -0.275 N 
HETATM    2  C   UNL     1       6.876  24.502  55.971  1.00  0.00     0.177 A 
HETATM    3  N   UNL     1       7.036  23.336  56.636  1.00  0.00    -0.204 NA
HETATM    4  C   UNL     1       7.539  22.380  55.856  1.00  0.00     0.162 A 
HETATM    5  C   UNL     1       7.872  22.488  54.523  1.00  0.00     0.081 A 
HETATM    6  C   UNL     1       7.715  23.722  53.870  1.00  0.00     0.124 A 
HETATM    7  N   UNL     1       7.806  21.095  56.230  1.00  0.00    -0.260 N 
HETATM    8  H   UNL     1       7.687  20.673  57.145  1.00  0.00     0.191 HD
HETATM    9  N   UNL     1       8.259  20.337  55.221  1.00  0.00    -0.177 NA
HETATM   10  C   UNL     1       8.296  21.169  54.173  1.00  0.00     0.068 A 
HETATM   11  C   UNL     1       8.722  20.646  52.849  1.00  0.00     0.073 C 
ENDROOT
BRANCH   2  12
HETATM   12  S   UNL     1       6.063  25.782  56.949  1.00  0.00    -0.082 SA
BRANCH  12  13
HETATM   13  C   UNL     1       7.519  26.708  57.543  1.00  0.00     0.185 C 
BRANCH  13  14
HETATM   14  C   UNL     1       7.208  28.189  57.714  1.00  0.00     0.227 C 
HETATM   15  N   UNL     1       8.060  28.839  58.584  1.00  0.00    -0.360 N 
HETATM   16  H   UNL     1       8.919  28.377  58.859  1.00  0.00     0.162 HD
HETATM   17  O   UNL     1       6.288  28.750  57.123  1.00  0.00    -0.273 OA
BRANCH  15  18
HETATM   18  C   UNL     1       7.973  30.275  58.809  1.00  0.00     0.127 C 
BRANCH  18  19
HETATM   19  C   UNL     1       8.888  30.722  59.951  1.00  0.00     0.058 C 
BRANCH  19  20
HETATM   20  C   UNL     1       8.144  31.480  61.020  1.00  0.00    -0.057 A 
HETATM   21  C   UNL     1       6.906  32.079  60.738  1.00  0.00     0.009 A 
HETATM   22  C   UNL     1       6.221  32.788  61.728  1.00  0.00     0.025 A 
HETATM   23  C   UNL     1       6.772  32.895  63.006  1.00  0.00     0.074 A 
HETATM   24  C   UNL     1       8.010  32.318  63.298  1.00  0.00     0.025 A 
HETATM   25  C   UNL     1       8.691  31.610  62.306  1.00  0.00     0.009 A 
BRANCH  23  26
HETATM   26  S   UNL     1       5.930  33.834  64.248  1.00  0.00     0.239 S 
HETATM   27  O   UNL     1       5.589  35.128  63.708  1.00  0.00    -0.206 OA
HETATM   28  O   UNL     1       4.960  32.987  64.901  1.00  0.00    -0.206 OA
BRANCH  26  29
HETATM   29  N   UNL     1       7.147  34.100  65.371  1.00  0.00    -0.225 NA
HETATM   30  H   UNL     1       6.746  34.182  66.307  1.00  0.00     0.136 HD
HETATM   31  H   UNL     1       7.856  33.369  65.298  1.00  0.00     0.136 HD
ENDBRANCH  26  29
ENDBRANCH  23  26
ENDBRANCH  19  20
ENDBRANCH  18  19
ENDBRANCH  15  18
ENDBRANCH  13  14
ENDBRANCH  12  13
ENDBRANCH   2  12
BRANCH   1  32
HETATM   32  C   UNL     1       6.816  25.944  54.027  1.00  0.00     0.051 A 
HETATM   33  C   UNL     1       5.614  26.066  53.311  1.00  0.00    -0.013 A 
HETATM   34  C   UNL     1       4.648  24.927  53.139  1.00  0.00     0.052 C 
HETATM   35  C   UNL     1       5.362  27.316  52.720  1.00  0.00     0.042 A 
HETATM   36 CL   UNL     1       3.954  27.594  51.758  1.00  0.00    -0.084 Cl
HETATM   37  C   UNL     1       6.246  28.392  52.886  1.00  0.00     0.024 A 
HETATM   38  C   UNL     1       7.411  28.244  53.639  1.00  0.00     0.004 A 
HETATM   39  C   UNL     1       7.704  27.014  54.213  1.00  0.00     0.031 A 
ENDBRANCH   1  32
BRANCH   6  40
HETATM   40  N   UNL     1       8.033  23.915  52.529  1.00  0.00    -0.384 N 
HETATM   41  H   UNL     1       8.408  23.124  52.015  1.00  0.00     0.157 HD
HETATM   42  H   UNL     1       8.373  24.812  52.201  1.00  0.00     0.157 HD
ENDBRANCH   6  40
TORSDOF 10
ENDMDL
MODEL 4
REMARK VINA RESULT:      -9.7      1.740      2.397
REMARK  10 active torsions:
REMARK  status: ('A' for Active; 'I' for Inactive)
REMARK    1  A    between atoms: C_8  and  N_9 
REMARK    2  A    between atoms: C_10  and  S_11 
REMARK    3  A    between atoms: S_11  and  C_12 
REMARK    4  A    between atoms: C_12  and  C_13 
REMARK       I    between atoms: C_13  and  N_14 
REMARK    5  A    between atoms: N_14  and  C_15 
REMARK    6  A    between atoms: C_15  and  C_16 
REMARK    7  A    between atoms: C_16  and  C_17 
REMARK    8  A    between atoms: C_20  and  S_21 
REMARK    9  A    between atoms: S_21  and  N_22 
REMARK   10  A    between atoms: C_31  and  N_32 
ROOT
HETATM    1  N   UNL     1       6.120  26.578  53.074  1.00  0.00    -0.275 N 
HETATM    2  C   UNL     1       6.714  27.787  53.291  1.00  0.00     0.177 A 
HETATM    3  N   UNL     1       6.504  28.898  52.551  1.00  0.00    -0.204 NA
HETATM    4  C   UNL     1       5.630  28.686  51.569  1.00  0.00     0.162 A 
HETATM    5  C   UNL     1       4.983  27.504  51.275  1.00  0.00     0.081 A 
HETATM    6  C   UNL     1       5.207  26.376  52.081  1.00  0.00     0.124 A 
HETATM    7  N   UNL     1       5.217  29.605  50.647  1.00  0.00    -0.260 N 
HETATM    8  H   UNL     1       5.488  30.580  50.573  1.00  0.00     0.191 HD
HETATM    9  N   UNL     1       4.369  29.097  49.741  1.00  0.00    -0.177 NA
HETATM   10  C   UNL     1       4.224  27.816  50.105  1.00  0.00     0.068 A 
HETATM   11  C   UNL     1       3.365  26.924  49.284  1.00  0.00     0.073 C 
ENDROOT
BRANCH   2  12
HETATM   12  S   UNL     1       8.000  27.988  54.542  1.00  0.00    -0.082 SA
BRANCH  12  13
HETATM   13  C   UNL     1       7.089  28.965  55.786  1.00  0.00     0.185 C 
BRANCH  13  14
HETATM   14  C   UNL     1       7.999  29.407  56.925  1.00  0.00     0.227 C 
HETATM   15  N   UNL     1       7.317  29.841  58.044  1.00  0.00    -0.360 N 
HETATM   16  H   UNL     1       6.328  29.637  58.120  1.00  0.00     0.162 HD
HETATM   17  O   UNL     1       9.226  29.371  56.851  1.00  0.00    -0.273 OA
BRANCH  15  18
HETATM   18  C   UNL     1       8.016  30.220  59.265  1.00  0.00     0.127 C 
BRANCH  18  19
HETATM   19  C   UNL     1       8.158  31.739  59.382  1.00  0.00     0.058 C 
BRANCH  19  20
HETATM   20  C   UNL     1       7.645  32.265  60.698  1.00  0.00    -0.057 A 
HETATM   21  C   UNL     1       6.375  32.855  60.783  1.00  0.00     0.009 A 
HETATM   22  C   UNL     1       5.903  33.349  62.001  1.00  0.00     0.025 A 
HETATM   23  C   UNL     1       6.703  33.249  63.141  1.00  0.00     0.074 A 
HETATM   24  C   UNL     1       7.975  32.678  63.071  1.00  0.00     0.025 A 
HETATM   25  C   UNL     1       8.441  32.184  61.851  1.00  0.00     0.009 A 
BRANCH  23  26
HETATM   26  S   UNL     1       6.128  33.918  64.677  1.00  0.00     0.239 S 
HETATM   27  O   UNL     1       7.005  33.482  65.736  1.00  0.00    -0.206 OA
HETATM   28  O   UNL     1       5.778  35.306  64.483  1.00  0.00    -0.206 OA
BRANCH  26  29
HETATM   29  N   UNL     1       4.682  33.098  64.897  1.00  0.00    -0.225 NA
HETATM   30  H   UNL     1       4.865  32.162  65.262  1.00  0.00     0.136 HD
HETATM   31  H   UNL     1       4.056  33.647  65.488  1.00  0.00     0.136 HD
ENDBRANCH  26  29
ENDBRANCH  23  26
ENDBRANCH  19  20
ENDBRANCH  18  19
ENDBRANCH  15  18
ENDBRANCH  13  14
ENDBRANCH  12  13
ENDBRANCH   2  12
BRANCH   1  32
HETATM   32  C   UNL     1       6.546  25.435  53.839  1.00  0.00     0.051 A 
HETATM   33  C   UNL     1       7.489  24.532  53.320  1.00  0.00    -0.013 A 
HETATM   34  C   UNL     1       8.095  24.682  51.954  1.00  0.00     0.052 C 
HETATM   35  C   UNL     1       7.824  23.438  54.138  1.00  0.00     0.042 A 
HETATM   36 CL   UNL     1       8.922  22.215  53.606  1.00  0.00    -0.084 Cl
HETATM   37  C   UNL     1       7.278  23.295  55.421  1.00  0.00     0.024 A 
HETATM   38  C   UNL     1       6.376  24.234  55.919  1.00  0.00     0.004 A 
HETATM   39  C   UNL     1       6.002  25.312  55.126  1.00  0.00     0.031 A 
ENDBRANCH   1  32
BRANCH   6  40
HETATM   40  N   UNL     1       4.590  25.150  51.856  1.00  0.00    -0.384 N 
HETATM   41  H   UNL     1       4.727  24.712  50.950  1.00  0.00     0.157 HD
HETATM   42  H   UNL     1       3.696  24.933  52.281  1.00  0.00     0.157 HD
ENDBRANCH   6  40
TORSDOF 10
ENDMDL
MODEL 5
REMARK VINA RESULT:      -9.3      1.371      2.050
REMARK  10 active torsions:
REMARK  status: ('A' for Active; 'I' for Inactive)
REMARK    1  A    between atoms: C_8  and  N_9 
REMARK    2  A    between atoms: C_10  and  S_11 
REMARK    3  A    between atoms: S_11  and  C_12 
REMARK    4  A    between atoms: C_12  and  C_13 
REMARK       I    between atoms: C_13  and  N_14 
REMARK    5  A    between atoms: N_14  and  C_15 
REMARK    6  A    between atoms: C_15  and  C_16 
REMARK    7  A    between atoms: C_16  and  C_17 
REMARK    8  A    between atoms: C_20  and  S_21 
REMARK    9  A    between atoms: S_21  and  N_22 
REMARK   10  A    between atoms: C_31  and  N_32 
ROOT
HETATM    1  N   UNL     1       6.238  26.767  55.220  1.00  0.00    -0.275 N 
HETATM    2  C   UNL     1       6.865  27.772  55.898  1.00  0.00     0.177 A 
HETATM    3  N   UNL     1       6.565  29.085  55.788  1.00  0.00    -0.204 NA
HETATM    4  C   UNL     1       5.564  29.299  54.935  1.00  0.00     0.162 A 
HETATM    5  C   UNL     1       4.876  28.351  54.209  1.00  0.00     0.081 A 
HETATM    6  C   UNL     1       5.198  26.993  54.367  1.00  0.00     0.124 A 
HETATM    7  N   UNL     1       5.038  30.514  54.602  1.00  0.00    -0.260 N 
HETATM    8  H   UNL     1       5.303  31.428  54.955  1.00  0.00     0.191 HD
HETATM    9  N   UNL     1       4.072  30.433  53.676  1.00  0.00    -0.177 NA
HETATM   10  C   UNL     1       3.968  29.123  53.420  1.00  0.00     0.068 A 
HETATM   11  C   UNL     1       2.999  28.661  52.392  1.00  0.00     0.073 C 
ENDROOT
BRANCH   2  12
HETATM   12  S   UNL     1       8.308  27.447  56.931  1.00  0.00    -0.082 SA
BRANCH  12  13
HETATM   13  C   UNL     1       9.111  29.086  56.888  1.00  0.00     0.185 C 
BRANCH  13  14
HETATM   14  C   UNL     1       8.698  29.942  58.078  1.00  0.00     0.227 C 
HETATM   15  N   UNL     1       9.685  30.802  58.513  1.00  0.00    -0.360 N 
HETATM   16  H   UNL     1      10.487  30.965  57.914  1.00  0.00     0.162 HD
HETATM   17  O   UNL     1       7.584  29.875  58.593  1.00  0.00    -0.273 OA
BRANCH  15  18
HETATM   18  C   UNL     1       9.447  31.761  59.583  1.00  0.00     0.127 C 
BRANCH  18  19
HETATM   19  C   UNL     1       9.210  31.061  60.922  1.00  0.00     0.058 C 
BRANCH  19  20
HETATM   20  C   UNL     1       8.135  31.731  61.740  1.00  0.00    -0.057 A 
HETATM   21  C   UNL     1       6.823  31.822  61.251  1.00  0.00     0.009 A 
HETATM   22  C   UNL     1       5.828  32.448  62.005  1.00  0.00     0.025 A 
HETATM   23  C   UNL     1       6.145  32.983  63.255  1.00  0.00     0.074 A 
HETATM   24  C   UNL     1       7.449  32.913  63.749  1.00  0.00     0.025 A 
HETATM   25  C   UNL     1       8.439  32.285  62.992  1.00  0.00     0.009 A 
BRANCH  23  26
HETATM   26  S   UNL     1       4.898  33.821  64.192  1.00  0.00     0.239 S 
HETATM   27  O   UNL     1       4.696  33.120  65.438  1.00  0.00    -0.206 OA
HETATM   28  O   UNL     1       5.143  35.243  64.133  1.00  0.00    -0.206 OA
BRANCH  26  29
HETATM   29  N   UNL     1       3.523  33.546  63.271  1.00  0.00    -0.225 NA
HETATM   30  H   UNL     1       2.690  33.795  63.807  1.00  0.00     0.136 HD
HETATM   31  H   UNL     1       3.595  34.040  62.381  1.00  0.00     0.136 HD
ENDBRANCH  26  29
ENDBRANCH  23  26
ENDBRANCH  19  20
ENDBRANCH  18  19
ENDBRANCH  15  18
ENDBRANCH  13  14
ENDBRANCH  12  13
ENDBRANCH   2  12
BRANCH   1  32
HETATM   32  C   UNL     1       6.755  25.425  55.310  1.00  0.00     0.051 A 
HETATM   33  C   UNL     1       7.511  24.874  54.263  1.00  0.00    -0.013 A 
HETATM   34  C   UNL     1       7.815  25.622  52.995  1.00  0.00     0.052 C 
HETATM   35  C   UNL     1       7.954  23.551  54.440  1.00  0.00     0.042 A 
HETATM   36 CL   UNL     1       8.841  22.723  53.210  1.00  0.00    -0.084 Cl
HETATM   37  C   UNL     1       7.692  22.848  55.625  1.00  0.00     0.024 A 
HETATM   38  C   UNL     1       6.972  23.443  56.660  1.00  0.00     0.004 A 
HETATM   39  C   UNL     1       6.495  24.740  56.506  1.00  0.00     0.031 A 
ENDBRANCH   1  32
BRANCH   6  40
HETATM   40  N   UNL     1       4.548  25.975  53.677  1.00  0.00    -0.384 N 
HETATM   41  H   UNL     1       4.740  25.880  52.685  1.00  0.00     0.157 HD
HETATM   42  H   UNL     1       3.612  25.686  53.939  1.00  0.00     0.157 HD
ENDBRANCH   6  40
TORSDOF 10
ENDMDL
MODEL 6
REMARK VINA RESULT:      -9.1      6.020     11.520
REMARK  10 active torsions:
REMARK  status: ('A' for Active; 'I' for Inactive)
REMARK    1  A    between atoms: C_8  and  N_9 
REMARK    2  A    between atoms: C_10  and  S_11 
REMARK    3  A    between atoms: S_11  and  C_12 
REMARK    4  A    between atoms: C_12  and  C_13 
REMARK       I    between atoms: C_13  and  N_14 
REMARK    5  A    between atoms: N_14  and  C_15 
REMARK    6  A    between atoms: C_15  and  C_16 
REMARK    7  A    between atoms: C_16  and  C_17 
REMARK    8  A    between atoms: C_20  and  S_21 
REMARK    9  A    between atoms: S_21  and  N_22 
REMARK   10  A    between atoms: C_31  and  N_32 
ROOT
HETATM    1  N   UNL     1       7.169  26.003  55.497  1.00  0.00    -0.275 N 
HETATM    2  C   UNL     1       6.980  26.012  54.146  1.00  0.00     0.177 A 
HETATM    3  N   UNL     1       7.071  24.929  53.344  1.00  0.00    -0.204 NA
HETATM    4  C   UNL     1       7.362  23.823  54.028  1.00  0.00     0.162 A 
HETATM    5  C   UNL     1       7.568  23.719  55.387  1.00  0.00     0.081 A 
HETATM    6  C   UNL     1       7.442  24.863  56.193  1.00  0.00     0.124 A 
HETATM    7  N   UNL     1       7.528  22.574  53.503  1.00  0.00    -0.260 N 
HETATM    8  H   UNL     1       7.442  22.287  52.534  1.00  0.00     0.191 HD
HETATM    9  N   UNL     1       7.869  21.659  54.423  1.00  0.00    -0.177 NA
HETATM   10  C   UNL     1       7.905  22.343  55.573  1.00  0.00     0.068 A 
HETATM   11  C   UNL     1       8.295  21.638  56.822  1.00  0.00     0.073 C 
ENDROOT
BRANCH   2  12
HETATM   12  S   UNL     1       6.732  27.556  53.245  1.00  0.00    -0.082 SA
BRANCH  12  13
HETATM   13  C   UNL     1       5.009  27.329  52.685  1.00  0.00     0.185 C 
BRANCH  13  14
HETATM   14  C   UNL     1       4.781  27.950  51.314  1.00  0.00     0.227 C 
HETATM   15  N   UNL     1       5.518  27.362  50.307  1.00  0.00    -0.360 N 
HETATM   16  H   UNL     1       5.961  26.468  50.488  1.00  0.00     0.162 HD
HETATM   17  O   UNL     1       4.003  28.885  51.126  1.00  0.00    -0.273 OA
BRANCH  15  18
HETATM   18  C   UNL     1       5.368  27.763  48.915  1.00  0.00     0.127 C 
BRANCH  18  19
HETATM   19  C   UNL     1       4.534  26.752  48.126  1.00  0.00     0.058 C 
BRANCH  19  20
HETATM   20  C   UNL     1       3.254  27.348  47.598  1.00  0.00    -0.057 A 
HETATM   21  C   UNL     1       3.114  28.739  47.479  1.00  0.00     0.009 A 
HETATM   22  C   UNL     1       1.926  29.293  46.996  1.00  0.00     0.025 A 
HETATM   23  C   UNL     1       0.874  28.452  46.627  1.00  0.00     0.074 A 
HETATM   24  C   UNL     1       0.993  27.066  46.753  1.00  0.00     0.025 A 
HETATM   25  C   UNL     1       2.183  26.518  47.235  1.00  0.00     0.009 A 
BRANCH  23  26
HETATM   26  S   UNL     1      -0.651  29.151  46.061  1.00  0.00     0.239 S 
HETATM   27  O   UNL     1      -1.618  28.093  45.891  1.00  0.00    -0.206 OA
HETATM   28  O   UNL     1      -0.933  30.343  46.826  1.00  0.00    -0.206 OA
BRANCH  26  29
HETATM   29  N   UNL     1      -0.248  29.670  44.518  1.00  0.00    -0.225 NA
HETATM   30  H   UNL     1      -0.389  28.912  43.849  1.00  0.00     0.136 HD
HETATM   31  H   UNL     1      -0.770  30.516  44.288  1.00  0.00     0.136 HD
ENDBRANCH  26  29
ENDBRANCH  23  26
ENDBRANCH  19  20
ENDBRANCH  18  19
ENDBRANCH  15  18
ENDBRANCH  13  14
ENDBRANCH  12  13
ENDBRANCH   2  12
BRANCH   1  32
HETATM   32  C   UNL     1       7.197  27.252  56.215  1.00  0.00     0.051 A 
HETATM   33  C   UNL     1       6.008  27.853  56.661  1.00  0.00    -0.013 A 
HETATM   34  C   UNL     1       4.651  27.257  56.413  1.00  0.00     0.052 C 
HETATM   35  C   UNL     1       6.142  29.079  57.334  1.00  0.00     0.042 A 
HETATM   36 CL   UNL     1       4.763  29.963  57.885  1.00  0.00    -0.084 Cl
HETATM   37  C   UNL     1       7.403  29.637  57.587  1.00  0.00     0.024 A 
HETATM   38  C   UNL     1       8.564  28.991  57.165  1.00  0.00     0.004 A 
HETATM   39  C   UNL     1       8.466  27.791  56.471  1.00  0.00     0.031 A 
ENDBRANCH   1  32
BRANCH   6  40
HETATM   40  N   UNL     1       7.629  24.841  57.572  1.00  0.00    -0.384 N 
HETATM   41  H   UNL     1       6.803  24.779  58.159  1.00  0.00     0.157 HD
HETATM   42  H   UNL     1       8.394  25.350  58.000  1.00  0.00     0.157 HD
ENDBRANCH   6  40
TORSDOF 10
ENDMDL
MODEL 7
REMARK VINA RESULT:      -9.0      4.116     11.135
REMARK  10 active torsions:
REMARK  status: ('A' for Active; 'I' for Inactive)
REMARK    1  A    between atoms: C_8  and  N_9 
REMARK    2  A    between atoms: C_10  and  S_11 
REMARK    3  A    between atoms: S_11  and  C_12 
REMARK    4  A    between atoms: C_12  and  C_13 
REMARK       I    between atoms: C_13  and  N_14 
REMARK    5  A    between atoms: N_14  and  C_15 
REMARK    6  A    between atoms: C_15  and  C_16 
REMARK    7  A    between atoms: C_16  and  C_17 
REMARK    8  A    between atoms: C_20  and  S_21 
REMARK    9  A    between atoms: S_21  and  N_22 
REMARK   10  A    between atoms: C_31  and  N_32 
ROOT
HETATM    1  N   UNL     1       4.929  33.628  63.260  1.00  0.00    -0.275 N 
HETATM    2  C   UNL     1       6.263  33.392  63.421  1.00  0.00     0.177 A 
HETATM    3  N   UNL     1       6.934  33.507  64.588  1.00  0.00    -0.204 NA
HETATM    4  C   UNL     1       6.137  33.874  65.590  1.00  0.00     0.162 A 
HETATM    5  C   UNL     1       4.784  34.132  65.521  1.00  0.00     0.081 A 
HETATM    6  C   UNL     1       4.114  33.980  64.296  1.00  0.00     0.124 A 
HETATM    7  N   UNL     1       6.516  34.082  66.885  1.00  0.00    -0.260 N 
HETATM    8  H   UNL     1       7.440  33.975  67.290  1.00  0.00     0.191 HD
HETATM    9  N   UNL     1       5.509  34.497  67.667  1.00  0.00    -0.177 NA
HETATM   10  C   UNL     1       4.450  34.541  66.849  1.00  0.00     0.068 A 
HETATM   11  C   UNL     1       3.144  35.007  67.382  1.00  0.00     0.073 C 
ENDROOT
BRANCH   2  12
HETATM   12  S   UNL     1       7.330  33.039  62.009  1.00  0.00    -0.082 SA
BRANCH  12  13
HETATM   13  C   UNL     1       8.338  31.683  62.698  1.00  0.00     0.185 C 
BRANCH  13  14
HETATM   14  C   UNL     1       8.721  30.670  61.627  1.00  0.00     0.227 C 
HETATM   15  N   UNL     1       8.012  30.810  60.452  1.00  0.00    -0.360 N 
HETATM   16  H   UNL     1       7.481  31.661  60.302  1.00  0.00     0.162 HD
HETATM   17  O   UNL     1       9.587  29.815  61.797  1.00  0.00    -0.273 OA
BRANCH  15  18
HETATM   18  C   UNL     1       8.299  29.989  59.283  1.00  0.00     0.127 C 
BRANCH  18  19
HETATM   19  C   UNL     1       7.195  30.104  58.230  1.00  0.00     0.058 C 
BRANCH  19  20
HETATM   20  C   UNL     1       7.069  28.858  57.391  1.00  0.00    -0.057 A 
HETATM   21  C   UNL     1       5.923  28.640  56.610  1.00  0.00     0.009 A 
HETATM   22  C   UNL     1       5.803  27.483  55.837  1.00  0.00     0.025 A 
HETATM   23  C   UNL     1       6.834  26.541  55.842  1.00  0.00     0.074 A 
HETATM   24  C   UNL     1       7.973  26.737  56.624  1.00  0.00     0.025 A 
HETATM   25  C   UNL     1       8.089  27.896  57.394  1.00  0.00     0.009 A 
BRANCH  23  26
HETATM   26  S   UNL     1       6.663  25.050  54.902  1.00  0.00     0.239 S 
HETATM   27  O   UNL     1       7.509  25.131  53.736  1.00  0.00    -0.206 OA
HETATM   28  O   UNL     1       6.691  23.922  55.803  1.00  0.00    -0.206 OA
BRANCH  26  29
HETATM   29  N   UNL     1       5.085  25.165  54.346  1.00  0.00    -0.225 NA
HETATM   30  H   UNL     1       4.777  26.138  54.371  1.00  0.00     0.136 HD
HETATM   31  H   UNL     1       5.009  24.740  53.421  1.00  0.00     0.136 HD
ENDBRANCH  26  29
ENDBRANCH  23  26
ENDBRANCH  19  20
ENDBRANCH  18  19
ENDBRANCH  15  18
ENDBRANCH  13  14
ENDBRANCH  12  13
ENDBRANCH   2  12
BRANCH   1  32
HETATM   32  C   UNL     1       4.366  33.621  61.934  1.00  0.00     0.051 A 
HETATM   33  C   UNL     1       4.337  34.791  61.158  1.00  0.00    -0.013 A 
HETATM   34  C   UNL     1       4.864  36.109  61.651  1.00  0.00     0.052 C 
HETATM   35  C   UNL     1       3.749  34.684  59.886  1.00  0.00     0.042 A 
HETATM   36 CL   UNL     1       3.588  36.054  58.846  1.00  0.00    -0.084 Cl
HETATM   37  C   UNL     1       3.268  33.457  59.407  1.00  0.00     0.024 A 
HETATM   38  C   UNL     1       3.352  32.306  60.191  1.00  0.00     0.004 A 
HETATM   39  C   UNL     1       3.901  32.384  61.465  1.00  0.00     0.031 A 
ENDBRANCH   1  32
BRANCH   6  40
HETATM   40  N   UNL     1       2.752  34.215  64.143  1.00  0.00    -0.384 N 
HETATM   41  H   UNL     1       2.311  34.865  64.787  1.00  0.00     0.157 HD
HETATM   42  H   UNL     1       2.132  33.482  63.818  1.00  0.00     0.157 HD
ENDBRANCH   6  40
TORSDOF 10
ENDMDL
MODEL 8
REMARK VINA RESULT:      -8.9      4.683     10.162
REMARK  10 active torsions:
REMARK  status: ('A' for Active; 'I' for Inactive)
REMARK    1  A    between atoms: C_8  and  N_9 
REMARK    2  A    between atoms: C_10  and  S_11 
REMARK    3  A    between atoms: S_11  and  C_12 
REMARK    4  A    between atoms: C_12  and  C_13 
REMARK       I    between atoms: C_13  and  N_14 
REMARK    5  A    between atoms: N_14  and  C_15 
REMARK    6  A    between atoms: C_15  and  C_16 
REMARK    7  A    between atoms: C_16  and  C_17 
REMARK    8  A    between atoms: C_20  and  S_21 
REMARK    9  A    between atoms: S_21  and  N_22 
REMARK   10  A    between atoms: C_31  and  N_32 
ROOT
HETATM    1  N   UNL     1       6.481  28.388  56.191  1.00  0.00    -0.275 N 
HETATM    2  C   UNL     1       5.458  29.193  55.785  1.00  0.00     0.177 A 
HETATM    3  N   UNL     1       5.182  30.414  56.296  1.00  0.00    -0.204 NA
HETATM    4  C   UNL     1       6.039  30.760  57.255  1.00  0.00     0.162 A 
HETATM    5  C   UNL     1       7.097  30.014  57.729  1.00  0.00     0.081 A 
HETATM    6  C   UNL     1       7.369  28.760  57.157  1.00  0.00     0.124 A 
HETATM    7  N   UNL     1       6.020  31.923  57.969  1.00  0.00    -0.260 N 
HETATM    8  H   UNL     1       5.378  32.703  57.875  1.00  0.00     0.191 HD
HETATM    9  N   UNL     1       6.975  31.978  58.909  1.00  0.00    -0.177 NA
HETATM   10  C   UNL     1       7.633  30.819  58.781  1.00  0.00     0.068 A 
HETATM   11  C   UNL     1       8.754  30.518  59.709  1.00  0.00     0.073 C 
ENDROOT
BRANCH   2  12
HETATM   12  S   UNL     1       4.236  28.623  54.585  1.00  0.00    -0.082 SA
BRANCH  12  13
HETATM   13  C   UNL     1       3.368  30.190  54.238  1.00  0.00     0.185 C 
BRANCH  13  14
HETATM   14  C   UNL     1       3.632  30.674  52.818  1.00  0.00     0.227 C 
HETATM   15  N   UNL     1       2.631  31.476  52.310  1.00  0.00    -0.360 N 
HETATM   16  H   UNL     1       1.940  31.856  52.947  1.00  0.00     0.162 HD
HETATM   17  O   UNL     1       4.648  30.380  52.192  1.00  0.00    -0.273 OA
BRANCH  15  18
HETATM   18  C   UNL     1       2.746  32.104  51.000  1.00  0.00     0.127 C 
BRANCH  18  19
HETATM   19  C   UNL     1       1.761  31.499  49.998  1.00  0.00     0.058 C 
BRANCH  19  20
HETATM   20  C   UNL     1       2.247  30.189  49.433  1.00  0.00    -0.057 A 
HETATM   21  C   UNL     1       1.419  29.056  49.452  1.00  0.00     0.009 A 
HETATM   22  C   UNL     1       1.871  27.839  48.936  1.00  0.00     0.025 A 
HETATM   23  C   UNL     1       3.155  27.756  48.394  1.00  0.00     0.074 A 
HETATM   24  C   UNL     1       3.996  28.870  48.381  1.00  0.00     0.025 A 
HETATM   25  C   UNL     1       3.539  30.084  48.897  1.00  0.00     0.009 A 
BRANCH  23  26
HETATM   26  S   UNL     1       3.750  26.204  47.783  1.00  0.00     0.239 S 
HETATM   27  O   UNL     1       5.071  26.391  47.234  1.00  0.00    -0.206 OA
HETATM   28  O   UNL     1       3.450  25.173  48.748  1.00  0.00    -0.206 OA
BRANCH  26  29
HETATM   29  N   UNL     1       2.734  25.929  46.476  1.00  0.00    -0.225 NA
HETATM   30  H   UNL     1       2.464  24.945  46.447  1.00  0.00     0.136 HD
HETATM   31  H   UNL     1       1.938  26.567  46.514  1.00  0.00     0.136 HD
ENDBRANCH  26  29
ENDBRANCH  23  26
ENDBRANCH  19  20
ENDBRANCH  18  19
ENDBRANCH  15  18
ENDBRANCH  13  14
ENDBRANCH  12  13
ENDBRANCH   2  12
BRANCH   1  32
HETATM   32  C   UNL     1       6.573  27.047  55.674  1.00  0.00     0.051 A 
HETATM   33  C   UNL     1       7.273  26.781  54.486  1.00  0.00    -0.013 A 
HETATM   34  C   UNL     1       7.947  27.854  53.679  1.00  0.00     0.052 C 
HETATM   35  C   UNL     1       7.288  25.443  54.055  1.00  0.00     0.042 A 
HETATM   36 CL   UNL     1       8.057  24.977  52.579  1.00  0.00    -0.084 Cl
HETATM   37  C   UNL     1       6.677  24.429  54.807  1.00  0.00     0.024 A 
HETATM   38  C   UNL     1       6.026  24.726  56.003  1.00  0.00     0.004 A 
HETATM   39  C   UNL     1       5.968  26.042  56.444  1.00  0.00     0.031 A 
ENDBRANCH   1  32
BRANCH   6  40
HETATM   40  N   UNL     1       8.420  27.950  57.574  1.00  0.00    -0.384 N 
HETATM   41  H   UNL     1       9.249  27.913  56.988  1.00  0.00     0.157 HD
HETATM   42  H   UNL     1       8.243  27.090  58.082  1.00  0.00     0.157 HD
ENDBRANCH   6  40
TORSDOF 10
ENDMDL
MODEL 9
REMARK VINA RESULT:      -8.9      8.306     10.771
REMARK  10 active torsions:
REMARK  status: ('A' for Active; 'I' for Inactive)
REMARK    1  A    between atoms: C_8  and  N_9 
REMARK    2  A    between atoms: C_10  and  S_11 
REMARK    3  A    between atoms: S_11  and  C_12 
REMARK    4  A    between atoms: C_12  and  C_13 
REMARK       I    between atoms: C_13  and  N_14 
REMARK    5  A    between atoms: N_14  and  C_15 
REMARK    6  A    between atoms: C_15  and  C_16 
REMARK    7  A    between atoms: C_16  and  C_17 
REMARK    8  A    between atoms: C_20  and  S_21 
REMARK    9  A    between atoms: S_21  and  N_22 
REMARK   10  A    between atoms: C_31  and  N_32 
ROOT
HETATM    1  N   UNL     1       2.729  29.824  47.466  1.00  0.00    -0.275 N 
HETATM    2  C   UNL     1       3.122  28.525  47.331  1.00  0.00     0.177 A 
HETATM    3  N   UNL     1       2.335  27.519  46.891  1.00  0.00    -0.204 NA
HETATM    4  C   UNL     1       1.108  27.941  46.587  1.00  0.00     0.162 A 
HETATM    5  C   UNL     1       0.625  29.227  46.691  1.00  0.00     0.081 A 
HETATM    6  C   UNL     1       1.479  30.253  47.130  1.00  0.00     0.124 A 
HETATM    7  N   UNL     1       0.083  27.166  46.126  1.00  0.00    -0.260 N 
HETATM    8  H   UNL     1       0.092  26.172  45.927  1.00  0.00     0.191 HD
HETATM    9  N   UNL     1      -1.057  27.851  45.955  1.00  0.00    -0.177 NA
HETATM   10  C   UNL     1      -0.745  29.106  46.303  1.00  0.00     0.068 A 
HETATM   11  C   UNL     1      -1.803  30.149  46.272  1.00  0.00     0.073 C 
ENDROOT
BRANCH   2  12
HETATM   12  S   UNL     1       4.747  27.973  47.892  1.00  0.00    -0.082 SA
BRANCH  12  13
HETATM   13  C   UNL     1       4.256  26.684  49.086  1.00  0.00     0.185 C 
BRANCH  13  14
HETATM   14  C   UNL     1       4.858  26.939  50.462  1.00  0.00     0.227 C 
HETATM   15  N   UNL     1       4.727  25.875  51.331  1.00  0.00    -0.360 N 
HETATM   16  H   UNL     1       4.463  24.971  50.957  1.00  0.00     0.162 HD
HETATM   17  O   UNL     1       5.413  27.993  50.762  1.00  0.00    -0.273 OA
BRANCH  15  18
HETATM   18  C   UNL     1       5.316  25.898  52.663  1.00  0.00     0.127 C 
BRANCH  18  19
HETATM   19  C   UNL     1       6.826  25.655  52.614  1.00  0.00     0.058 C 
BRANCH  19  20
HETATM   20  C   UNL     1       7.228  24.388  53.324  1.00  0.00    -0.057 A 
HETATM   21  C   UNL     1       7.099  24.282  54.718  1.00  0.00     0.009 A 
HETATM   22  C   UNL     1       7.479  23.110  55.377  1.00  0.00     0.025 A 
HETATM   23  C   UNL     1       7.986  22.038  54.640  1.00  0.00     0.074 A 
HETATM   24  C   UNL     1       8.134  22.134  53.255  1.00  0.00     0.025 A 
HETATM   25  C   UNL     1       7.752  23.307  52.600  1.00  0.00     0.009 A 
BRANCH  23  26
HETATM   26  S   UNL     1       8.514  20.570  55.477  1.00  0.00     0.239 S 
HETATM   27  O   UNL     1       9.781  20.826  56.119  1.00  0.00    -0.206 OA
HETATM   28  O   UNL     1       7.389  20.001  56.181  1.00  0.00    -0.206 OA
BRANCH  26  29
HETATM   29  N   UNL     1       8.837  19.535  54.197  1.00  0.00    -0.225 NA
HETATM   30  H   UNL     1       8.825  18.567  54.522  1.00  0.00     0.136 HD
HETATM   31  H   UNL     1       8.187  19.713  53.432  1.00  0.00     0.136 HD
ENDBRANCH  26  29
ENDBRANCH  23  26
ENDBRANCH  19  20
ENDBRANCH  18  19
ENDBRANCH  15  18
ENDBRANCH  13  14
ENDBRANCH  12  13
ENDBRANCH   2  12
BRANCH   1  32
HETATM   32  C   UNL     1       3.618  30.769  48.093  1.00  0.00     0.051 A 
HETATM   33  C   UNL     1       3.615  30.945  49.486  1.00  0.00    -0.013 A 
HETATM   34  C   UNL     1       2.694  30.190  50.401  1.00  0.00     0.052 C 
HETATM   35  C   UNL     1       4.506  31.905  49.997  1.00  0.00     0.042 A 
HETATM   36 CL   UNL     1       4.569  32.272  51.684  1.00  0.00    -0.084 Cl
HETATM   37  C   UNL     1       5.383  32.605  49.156  1.00  0.00     0.024 A 
HETATM   38  C   UNL     1       5.386  32.373  47.781  1.00  0.00     0.004 A 
HETATM   39  C   UNL     1       4.498  31.452  47.240  1.00  0.00     0.031 A 
ENDBRANCH   1  32
BRANCH   6  40
HETATM   40  N   UNL     1       1.071  31.576  47.257  1.00  0.00    -0.384 N 
HETATM   41  H   UNL     1       1.120  32.166  46.431  1.00  0.00     0.157 HD
HETATM   42  H   UNL     1       1.208  32.081  48.125  1.00  0.00     0.157 HD
ENDBRANCH   6  40
TORSDOF 10
ENDMDL
MODEL 10
REMARK VINA RESULT:      -8.7      5.680     11.028
REMARK  10 active torsions:
REMARK  status: ('A' for Active; 'I' for Inactive)
REMARK    1  A    between atoms: C_8  and  N_9 
REMARK    2  A    between atoms: C_10  and  S_11 
REMARK    3  A    between atoms: S_11  and  C_12 
REMARK    4  A    between atoms: C_12  and  C_13 
REMARK       I    between atoms: C_13  and  N_14 
REMARK    5  A    between atoms: N_14  and  C_15 
REMARK    6  A    between atoms: C_15  and  C_16 
REMARK    7  A    between atoms: C_16  and  C_17 
REMARK    8  A    between atoms: C_20  and  S_21 
REMARK    9  A    between atoms: S_21  and  N_22 
REMARK   10  A    between atoms: C_31  and  N_32 
ROOT
HETATM    1  N   UNL     1       6.962  28.724  56.251  1.00  0.00    -0.275 N 
HETATM    2  C   UNL     1       5.675  29.133  56.448  1.00  0.00     0.177 A 
HETATM    3  N   UNL     1       5.299  30.147  57.259  1.00  0.00    -0.204 NA
HETATM    4  C   UNL     1       6.342  30.723  57.855  1.00  0.00     0.162 A 
HETATM    5  C   UNL     1       7.670  30.378  57.718  1.00  0.00     0.081 A 
HETATM    6  C   UNL     1       8.026  29.335  56.847  1.00  0.00     0.124 A 
HETATM    7  N   UNL     1       6.290  31.764  58.737  1.00  0.00    -0.260 N 
HETATM    8  H   UNL     1       5.471  32.268  59.059  1.00  0.00     0.191 HD
HETATM    9  N   UNL     1       7.494  32.105  59.219  1.00  0.00    -0.177 NA
HETATM   10  C   UNL     1       8.343  31.264  58.615  1.00  0.00     0.068 A 
HETATM   11  C   UNL     1       9.789  31.332  58.950  1.00  0.00     0.073 C 
ENDROOT
BRANCH   2  12
HETATM   12  S   UNL     1       4.285  28.231  55.733  1.00  0.00    -0.082 SA
BRANCH  12  13
HETATM   13  C   UNL     1       4.070  29.153  54.172  1.00  0.00     0.185 C 
BRANCH  13  14
HETATM   14  C   UNL     1       4.024  28.217  52.972  1.00  0.00     0.227 C 
HETATM   15  N   UNL     1       3.813  28.864  51.771  1.00  0.00    -0.360 N 
HETATM   16  H   UNL     1       3.922  29.871  51.735  1.00  0.00     0.162 HD
HETATM   17  O   UNL     1       4.171  27.001  53.069  1.00  0.00    -0.273 OA
BRANCH  15  18
HETATM   18  C   UNL     1       3.825  28.146  50.504  1.00  0.00     0.127 C 
BRANCH  18  19
HETATM   19  C   UNL     1       3.918  29.105  49.315  1.00  0.00     0.058 C 
BRANCH  19  20
HETATM   20  C   UNL     1       2.776  28.934  48.347  1.00  0.00    -0.057 A 
HETATM   21  C   UNL     1       2.532  29.899  47.358  1.00  0.00     0.009 A 
HETATM   22  C   UNL     1       1.469  29.744  46.465  1.00  0.00     0.025 A 
HETATM   23  C   UNL     1       0.649  28.618  46.558  1.00  0.00     0.074 A 
HETATM   24  C   UNL     1       0.870  27.656  47.546  1.00  0.00     0.025 A 
HETATM   25  C   UNL     1       1.934  27.815  48.435  1.00  0.00     0.009 A 
BRANCH  23  26
HETATM   26  S   UNL     1      -0.729  28.443  45.459  1.00  0.00     0.239 S 
HETATM   27  O   UNL     1      -1.917  28.178  46.235  1.00  0.00    -0.206 OA
HETATM   28  O   UNL     1      -0.670  29.486  44.462  1.00  0.00    -0.206 OA
BRANCH  26  29
HETATM   29  N   UNL     1      -0.362  27.014  44.662  1.00  0.00    -0.225 NA
HETATM   30  H   UNL     1      -0.862  26.236  45.095  1.00  0.00     0.136 HD
HETATM   31  H   UNL     1      -0.552  27.112  43.664  1.00  0.00     0.136 HD
ENDBRANCH  26  29
ENDBRANCH  23  26
ENDBRANCH  19  20
ENDBRANCH  18  19
ENDBRANCH  15  18
ENDBRANCH  13  14
ENDBRANCH  12  13
ENDBRANCH   2  12
BRANCH   1  32
HETATM   32  C   UNL     1       7.214  27.533  55.482  1.00  0.00     0.051 A 
HETATM   33  C   UNL     1       7.172  26.265  56.083  1.00  0.00    -0.013 A 
HETATM   34  C   UNL     1       6.884  26.065  57.544  1.00  0.00     0.052 C 
HETATM   35  C   UNL     1       7.452  25.168  55.250  1.00  0.00     0.042 A 
HETATM   36 CL   UNL     1       7.497  23.554  55.865  1.00  0.00    -0.084 Cl
HETATM   37  C   UNL     1       7.706  25.339  53.881  1.00  0.00     0.024 A 
HETATM   38  C   UNL     1       7.699  26.611  53.311  1.00  0.00     0.004 A 
HETATM   39  C   UNL     1       7.454  27.720  54.112  1.00  0.00     0.031 A 
ENDBRANCH   1  32
BRANCH   6  40
HETATM   40  N   UNL     1       9.342  28.931  56.648  1.00  0.00    -0.384 N 
HETATM   41  H   UNL     1      10.036  29.652  56.476  1.00  0.00     0.157 HD
HETATM   42  H   UNL     1       9.550  28.049  56.194  1.00  0.00     0.157 HD
ENDBRANCH   6  40
TORSDOF 10
ENDMDL
