MODEL 1
REMARK VINA RESULT:      -8.9      0.000      0.000
REMARK  5 active torsions:
REMARK  status: ('A' for Active; 'I' for Inactive)
REMARK    1  A    between atoms: C_6  and  N_7 
REMARK       I    between atoms: N_7  and  C_8 
REMARK    2  A    between atoms: C_8  and  C_9 
REMARK    3  A    between atoms: C_9  and  O_10 
REMARK    4  A    between atoms: O_10  and  C_11 
REMARK    5  A    between atoms: C_20  and  C_21 
ROOT
HETATM    1  C   UNL     1       9.184  22.190  54.086  1.00  0.00     0.073 C 
HETATM    2  C   UNL     1       8.447  22.897  55.162  1.00  0.00     0.065 A 
HETATM    3  N   UNL     1       8.577  22.501  56.435  1.00  0.00    -0.177 NA
HETATM    4  N   UNL     1       7.767  23.325  57.117  1.00  0.00    -0.262 N 
HETATM    5  H   UNL     1       7.726  23.227  58.128  1.00  0.00     0.191 HD
HETATM    6  C   UNL     1       7.114  24.240  56.334  1.00  0.00     0.137 A 
HETATM    7  C   UNL     1       7.547  23.992  55.046  1.00  0.00     0.046 A 
ENDROOT
BRANCH   6   8
HETATM    8  N   UNL     1       6.271  25.230  56.798  1.00  0.00    -0.309 N 
HETATM    9  C   UNL     1       6.572  26.539  57.072  1.00  0.00     0.247 C 
HETATM   10  O   UNL     1       5.652  27.345  57.229  1.00  0.00    -0.271 OA
HETATM   11  H   UNL     1       5.302  24.983  56.971  1.00  0.00     0.170 HD
BRANCH   9  12
HETATM   12  C   UNL     1       8.022  26.926  57.358  1.00  0.00     0.278 C 
BRANCH  12  13
HETATM   13  O   UNL     1       8.486  28.001  56.554  1.00  0.00    -0.342 OA
BRANCH  13  14
HETATM   14  C   UNL     1       9.002  29.069  57.243  1.00  0.00     0.072 A 
HETATM   15  C   UNL     1       8.273  29.455  58.370  1.00  0.00     0.082 A 
HETATM   16  C   UNL     1       8.708  30.530  59.143  1.00  0.00     0.157 A 
HETATM   17  F   UNL     1       8.007  30.882  60.229  1.00  0.00    -0.203 F 
HETATM   18  C   UNL     1       9.856  31.228  58.797  1.00  0.00     0.155 A 
HETATM   19  F   UNL     1      10.273  32.259  59.543  1.00  0.00    -0.203 F 
HETATM   20  C   UNL     1      10.584  30.864  57.671  1.00  0.00     0.048 A 
HETATM   21  C   UNL     1      10.157  29.785  56.891  1.00  0.00     0.040 A 
ENDBRANCH  13  14
ENDBRANCH  12  13
ENDBRANCH   9  12
ENDBRANCH   6   8
BRANCH   7  22
HETATM   22  C   UNL     1       6.980  24.614  53.866  1.00  0.00    -0.020 A 
HETATM   23  C   UNL     1       7.629  25.672  53.219  1.00  0.00     0.014 A 
HETATM   24  C   UNL     1       7.024  26.301  52.127  1.00  0.00     0.020 A 
HETATM   25  C   UNL     1       5.776  25.865  51.679  1.00  0.00     0.011 A 
HETATM   26 BR   UNL     1       4.947  26.730  50.217  1.00  0.00    -0.051 Br
HETATM   27  C   UNL     1       5.130  24.802  52.306  1.00  0.00     0.020 A 
HETATM   28  C   UNL     1       5.734  24.177  53.398  1.00  0.00     0.014 A 
ENDBRANCH   7  22
TORSDOF 5
ENDMDL
MODEL 2
REMARK VINA RESULT:      -8.7      4.079      6.500
REMARK  5 active torsions:
REMARK  status: ('A' for Active; 'I' for Inactive)
REMARK    1  A    between atoms: C_6  and  N_7 
REMARK       I    between atoms: N_7  and  C_8 
REMARK    2  A    between atoms: C_8  and  C_9 
REMARK    3  A    between atoms: C_9  and  O_10 
REMARK    4  A    between atoms: O_10  and  C_11 
REMARK    5  A    between atoms: C_20  and  C_21 
ROOT
HETATM    1  C   UNL     1       9.589  29.378  55.119  1.00  0.00     0.073 C 
HETATM    2  C   UNL     1       8.630  28.651  55.988  1.00  0.00     0.065 A 
HETATM    3  N   UNL     1       8.876  28.527  57.298  1.00  0.00    -0.177 NA
HETATM    4  N   UNL     1       7.842  27.806  57.758  1.00  0.00    -0.262 N 
HETATM    5  H   UNL     1       7.800  27.609  58.754  1.00  0.00     0.191 HD
HETATM    6  C   UNL     1       6.934  27.455  56.793  1.00  0.00     0.137 A 
HETATM    7  C   UNL     1       7.419  28.004  55.621  1.00  0.00     0.046 A 
ENDROOT
BRANCH   6   8
HETATM    8  N   UNL     1       5.760  26.764  57.015  1.00  0.00    -0.309 N 
HETATM    9  C   UNL     1       5.592  25.413  57.180  1.00  0.00     0.247 C 
HETATM   10  O   UNL     1       4.521  24.993  57.625  1.00  0.00    -0.271 OA
HETATM   11  H   UNL     1       4.899  27.297  57.062  1.00  0.00     0.170 HD
BRANCH   9  12
HETATM   12  C   UNL     1       6.654  24.458  56.640  1.00  0.00     0.278 C 
BRANCH  12  13
HETATM   13  O   UNL     1       6.575  24.263  55.236  1.00  0.00    -0.342 OA
BRANCH  13  14
HETATM   14  C   UNL     1       7.211  23.143  54.762  1.00  0.00     0.072 A 
HETATM   15  C   UNL     1       7.661  22.257  55.744  1.00  0.00     0.082 A 
HETATM   16  C   UNL     1       8.321  21.088  55.372  1.00  0.00     0.157 A 
HETATM   17  F   UNL     1       8.734  20.239  56.324  1.00  0.00    -0.203 F 
HETATM   18  C   UNL     1       8.546  20.799  54.034  1.00  0.00     0.155 A 
HETATM   19  F   UNL     1       9.179  19.673  53.680  1.00  0.00    -0.203 F 
HETATM   20  C   UNL     1       8.117  21.678  53.047  1.00  0.00     0.048 A 
HETATM   21  C   UNL     1       7.450  22.853  53.410  1.00  0.00     0.040 A 
ENDBRANCH  13  14
ENDBRANCH  12  13
ENDBRANCH   9  12
ENDBRANCH   6   8
BRANCH   7  22
HETATM   22  C   UNL     1       6.863  27.734  54.309  1.00  0.00    -0.020 A 
HETATM   23  C   UNL     1       5.745  28.430  53.837  1.00  0.00     0.014 A 
HETATM   24  C   UNL     1       5.187  28.099  52.598  1.00  0.00     0.020 A 
HETATM   25  C   UNL     1       5.754  27.078  51.832  1.00  0.00     0.011 A 
HETATM   26 BR   UNL     1       4.985  26.615  50.169  1.00  0.00    -0.051 Br
HETATM   27  C   UNL     1       6.877  26.392  52.287  1.00  0.00     0.020 A 
HETATM   28  C   UNL     1       7.432  26.722  53.525  1.00  0.00     0.014 A 
ENDBRANCH   7  22
TORSDOF 5
ENDMDL
MODEL 3
REMARK VINA RESULT:      -8.6      7.110     11.007
REMARK  5 active torsions:
REMARK  status: ('A' for Active; 'I' for Inactive)
REMARK    1  A    between atoms: C_6  and  N_7 
REMARK       I    between atoms: N_7  and  C_8 
REMARK    2  A    between atoms: C_8  and  C_9 
REMARK    3  A    between atoms: C_9  and  O_10 
REMARK    4  A    between atoms: O_10  and  C_11 
REMARK    5  A    between atoms: C_20  and  C_21 
ROOT
HETATM    1  C   UNL     1       2.875  34.877  62.570  1.00  0.00     0.073 C 
HETATM    2  C   UNL     1       3.726  33.696  62.284  1.00  0.00     0.065 A 
HETATM    3  N   UNL     1       3.485  32.944  61.203  1.00  0.00    -0.177 NA
HETATM    4  N   UNL     1       4.405  31.969  61.272  1.00  0.00    -0.262 N 
HETATM    5  H   UNL     1       4.433  31.282  60.524  1.00  0.00     0.191 HD
HETATM    6  C   UNL     1       5.233  32.059  62.361  1.00  0.00     0.137 A 
HETATM    7  C   UNL     1       4.818  33.189  63.040  1.00  0.00     0.046 A 
ENDROOT
BRANCH   6   8
HETATM    8  N   UNL     1       6.291  31.215  62.631  1.00  0.00    -0.309 N 
HETATM    9  C   UNL     1       7.590  31.324  62.207  1.00  0.00     0.247 C 
HETATM   10  O   UNL     1       8.457  30.633  62.748  1.00  0.00    -0.271 OA
HETATM   11  H   UNL     1       6.111  30.401  63.209  1.00  0.00     0.170 HD
BRANCH   9  12
HETATM   12  C   UNL     1       7.902  32.153  60.962  1.00  0.00     0.278 C 
BRANCH  12  13
HETATM   13  O   UNL     1       7.444  31.556  59.759  1.00  0.00    -0.342 OA
BRANCH  13  14
HETATM   14  C   UNL     1       8.423  31.020  58.959  1.00  0.00     0.072 A 
HETATM   15  C   UNL     1       8.138  29.754  58.441  1.00  0.00     0.082 A 
HETATM   16  C   UNL     1       9.064  29.118  57.617  1.00  0.00     0.157 A 
HETATM   17  F   UNL     1       8.772  27.911  57.115  1.00  0.00    -0.203 F 
HETATM   18  C   UNL     1      10.274  29.727  57.315  1.00  0.00     0.155 A 
HETATM   19  F   UNL     1      11.161  29.113  56.521  1.00  0.00    -0.203 F 
HETATM   20  C   UNL     1      10.576  30.978  57.834  1.00  0.00     0.048 A 
HETATM   21  C   UNL     1       9.652  31.627  58.659  1.00  0.00     0.040 A 
ENDBRANCH  13  14
ENDBRANCH  12  13
ENDBRANCH   9  12
ENDBRANCH   6   8
BRANCH   7  22
HETATM   22  C   UNL     1       5.305  33.571  64.351  1.00  0.00    -0.020 A 
HETATM   23  C   UNL     1       6.674  33.719  64.604  1.00  0.00     0.014 A 
HETATM   24  C   UNL     1       7.118  34.017  65.895  1.00  0.00     0.020 A 
HETATM   25  C   UNL     1       6.193  34.173  66.929  1.00  0.00     0.011 A 
HETATM   26 BR   UNL     1       6.795  34.552  68.680  1.00  0.00    -0.051 Br
HETATM   27  C   UNL     1       4.828  34.045  66.683  1.00  0.00     0.020 A 
HETATM   28  C   UNL     1       4.385  33.744  65.394  1.00  0.00     0.014 A 
ENDBRANCH   7  22
TORSDOF 5
ENDMDL
MODEL 4
REMARK VINA RESULT:      -8.6      2.584      3.732
REMARK  5 active torsions:
REMARK  status: ('A' for Active; 'I' for Inactive)
REMARK    1  A    between atoms: C_6  and  N_7 
REMARK       I    between atoms: N_7  and  C_8 
REMARK    2  A    between atoms: C_8  and  C_9 
REMARK    3  A    between atoms: C_9  and  O_10 
REMARK    4  A    between atoms: O_10  and  C_11 
REMARK    5  A    between atoms: C_20  and  C_21 
ROOT
HETATM    1  C   UNL     1       5.605  26.455  51.505  1.00  0.00     0.073 C 
HETATM    2  C   UNL     1       6.191  27.017  52.747  1.00  0.00     0.065 A 
HETATM    3  N   UNL     1       6.169  28.340  52.959  1.00  0.00    -0.177 NA
HETATM    4  N   UNL     1       6.796  28.492  54.136  1.00  0.00    -0.262 N 
HETATM    5  H   UNL     1       6.872  29.430  54.519  1.00  0.00     0.191 HD
HETATM    6  C   UNL     1       7.225  27.317  54.695  1.00  0.00     0.137 A 
HETATM    7  C   UNL     1       6.835  26.329  53.811  1.00  0.00     0.046 A 
ENDROOT
BRANCH   6   8
HETATM    8  N   UNL     1       7.845  27.198  55.923  1.00  0.00    -0.309 N 
HETATM    9  C   UNL     1       7.394  27.625  57.144  1.00  0.00     0.247 C 
HETATM   10  O   UNL     1       7.946  27.212  58.166  1.00  0.00    -0.271 OA
HETATM   11  H   UNL     1       8.753  26.745  55.952  1.00  0.00     0.170 HD
BRANCH   9  12
HETATM   12  C   UNL     1       6.347  28.737  57.205  1.00  0.00     0.278 C 
BRANCH  12  13
HETATM   13  O   UNL     1       6.867  30.017  56.876  1.00  0.00    -0.342 OA
BRANCH  13  14
HETATM   14  C   UNL     1       7.579  30.636  57.874  1.00  0.00     0.072 A 
HETATM   15  C   UNL     1       6.807  31.339  58.803  1.00  0.00     0.082 A 
HETATM   16  C   UNL     1       7.429  32.005  59.857  1.00  0.00     0.157 A 
HETATM   17  F   UNL     1       6.677  32.663  60.749  1.00  0.00    -0.203 F 
HETATM   18  C   UNL     1       8.810  31.985  59.987  1.00  0.00     0.155 A 
HETATM   19  F   UNL     1       9.405  32.625  61.002  1.00  0.00    -0.203 F 
HETATM   20  C   UNL     1       9.590  31.302  59.063  1.00  0.00     0.048 A 
HETATM   21  C   UNL     1       8.975  30.627  58.003  1.00  0.00     0.040 A 
ENDBRANCH  13  14
ENDBRANCH  12  13
ENDBRANCH   9  12
ENDBRANCH   6   8
BRANCH   7  22
HETATM   22  C   UNL     1       7.237  24.940  53.919  1.00  0.00    -0.020 A 
HETATM   23  C   UNL     1       7.909  24.296  52.874  1.00  0.00     0.014 A 
HETATM   24  C   UNL     1       8.220  22.937  52.977  1.00  0.00     0.020 A 
HETATM   25  C   UNL     1       7.867  22.228  54.126  1.00  0.00     0.011 A 
HETATM   26 BR   UNL     1       8.268  20.386  54.255  1.00  0.00    -0.051 Br
HETATM   27  C   UNL     1       7.214  22.866  55.178  1.00  0.00     0.020 A 
HETATM   28  C   UNL     1       6.900  24.222  55.074  1.00  0.00     0.014 A 
ENDBRANCH   7  22
TORSDOF 5
ENDMDL
MODEL 5
REMARK VINA RESULT:      -8.6      1.505      1.831
REMARK  5 active torsions:
REMARK  status: ('A' for Active; 'I' for Inactive)
REMARK    1  A    between atoms: C_6  and  N_7 
REMARK       I    between atoms: N_7  and  C_8 
REMARK    2  A    between atoms: C_8  and  C_9 
REMARK    3  A    between atoms: C_9  and  O_10 
REMARK    4  A    between atoms: O_10  and  C_11 
REMARK    5  A    between atoms: C_20  and  C_21 
ROOT
HETATM    1  C   UNL     1       8.441  23.703  55.069  1.00  0.00     0.073 C 
HETATM    2  C   UNL     1       7.395  24.465  55.797  1.00  0.00     0.065 A 
HETATM    3  N   UNL     1       7.290  24.352  57.128  1.00  0.00    -0.177 NA
HETATM    4  N   UNL     1       6.246  25.136  57.439  1.00  0.00    -0.262 N 
HETATM    5  H   UNL     1       5.994  25.231  58.419  1.00  0.00     0.191 HD
HETATM    6  C   UNL     1       5.669  25.752  56.359  1.00  0.00     0.137 A 
HETATM    7  C   UNL     1       6.408  25.339  55.267  1.00  0.00     0.046 A 
ENDROOT
BRANCH   6   8
HETATM    8  N   UNL     1       4.620  26.648  56.418  1.00  0.00    -0.309 N 
HETATM    9  C   UNL     1       4.678  28.017  56.455  1.00  0.00     0.247 C 
HETATM   10  O   UNL     1       3.650  28.666  56.245  1.00  0.00    -0.271 OA
HETATM   11  H   UNL     1       3.678  26.272  56.443  1.00  0.00     0.170 HD
BRANCH   9  12
HETATM   12  C   UNL     1       5.959  28.697  56.933  1.00  0.00     0.278 C 
BRANCH  12  13
HETATM   13  O   UNL     1       6.927  28.860  55.907  1.00  0.00    -0.342 OA
BRANCH  13  14
HETATM   14  C   UNL     1       8.158  29.300  56.325  1.00  0.00     0.072 A 
HETATM   15  C   UNL     1       8.201  29.780  57.637  1.00  0.00     0.082 A 
HETATM   16  C   UNL     1       9.401  30.253  58.162  1.00  0.00     0.157 A 
HETATM   17  F   UNL     1       9.433  30.696  59.426  1.00  0.00    -0.203 F 
HETATM   18  C   UNL     1      10.554  30.261  57.390  1.00  0.00     0.155 A 
HETATM   19  F   UNL     1      11.707  30.714  57.900  1.00  0.00    -0.203 F 
HETATM   20  C   UNL     1      10.523  29.801  56.081  1.00  0.00     0.048 A 
HETATM   21  C   UNL     1       9.323  29.321  55.545  1.00  0.00     0.040 A 
ENDBRANCH  13  14
ENDBRANCH  12  13
ENDBRANCH   9  12
ENDBRANCH   6   8
BRANCH   7  22
HETATM   22  C   UNL     1       6.041  25.610  53.891  1.00  0.00    -0.020 A 
HETATM   23  C   UNL     1       6.432  26.793  53.254  1.00  0.00     0.014 A 
HETATM   24  C   UNL     1       6.003  27.060  51.951  1.00  0.00     0.020 A 
HETATM   25  C   UNL     1       5.190  26.141  51.285  1.00  0.00     0.011 A 
HETATM   26 BR   UNL     1       4.591  26.514  49.532  1.00  0.00    -0.051 Br
HETATM   27  C   UNL     1       4.811  24.953  51.905  1.00  0.00     0.020 A 
HETATM   28  C   UNL     1       5.237  24.688  53.207  1.00  0.00     0.014 A 
ENDBRANCH   7  22
TORSDOF 5
ENDMDL
MODEL 6
REMARK VINA RESULT:      -8.4      4.873      7.354
REMARK  5 active torsions:
REMARK  status: ('A' for Active; 'I' for Inactive)
REMARK    1  A    between atoms: C_6  and  N_7 
REMARK       I    between atoms: N_7  and  C_8 
REMARK    2  A    between atoms: C_8  and  C_9 
REMARK    3  A    between atoms: C_9  and  O_10 
REMARK    4  A    between atoms: O_10  and  C_11 
REMARK    5  A    between atoms: C_20  and  C_21 
ROOT
HETATM    1  C   UNL     1       5.498  28.664  51.279  1.00  0.00     0.073 C 
HETATM    2  C   UNL     1       5.338  27.518  52.208  1.00  0.00     0.065 A 
HETATM    3  N   UNL     1       5.223  26.275  51.724  1.00  0.00    -0.177 NA
HETATM    4  N   UNL     1       5.067  25.512  52.818  1.00  0.00    -0.262 N 
HETATM    5  H   UNL     1       4.989  24.507  52.694  1.00  0.00     0.191 HD
HETATM    6  C   UNL     1       5.074  26.216  53.994  1.00  0.00     0.137 A 
HETATM    7  C   UNL     1       5.260  27.535  53.627  1.00  0.00     0.046 A 
ENDROOT
BRANCH   6   8
HETATM    8  N   UNL     1       4.987  25.662  55.256  1.00  0.00    -0.309 N 
HETATM    9  C   UNL     1       5.994  25.465  56.165  1.00  0.00     0.247 C 
HETATM   10  O   UNL     1       5.703  25.200  57.333  1.00  0.00    -0.271 OA
HETATM   11  H   UNL     1       4.076  25.349  55.573  1.00  0.00     0.170 HD
BRANCH   9  12
HETATM   12  C   UNL     1       7.439  25.396  55.674  1.00  0.00     0.278 C 
BRANCH  12  13
HETATM   13  O   UNL     1       8.105  24.200  56.051  1.00  0.00    -0.342 OA
BRANCH  13  14
HETATM   14  C   UNL     1       8.105  23.204  55.106  1.00  0.00     0.072 A 
HETATM   15  C   UNL     1       8.355  21.921  55.598  1.00  0.00     0.082 A 
HETATM   16  C   UNL     1       8.378  20.836  54.724  1.00  0.00     0.157 A 
HETATM   17  F   UNL     1       8.605  19.608  55.211  1.00  0.00    -0.203 F 
HETATM   18  C   UNL     1       8.165  21.020  53.366  1.00  0.00     0.155 A 
HETATM   19  F   UNL     1       8.185  19.975  52.528  1.00  0.00    -0.203 F 
HETATM   20  C   UNL     1       7.928  22.292  52.861  1.00  0.00     0.048 A 
HETATM   21  C   UNL     1       7.900  23.387  53.730  1.00  0.00     0.040 A 
ENDBRANCH  13  14
ENDBRANCH  12  13
ENDBRANCH   9  12
ENDBRANCH   6   8
BRANCH   7  22
HETATM   22  C   UNL     1       5.157  28.653  54.545  1.00  0.00    -0.020 A 
HETATM   23  C   UNL     1       4.006  29.448  54.596  1.00  0.00     0.014 A 
HETATM   24  C   UNL     1       3.964  30.563  55.439  1.00  0.00     0.020 A 
HETATM   25  C   UNL     1       5.068  30.875  56.233  1.00  0.00     0.011 A 
HETATM   26 BR   UNL     1       5.018  32.396  57.355  1.00  0.00    -0.051 Br
HETATM   27  C   UNL     1       6.211  30.080  56.202  1.00  0.00     0.020 A 
HETATM   28  C   UNL     1       6.254  28.969  55.358  1.00  0.00     0.014 A 
ENDBRANCH   7  22
TORSDOF 5
ENDMDL
MODEL 7
REMARK VINA RESULT:      -8.4      4.795      8.155
REMARK  5 active torsions:
REMARK  status: ('A' for Active; 'I' for Inactive)
REMARK    1  A    between atoms: C_6  and  N_7 
REMARK       I    between atoms: N_7  and  C_8 
REMARK    2  A    between atoms: C_8  and  C_9 
REMARK    3  A    between atoms: C_9  and  O_10 
REMARK    4  A    between atoms: O_10  and  C_11 
REMARK    5  A    between atoms: C_20  and  C_21 
ROOT
HETATM    1  C   UNL     1      11.208  30.409  57.400  1.00  0.00     0.073 C 
HETATM    2  C   UNL     1       9.920  29.965  56.811  1.00  0.00     0.065 A 
HETATM    3  N   UNL     1       9.884  29.492  55.559  1.00  0.00    -0.177 NA
HETATM    4  N   UNL     1       8.586  29.220  55.350  1.00  0.00    -0.262 N 
HETATM    5  H   UNL     1       8.319  28.814  54.458  1.00  0.00     0.191 HD
HETATM    6  C   UNL     1       7.778  29.502  56.421  1.00  0.00     0.137 A 
HETATM    7  C   UNL     1       8.626  29.984  57.400  1.00  0.00     0.046 A 
ENDROOT
BRANCH   6   8
HETATM    8  N   UNL     1       6.420  29.263  56.480  1.00  0.00    -0.309 N 
HETATM    9  C   UNL     1       5.732  28.171  56.019  1.00  0.00     0.247 C 
HETATM   10  O   UNL     1       4.565  28.000  56.382  1.00  0.00    -0.271 OA
HETATM   11  H   UNL     1       5.833  29.971  56.909  1.00  0.00     0.170 HD
BRANCH   9  12
HETATM   12  C   UNL     1       6.358  27.299  54.933  1.00  0.00     0.278 C 
BRANCH  12  13
HETATM   13  O   UNL     1       7.284  26.348  55.438  1.00  0.00    -0.342 OA
BRANCH  13  14
HETATM   14  C   UNL     1       7.443  25.219  54.673  1.00  0.00     0.072 A 
HETATM   15  C   UNL     1       7.336  24.012  55.370  1.00  0.00     0.082 A 
HETATM   16  C   UNL     1       7.482  22.805  54.690  1.00  0.00     0.157 A 
HETATM   17  F   UNL     1       7.364  21.654  55.367  1.00  0.00    -0.203 F 
HETATM   18  C   UNL     1       7.742  22.790  53.327  1.00  0.00     0.155 A 
HETATM   19  F   UNL     1       7.879  21.627  52.676  1.00  0.00    -0.203 F 
HETATM   20  C   UNL     1       7.863  23.982  52.625  1.00  0.00     0.048 A 
HETATM   21  C   UNL     1       7.716  25.199  53.298  1.00  0.00     0.040 A 
ENDBRANCH  13  14
ENDBRANCH  12  13
ENDBRANCH   9  12
ENDBRANCH   6   8
BRANCH   7  22
HETATM   22  C   UNL     1       8.174  30.571  58.646  1.00  0.00    -0.020 A 
HETATM   23  C   UNL     1       7.145  31.519  58.672  1.00  0.00     0.014 A 
HETATM   24  C   UNL     1       6.779  32.120  59.880  1.00  0.00     0.020 A 
HETATM   25  C   UNL     1       7.438  31.768  61.059  1.00  0.00     0.011 A 
HETATM   26 BR   UNL     1       6.959  32.599  62.687  1.00  0.00    -0.051 Br
HETATM   27  C   UNL     1       8.452  30.813  61.045  1.00  0.00     0.020 A 
HETATM   28  C   UNL     1       8.818  30.215  59.839  1.00  0.00     0.014 A 
ENDBRANCH   7  22
TORSDOF 5
ENDMDL
MODEL 8
REMARK VINA RESULT:      -8.3      5.499      8.127
REMARK  5 active torsions:
REMARK  status: ('A' for Active; 'I' for Inactive)
REMARK    1  A    between atoms: C_6  and  N_7 
REMARK       I    between atoms: N_7  and  C_8 
REMARK    2  A    between atoms: C_8  and  C_9 
REMARK    3  A    between atoms: C_9  and  O_10 
REMARK    4  A    between atoms: O_10  and  C_11 
REMARK    5  A    between atoms: C_20  and  C_21 
ROOT
HETATM    1  C   UNL     1       8.091  23.935  54.554  1.00  0.00     0.073 C 
HETATM    2  C   UNL     1       6.878  24.640  54.071  1.00  0.00     0.065 A 
HETATM    3  N   UNL     1       6.110  24.081  53.127  1.00  0.00    -0.177 NA
HETATM    4  N   UNL     1       5.142  24.986  52.916  1.00  0.00    -0.262 N 
HETATM    5  H   UNL     1       4.412  24.759  52.247  1.00  0.00     0.191 HD
HETATM    6  C   UNL     1       5.254  26.113  53.688  1.00  0.00     0.137 A 
HETATM    7  C   UNL     1       6.379  25.912  54.464  1.00  0.00     0.046 A 
ENDROOT
BRANCH   6   8
HETATM    8  N   UNL     1       4.359  27.164  53.700  1.00  0.00    -0.309 N 
HETATM    9  C   UNL     1       4.193  28.146  52.758  1.00  0.00     0.247 C 
HETATM   10  O   UNL     1       3.182  28.851  52.799  1.00  0.00    -0.271 OA
HETATM   11  H   UNL     1       3.737  27.246  54.497  1.00  0.00     0.170 HD
BRANCH   9  12
HETATM   12  C   UNL     1       5.341  28.463  51.802  1.00  0.00     0.278 C 
BRANCH  12  13
HETATM   13  O   UNL     1       5.624  27.409  50.893  1.00  0.00    -0.342 OA
BRANCH  13  14
HETATM   14  C   UNL     1       4.782  27.325  49.811  1.00  0.00     0.072 A 
HETATM   15  C   UNL     1       4.350  26.034  49.496  1.00  0.00     0.082 A 
HETATM   16  C   UNL     1       3.494  25.835  48.416  1.00  0.00     0.157 A 
HETATM   17  F   UNL     1       3.076  24.593  48.133  1.00  0.00    -0.203 F 
HETATM   18  C   UNL     1       3.073  26.907  47.642  1.00  0.00     0.155 A 
HETATM   19  F   UNL     1       2.248  26.711  46.605  1.00  0.00    -0.203 F 
HETATM   20  C   UNL     1       3.505  28.193  47.935  1.00  0.00     0.048 A 
HETATM   21  C   UNL     1       4.363  28.405  49.020  1.00  0.00     0.040 A 
ENDBRANCH  13  14
ENDBRANCH  12  13
ENDBRANCH   9  12
ENDBRANCH   6   8
BRANCH   7  22
HETATM   22  C   UNL     1       6.975  26.930  55.307  1.00  0.00    -0.020 A 
HETATM   23  C   UNL     1       7.677  28.009  54.757  1.00  0.00     0.014 A 
HETATM   24  C   UNL     1       8.302  28.936  55.596  1.00  0.00     0.020 A 
HETATM   25  C   UNL     1       8.218  28.787  56.981  1.00  0.00     0.011 A 
HETATM   26 BR   UNL     1       9.083  30.028  58.114  1.00  0.00    -0.051 Br
HETATM   27  C   UNL     1       7.506  27.726  57.537  1.00  0.00     0.020 A 
HETATM   28  C   UNL     1       6.885  26.799  56.699  1.00  0.00     0.014 A 
ENDBRANCH   7  22
TORSDOF 5
ENDMDL
MODEL 9
REMARK VINA RESULT:      -8.3      3.094      4.358
REMARK  5 active torsions:
REMARK  status: ('A' for Active; 'I' for Inactive)
REMARK    1  A    between atoms: C_6  and  N_7 
REMARK       I    between atoms: N_7  and  C_8 
REMARK    2  A    between atoms: C_8  and  C_9 
REMARK    3  A    between atoms: C_9  and  O_10 
REMARK    4  A    between atoms: O_10  and  C_11 
REMARK    5  A    between atoms: C_20  and  C_21 
ROOT
HETATM    1  C   UNL     1       5.350  26.271  51.459  1.00  0.00     0.073 C 
HETATM    2  C   UNL     1       6.052  26.944  52.580  1.00  0.00     0.065 A 
HETATM    3  N   UNL     1       6.102  28.281  52.632  1.00  0.00    -0.177 NA
HETATM    4  N   UNL     1       6.822  28.538  53.736  1.00  0.00    -0.262 N 
HETATM    5  H   UNL     1       6.968  29.509  53.997  1.00  0.00     0.191 HD
HETATM    6  C   UNL     1       7.243  27.416  54.401  1.00  0.00     0.137 A 
HETATM    7  C   UNL     1       6.744  26.353  53.672  1.00  0.00     0.046 A 
ENDROOT
BRANCH   6   8
HETATM    8  N   UNL     1       7.948  27.410  55.587  1.00  0.00    -0.309 N 
HETATM    9  C   UNL     1       7.467  27.584  56.859  1.00  0.00     0.247 C 
HETATM   10  O   UNL     1       8.187  27.292  57.817  1.00  0.00    -0.271 OA
HETATM   11  H   UNL     1       8.951  27.264  55.540  1.00  0.00     0.170 HD
BRANCH   9  12
HETATM   12  C   UNL     1       6.134  28.302  57.060  1.00  0.00     0.278 C 
BRANCH  12  13
HETATM   13  O   UNL     1       6.169  29.671  56.682  1.00  0.00    -0.342 OA
BRANCH  13  14
HETATM   14  C   UNL     1       6.134  30.568  57.720  1.00  0.00     0.072 A 
HETATM   15  C   UNL     1       4.873  31.100  58.000  1.00  0.00     0.082 A 
HETATM   16  C   UNL     1       4.724  32.022  59.034  1.00  0.00     0.157 A 
HETATM   17  F   UNL     1       3.507  32.514  59.301  1.00  0.00    -0.203 F 
HETATM   18  C   UNL     1       5.820  32.424  59.784  1.00  0.00     0.155 A 
HETATM   19  F   UNL     1       5.673  33.308  60.779  1.00  0.00    -0.203 F 
HETATM   20  C   UNL     1       7.082  31.913  59.508  1.00  0.00     0.048 A 
HETATM   21  C   UNL     1       7.241  30.985  58.473  1.00  0.00     0.040 A 
ENDBRANCH  13  14
ENDBRANCH  12  13
ENDBRANCH   9  12
ENDBRANCH   6   8
BRANCH   7  22
HETATM   22  C   UNL     1       7.094  24.968  53.917  1.00  0.00    -0.020 A 
HETATM   23  C   UNL     1       6.752  24.333  55.116  1.00  0.00     0.014 A 
HETATM   24  C   UNL     1       7.166  23.019  55.355  1.00  0.00     0.020 A 
HETATM   25  C   UNL     1       7.913  22.341  54.391  1.00  0.00     0.011 A 
HETATM   26 BR   UNL     1       8.492  20.573  54.723  1.00  0.00    -0.051 Br
HETATM   27  C   UNL     1       8.243  22.958  53.187  1.00  0.00     0.020 A 
HETATM   28  C   UNL     1       7.833  24.271  52.951  1.00  0.00     0.014 A 
ENDBRANCH   7  22
TORSDOF 5
ENDMDL
MODEL 10
REMARK VINA RESULT:      -8.2      4.491      7.104
REMARK  5 active torsions:
REMARK  status: ('A' for Active; 'I' for Inactive)
REMARK    1  A    between atoms: C_6  and  N_7 
REMARK       I    between atoms: N_7  and  C_8 
REMARK    2  A    between atoms: C_8  and  C_9 
REMARK    3  A    between atoms: C_9  and  O_10 
REMARK    4  A    between atoms: O_10  and  C_11 
REMARK    5  A    between atoms: C_20  and  C_21 
ROOT
HETATM    1  C   UNL     1       7.683  29.453  58.389  1.00  0.00     0.073 C 
HETATM    2  C   UNL     1       7.227  28.275  57.610  1.00  0.00     0.065 A 
HETATM    3  N   UNL     1       7.942  27.143  57.628  1.00  0.00    -0.177 NA
HETATM    4  N   UNL     1       7.269  26.320  56.809  1.00  0.00    -0.262 N 
HETATM    5  H   UNL     1       7.618  25.373  56.690  1.00  0.00     0.191 HD
HETATM    6  C   UNL     1       6.145  26.877  56.259  1.00  0.00     0.137 A 
HETATM    7  C   UNL     1       6.084  28.158  56.773  1.00  0.00     0.046 A 
ENDROOT
BRANCH   6   8
HETATM    8  N   UNL     1       5.254  26.223  55.432  1.00  0.00    -0.309 N 
HETATM    9  C   UNL     1       5.521  25.530  54.280  1.00  0.00     0.247 C 
HETATM   10  O   UNL     1       4.651  24.794  53.808  1.00  0.00    -0.271 OA
HETATM   11  H   UNL     1       4.271  26.247  55.681  1.00  0.00     0.170 HD
BRANCH   9  12
HETATM   12  C   UNL     1       6.810  25.824  53.514  1.00  0.00     0.278 C 
BRANCH  12  13
HETATM   13  O   UNL     1       7.965  25.261  54.118  1.00  0.00    -0.342 OA
BRANCH  13  14
HETATM   14  C   UNL     1       8.027  23.890  54.101  1.00  0.00     0.072 A 
HETATM   15  C   UNL     1       8.237  23.292  55.346  1.00  0.00     0.082 A 
HETATM   16  C   UNL     1       8.318  21.904  55.443  1.00  0.00     0.157 A 
HETATM   17  F   UNL     1       8.505  21.342  56.646  1.00  0.00    -0.203 F 
HETATM   18  C   UNL     1       8.201  21.110  54.312  1.00  0.00     0.155 A 
HETATM   19  F   UNL     1       8.277  19.776  54.409  1.00  0.00    -0.203 F 
HETATM   20  C   UNL     1       8.006  21.692  53.066  1.00  0.00     0.048 A 
HETATM   21  C   UNL     1       7.921  23.084  52.958  1.00  0.00     0.040 A 
ENDBRANCH  13  14
ENDBRANCH  12  13
ENDBRANCH   9  12
ENDBRANCH   6   8
BRANCH   7  22
HETATM   22  C   UNL     1       5.147  29.168  56.324  1.00  0.00    -0.020 A 
HETATM   23  C   UNL     1       5.124  29.597  54.992  1.00  0.00     0.014 A 
HETATM   24  C   UNL     1       4.258  30.623  54.603  1.00  0.00     0.020 A 
HETATM   25  C   UNL     1       3.413  31.213  55.544  1.00  0.00     0.011 A 
HETATM   26 BR   UNL     1       2.260  32.617  55.022  1.00  0.00    -0.051 Br
HETATM   27  C   UNL     1       3.417  30.781  56.868  1.00  0.00     0.020 A 
HETATM   28  C   UNL     1       4.283  29.758  57.256  1.00  0.00     0.014 A 
ENDBRANCH   7  22
TORSDOF 5
ENDMDL
