MODEL 1
REMARK VINA RESULT:     -10.2      0.000      0.000
REMARK  7 active torsions:
REMARK  status: ('A' for Active; 'I' for Inactive)
REMARK    1  A    between atoms: N_3  and  C_4 
REMARK    2  A    between atoms: C_12  and  C_13 
REMARK       I    between atoms: C_13  and  N_14 
REMARK    3  A    between atoms: N_14  and  C_15 
REMARK    4  A    between atoms: C_15  and  C_16 
REMARK    5  A    between atoms: C_17  and  C_18 
REMARK    6  A    between atoms: C_18  and  O_19 
REMARK    7  A    between atoms: O_19  and  C_20 
ROOT
HETATM    1  C   UNL     1       9.675  31.299  59.078  1.00  0.00     0.255 C 
HETATM    2  N   UNL     1       9.832  30.104  58.419  1.00  0.00    -0.346 N 
HETATM    3  O   UNL     1      10.090  32.364  58.635  1.00  0.00    -0.268 OA
HETATM    4  H   UNL     1       9.753  29.251  58.946  1.00  0.00     0.163 HD
ENDROOT
BRANCH   2   5
HETATM    5  C   UNL     1      10.462  30.037  57.126  1.00  0.00     0.217 C 
BRANCH   5   6
HETATM    6  C   UNL     1       9.557  29.470  56.125  1.00  0.00    -0.085 C 
HETATM    7  C   UNL     1       8.780  28.961  55.362  1.00  0.00    -0.078 C 
BRANCH   7   8
HETATM    8  C   UNL     1       7.790  28.297  54.500  1.00  0.00     0.269 C 
BRANCH   8   9
HETATM    9  O   UNL     1       7.391  27.079  55.132  1.00  0.00    -0.337 OA
BRANCH   9  10
HETATM   10  C   UNL     1       6.792  26.221  54.257  1.00  0.00     0.103 A 
HETATM   11  C   UNL     1       7.200  24.901  54.187  1.00  0.00     0.109 A 
HETATM   12  C   UNL     1       6.690  24.040  53.230  1.00  0.00    -0.019 A 
HETATM   13  O   UNL     1       8.130  24.322  55.011  1.00  0.00    -0.337 OA
HETATM   14  C   UNL     1       7.359  22.723  53.330  1.00  0.00     0.079 C 
HETATM   15  C   UNL     1       5.746  24.470  52.312  1.00  0.00     0.010 A 
HETATM   16  C   UNL     1       8.155  22.915  54.641  1.00  0.00     0.065 C 
HETATM   17  C   UNL     1       9.622  22.515  54.461  1.00  0.00     0.046 C 
HETATM   18  C   UNL     1       7.534  22.117  55.793  1.00  0.00     0.046 C 
HETATM   19  C   UNL     1       5.323  25.801  52.369  1.00  0.00     0.003 A 
HETATM   20  C   UNL     1       5.853  26.678  53.329  1.00  0.00     0.040 A 
ENDBRANCH   9  10
ENDBRANCH   8   9
ENDBRANCH   7   8
ENDBRANCH   5   6
ENDBRANCH   2   5
BRANCH   1  21
HETATM   21  C   UNL     1       8.964  31.242  60.346  1.00  0.00     0.075 C 
HETATM   22  C   UNL     1       7.788  31.862  60.772  1.00  0.00     0.050 C 
HETATM   23  C   UNL     1       6.760  32.625  60.016  1.00  0.00     0.071 C 
HETATM   24  N   UNL     1       7.755  31.675  62.158  1.00  0.00    -0.238 N 
HETATM   25  N   UNL     1       8.594  30.673  62.525  1.00  0.00    -0.179 NA
HETATM   26  C   UNL     1       9.400  30.524  61.477  1.00  0.00     0.158 C 
BRANCH  24  27
HETATM   27  C   UNL     1       7.057  32.398  63.174  1.00  0.00     0.058 A 
HETATM   28  C   UNL     1       5.654  32.345  63.209  1.00  0.00     0.031 A 
HETATM   29  C   UNL     1       4.945  33.003  64.216  1.00  0.00     0.002 A 
HETATM   30  C   UNL     1       5.627  33.706  65.206  1.00  0.00     0.000 A 
HETATM   31  C   UNL     1       7.020  33.744  65.195  1.00  0.00     0.002 A 
HETATM   32  C   UNL     1       7.735  33.087  64.189  1.00  0.00     0.031 A 
ENDBRANCH  24  27
ENDBRANCH   1  21
TORSDOF 7
ENDMDL
MODEL 2
REMARK VINA RESULT:     -10.0      1.788      2.232
REMARK  7 active torsions:
REMARK  status: ('A' for Active; 'I' for Inactive)
REMARK    1  A    between atoms: N_3  and  C_4 
REMARK    2  A    between atoms: C_12  and  C_13 
REMARK       I    between atoms: C_13  and  N_14 
REMARK    3  A    between atoms: N_14  and  C_15 
REMARK    4  A    between atoms: C_15  and  C_16 
REMARK    5  A    between atoms: C_17  and  C_18 
REMARK    6  A    between atoms: C_18  and  O_19 
REMARK    7  A    between atoms: O_19  and  C_20 
ROOT
HETATM    1  C   UNL     1       8.285  31.539  59.880  1.00  0.00     0.255 C 
HETATM    2  N   UNL     1       7.997  30.268  59.447  1.00  0.00    -0.346 N 
HETATM    3  O   UNL     1       8.925  32.342  59.211  1.00  0.00    -0.268 OA
HETATM    4  H   UNL     1       7.748  29.572  60.130  1.00  0.00     0.163 HD
ENDROOT
BRANCH   2   5
HETATM    5  C   UNL     1       8.397  29.811  58.140  1.00  0.00     0.217 C 
BRANCH   5   6
HETATM    6  C   UNL     1       7.858  28.479  57.858  1.00  0.00    -0.085 C 
HETATM    7  C   UNL     1       7.417  27.404  57.549  1.00  0.00    -0.078 C 
BRANCH   7   8
HETATM    8  C   UNL     1       6.889  26.113  57.083  1.00  0.00     0.269 C 
BRANCH   8   9
HETATM    9  O   UNL     1       7.990  25.298  56.675  1.00  0.00    -0.337 OA
BRANCH   9  10
HETATM   10  C   UNL     1       7.809  24.781  55.426  1.00  0.00     0.103 A 
HETATM   11  C   UNL     1       8.045  23.440  55.188  1.00  0.00     0.109 A 
HETATM   12  C   UNL     1       7.981  22.914  53.908  1.00  0.00    -0.019 A 
HETATM   13  O   UNL     1       8.373  22.518  56.147  1.00  0.00    -0.337 OA
HETATM   14  C   UNL     1       8.358  21.483  53.932  1.00  0.00     0.079 C 
HETATM   15  C   UNL     1       7.671  23.715  52.821  1.00  0.00     0.010 A 
HETATM   16  C   UNL     1       8.418  21.237  55.457  1.00  0.00     0.065 C 
HETATM   17  C   UNL     1       9.725  20.548  55.856  1.00  0.00     0.046 C 
HETATM   18  C   UNL     1       7.222  20.405  55.935  1.00  0.00     0.046 C 
HETATM   19  C   UNL     1       7.430  25.073  53.045  1.00  0.00     0.003 A 
HETATM   20  C   UNL     1       7.511  25.609  54.340  1.00  0.00     0.040 A 
ENDBRANCH   9  10
ENDBRANCH   8   9
ENDBRANCH   7   8
ENDBRANCH   5   6
ENDBRANCH   2   5
BRANCH   1  21
HETATM   21  C   UNL     1       7.769  31.900  61.191  1.00  0.00     0.075 C 
HETATM   22  C   UNL     1       6.507  32.339  61.596  1.00  0.00     0.050 C 
HETATM   23  C   UNL     1       5.213  32.391  60.866  1.00  0.00     0.071 C 
HETATM   24  N   UNL     1       6.683  32.809  62.902  1.00  0.00    -0.238 N 
HETATM   25  N   UNL     1       7.836  32.327  63.432  1.00  0.00    -0.179 NA
HETATM   26  C   UNL     1       8.532  31.913  62.376  1.00  0.00     0.158 C 
BRANCH  24  27
HETATM   27  C   UNL     1       5.899  33.723  63.671  1.00  0.00     0.058 A 
HETATM   28  C   UNL     1       5.928  35.089  63.346  1.00  0.00     0.031 A 
HETATM   29  C   UNL     1       5.138  36.002  64.049  1.00  0.00     0.002 A 
HETATM   30  C   UNL     1       4.301  35.560  65.071  1.00  0.00     0.000 A 
HETATM   31  C   UNL     1       4.246  34.204  65.385  1.00  0.00     0.002 A 
HETATM   32  C   UNL     1       5.036  33.285  64.684  1.00  0.00     0.031 A 
ENDBRANCH  24  27
ENDBRANCH   1  21
TORSDOF 7
ENDMDL
MODEL 3
REMARK VINA RESULT:     -10.0      2.800     10.746
REMARK  7 active torsions:
REMARK  status: ('A' for Active; 'I' for Inactive)
REMARK    1  A    between atoms: N_3  and  C_4 
REMARK    2  A    between atoms: C_12  and  C_13 
REMARK       I    between atoms: C_13  and  N_14 
REMARK    3  A    between atoms: N_14  and  C_15 
REMARK    4  A    between atoms: C_15  and  C_16 
REMARK    5  A    between atoms: C_17  and  C_18 
REMARK    6  A    between atoms: C_18  and  O_19 
REMARK    7  A    between atoms: O_19  and  C_20 
ROOT
HETATM    1  C   UNL     1       7.079  27.530  54.653  1.00  0.00     0.255 C 
HETATM    2  N   UNL     1       6.395  28.168  55.658  1.00  0.00    -0.346 N 
HETATM    3  O   UNL     1       7.835  28.114  53.886  1.00  0.00    -0.268 OA
HETATM    4  H   UNL     1       5.583  27.720  56.047  1.00  0.00     0.163 HD
ENDROOT
BRANCH   2   5
HETATM    5  C   UNL     1       6.565  29.577  55.905  1.00  0.00     0.217 C 
BRANCH   5   6
HETATM    6  C   UNL     1       7.681  29.823  56.821  1.00  0.00    -0.085 C 
HETATM    7  C   UNL     1       8.580  30.102  57.568  1.00  0.00    -0.078 C 
BRANCH   7   8
HETATM    8  C   UNL     1       9.653  30.532  58.478  1.00  0.00     0.269 C 
BRANCH   8   9
HETATM    9  O   UNL     1       9.420  31.897  58.832  1.00  0.00    -0.337 OA
BRANCH   9  10
HETATM   10  C   UNL     1       8.689  32.011  59.978  1.00  0.00     0.103 A 
HETATM   11  C   UNL     1       7.353  32.363  59.919  1.00  0.00     0.109 A 
HETATM   12  C   UNL     1       6.620  32.598  61.070  1.00  0.00    -0.019 A 
HETATM   13  O   UNL     1       6.636  32.530  58.765  1.00  0.00    -0.337 OA
HETATM   14  C   UNL     1       5.252  33.037  60.715  1.00  0.00     0.079 C 
HETATM   15  C   UNL     1       7.199  32.481  62.324  1.00  0.00     0.010 A 
HETATM   16  C   UNL     1       5.268  32.788  59.189  1.00  0.00     0.065 C 
HETATM   17  C   UNL     1       4.773  34.016  58.422  1.00  0.00     0.046 C 
HETATM   18  C   UNL     1       4.423  31.564  58.816  1.00  0.00     0.046 C 
HETATM   19  C   UNL     1       8.548  32.127  62.400  1.00  0.00     0.003 A 
HETATM   20  C   UNL     1       9.296  31.905  61.233  1.00  0.00     0.040 A 
ENDBRANCH   9  10
ENDBRANCH   8   9
ENDBRANCH   7   8
ENDBRANCH   5   6
ENDBRANCH   2   5
BRANCH   1  21
HETATM   21  C   UNL     1       6.870  26.094  54.549  1.00  0.00     0.075 C 
HETATM   22  C   UNL     1       7.436  25.028  55.250  1.00  0.00     0.050 C 
HETATM   23  C   UNL     1       8.285  25.005  56.471  1.00  0.00     0.071 C 
HETATM   24  N   UNL     1       7.084  23.883  54.526  1.00  0.00    -0.238 N 
HETATM   25  N   UNL     1       6.044  24.146  53.694  1.00  0.00    -0.179 NA
HETATM   26  C   UNL     1       6.021  25.473  53.612  1.00  0.00     0.158 C 
BRANCH  24  27
HETATM   27  C   UNL     1       7.680  22.585  54.498  1.00  0.00     0.058 A 
HETATM   28  C   UNL     1       7.637  21.788  55.654  1.00  0.00     0.031 A 
HETATM   29  C   UNL     1       8.170  20.497  55.644  1.00  0.00     0.002 A 
HETATM   30  C   UNL     1       8.736  19.983  54.480  1.00  0.00     0.000 A 
HETATM   31  C   UNL     1       8.761  20.756  53.321  1.00  0.00     0.002 A 
HETATM   32  C   UNL     1       8.229  22.049  53.325  1.00  0.00     0.031 A 
ENDBRANCH  24  27
ENDBRANCH   1  21
TORSDOF 7
ENDMDL
MODEL 4
REMARK VINA RESULT:     -10.0      1.820      3.231
REMARK  7 active torsions:
REMARK  status: ('A' for Active; 'I' for Inactive)
REMARK    1  A    between atoms: N_3  and  C_4 
REMARK    2  A    between atoms: C_12  and  C_13 
REMARK       I    between atoms: C_13  and  N_14 
REMARK    3  A    between atoms: N_14  and  C_15 
REMARK    4  A    between atoms: C_15  and  C_16 
REMARK    5  A    between atoms: C_17  and  C_18 
REMARK    6  A    between atoms: C_18  and  O_19 
REMARK    7  A    between atoms: O_19  and  C_20 
ROOT
HETATM    1  C   UNL     1       8.047  30.323  58.088  1.00  0.00     0.255 C 
HETATM    2  N   UNL     1       7.166  29.837  57.152  1.00  0.00    -0.346 N 
HETATM    3  O   UNL     1       9.212  29.952  58.163  1.00  0.00    -0.268 OA
HETATM    4  H   UNL     1       6.180  29.938  57.322  1.00  0.00     0.163 HD
ENDROOT
BRANCH   2   5
HETATM    5  C   UNL     1       7.580  28.880  56.158  1.00  0.00     0.217 C 
BRANCH   5   6
HETATM    6  C   UNL     1       7.835  27.569  56.760  1.00  0.00    -0.085 C 
HETATM    7  C   UNL     1       8.083  26.473  57.187  1.00  0.00    -0.078 C 
BRANCH   7   8
HETATM    8  C   UNL     1       8.436  25.118  57.634  1.00  0.00     0.269 C 
BRANCH   8   9
HETATM    9  O   UNL     1       7.485  24.203  57.084  1.00  0.00    -0.337 OA
BRANCH   9  10
HETATM   10  C   UNL     1       7.946  23.609  55.945  1.00  0.00     0.103 A 
HETATM   11  C   UNL     1       7.389  23.930  54.721  1.00  0.00     0.109 A 
HETATM   12  C   UNL     1       7.757  23.260  53.566  1.00  0.00    -0.019 A 
HETATM   13  O   UNL     1       6.438  24.895  54.519  1.00  0.00    -0.337 OA
HETATM   14  C   UNL     1       6.950  23.745  52.424  1.00  0.00     0.079 C 
HETATM   15  C   UNL     1       8.702  22.247  53.597  1.00  0.00     0.010 A 
HETATM   16  C   UNL     1       6.239  24.951  53.079  1.00  0.00     0.065 C 
HETATM   17  C   UNL     1       4.730  24.909  52.823  1.00  0.00     0.046 C 
HETATM   18  C   UNL     1       6.817  26.279  52.576  1.00  0.00     0.046 C 
HETATM   19  C   UNL     1       9.273  21.911  54.827  1.00  0.00     0.003 A 
HETATM   20  C   UNL     1       8.888  22.579  56.001  1.00  0.00     0.040 A 
ENDBRANCH   9  10
ENDBRANCH   8   9
ENDBRANCH   7   8
ENDBRANCH   5   6
ENDBRANCH   2   5
BRANCH   1  21
HETATM   21  C   UNL     1       7.523  31.333  58.994  1.00  0.00     0.075 C 
HETATM   22  C   UNL     1       8.130  32.051  60.026  1.00  0.00     0.050 C 
HETATM   23  C   UNL     1       9.560  32.176  60.414  1.00  0.00     0.071 C 
HETATM   24  N   UNL     1       7.078  32.648  60.729  1.00  0.00    -0.238 N 
HETATM   25  N   UNL     1       5.949  32.665  59.975  1.00  0.00    -0.179 NA
HETATM   26  C   UNL     1       6.182  31.768  59.020  1.00  0.00     0.158 C 
BRANCH  24  27
HETATM   27  C   UNL     1       7.022  33.142  62.068  1.00  0.00     0.058 A 
HETATM   28  C   UNL     1       6.244  34.278  62.345  1.00  0.00     0.031 A 
HETATM   29  C   UNL     1       6.132  34.759  63.651  1.00  0.00     0.002 A 
HETATM   30  C   UNL     1       6.780  34.103  64.696  1.00  0.00     0.000 A 
HETATM   31  C   UNL     1       7.532  32.961  64.435  1.00  0.00     0.002 A 
HETATM   32  C   UNL     1       7.649  32.475  63.129  1.00  0.00     0.031 A 
ENDBRANCH  24  27
ENDBRANCH   1  21
TORSDOF 7
ENDMDL
MODEL 5
REMARK VINA RESULT:      -9.9      2.934     10.191
REMARK  7 active torsions:
REMARK  status: ('A' for Active; 'I' for Inactive)
REMARK    1  A    between atoms: N_3  and  C_4 
REMARK    2  A    between atoms: C_12  and  C_13 
REMARK       I    between atoms: C_13  and  N_14 
REMARK    3  A    between atoms: N_14  and  C_15 
REMARK    4  A    between atoms: C_15  and  C_16 
REMARK    5  A    between atoms: C_17  and  C_18 
REMARK    6  A    between atoms: C_18  and  O_19 
REMARK    7  A    between atoms: O_19  and  C_20 
ROOT
HETATM    1  C   UNL     1       4.585  28.596  56.010  1.00  0.00     0.255 C 
HETATM    2  N   UNL     1       4.228  29.201  57.190  1.00  0.00    -0.346 N 
HETATM    3  O   UNL     1       4.312  29.064  54.911  1.00  0.00    -0.268 OA
HETATM    4  H   UNL     1       4.203  28.644  58.027  1.00  0.00     0.163 HD
ENDROOT
BRANCH   2   5
HETATM    5  C   UNL     1       3.540  30.466  57.207  1.00  0.00     0.217 C 
BRANCH   5   6
HETATM    6  C   UNL     1       3.779  31.181  58.462  1.00  0.00    -0.085 C 
HETATM    7  C   UNL     1       3.960  31.836  59.454  1.00  0.00    -0.078 C 
BRANCH   7   8
HETATM    8  C   UNL     1       4.156  32.712  60.619  1.00  0.00     0.269 C 
BRANCH   8   9
HETATM    9  O   UNL     1       5.370  33.443  60.431  1.00  0.00    -0.337 OA
BRANCH   9  10
HETATM   10  C   UNL     1       6.358  33.020  61.272  1.00  0.00     0.103 A 
HETATM   11  C   UNL     1       7.327  32.143  60.821  1.00  0.00     0.109 A 
HETATM   12  C   UNL     1       8.271  31.609  61.681  1.00  0.00    -0.019 A 
HETATM   13  O   UNL     1       7.450  31.706  59.528  1.00  0.00    -0.337 OA
HETATM   14  C   UNL     1       9.126  30.643  60.955  1.00  0.00     0.079 C 
HETATM   15  C   UNL     1       8.280  31.941  63.027  1.00  0.00     0.010 A 
HETATM   16  C   UNL     1       8.659  30.896  59.504  1.00  0.00     0.065 C 
HETATM   17  C   UNL     1       8.316  29.583  58.795  1.00  0.00     0.046 C 
HETATM   18  C   UNL     1       9.719  31.660  58.702  1.00  0.00     0.046 C 
HETATM   19  C   UNL     1       7.307  32.825  63.499  1.00  0.00     0.003 A 
HETATM   20  C   UNL     1       6.340  33.354  62.628  1.00  0.00     0.040 A 
ENDBRANCH   9  10
ENDBRANCH   8   9
ENDBRANCH   7   8
ENDBRANCH   5   6
ENDBRANCH   2   5
BRANCH   1  21
HETATM   21  C   UNL     1       5.334  27.354  56.129  1.00  0.00     0.075 C 
HETATM   22  C   UNL     1       6.467  26.892  55.458  1.00  0.00     0.050 C 
HETATM   23  C   UNL     1       7.409  27.590  54.543  1.00  0.00     0.071 C 
HETATM   24  N   UNL     1       6.553  25.532  55.773  1.00  0.00    -0.238 N 
HETATM   25  N   UNL     1       5.808  25.248  56.872  1.00  0.00    -0.179 NA
HETATM   26  C   UNL     1       4.988  26.290  56.986  1.00  0.00     0.158 C 
BRANCH  24  27
HETATM   27  C   UNL     1       7.218  24.464  55.095  1.00  0.00     0.058 A 
HETATM   28  C   UNL     1       6.835  24.144  53.782  1.00  0.00     0.031 A 
HETATM   29  C   UNL     1       7.496  23.136  53.077  1.00  0.00     0.002 A 
HETATM   30  C   UNL     1       8.555  22.449  53.667  1.00  0.00     0.000 A 
HETATM   31  C   UNL     1       8.960  22.777  54.959  1.00  0.00     0.002 A 
HETATM   32  C   UNL     1       8.301  23.785  55.670  1.00  0.00     0.031 A 
ENDBRANCH  24  27
ENDBRANCH   1  21
TORSDOF 7
ENDMDL
MODEL 6
REMARK VINA RESULT:      -9.8      2.922     10.671
REMARK  7 active torsions:
REMARK  status: ('A' for Active; 'I' for Inactive)
REMARK    1  A    between atoms: N_3  and  C_4 
REMARK    2  A    between atoms: C_12  and  C_13 
REMARK       I    between atoms: C_13  and  N_14 
REMARK    3  A    between atoms: N_14  and  C_15 
REMARK    4  A    between atoms: C_15  and  C_16 
REMARK    5  A    between atoms: C_17  and  C_18 
REMARK    6  A    between atoms: C_18  and  O_19 
REMARK    7  A    between atoms: O_19  and  C_20 
ROOT
HETATM    1  C   UNL     1       7.756  27.358  57.065  1.00  0.00     0.255 C 
HETATM    2  N   UNL     1       7.871  28.443  56.232  1.00  0.00    -0.346 N 
HETATM    3  O   UNL     1       8.003  27.409  58.265  1.00  0.00    -0.268 OA
HETATM    4  H   UNL     1       7.954  28.283  55.242  1.00  0.00     0.163 HD
ENDROOT
BRANCH   2   5
HETATM    5  C   UNL     1       8.251  29.739  56.734  1.00  0.00     0.217 C 
BRANCH   5   6
HETATM    6  C   UNL     1       7.085  30.480  57.219  1.00  0.00    -0.085 C 
HETATM    7  C   UNL     1       6.178  31.147  57.641  1.00  0.00    -0.078 C 
BRANCH   7   8
HETATM    8  C   UNL     1       5.129  32.028  58.177  1.00  0.00     0.269 C 
BRANCH   8   9
HETATM    9  O   UNL     1       4.872  31.646  59.530  1.00  0.00    -0.337 OA
BRANCH   9  10
HETATM   10  C   UNL     1       5.318  32.581  60.419  1.00  0.00     0.103 A 
HETATM   11  C   UNL     1       6.499  32.377  61.108  1.00  0.00     0.109 A 
HETATM   12  C   UNL     1       6.915  33.252  62.098  1.00  0.00    -0.019 A 
HETATM   13  O   UNL     1       7.351  31.322  60.912  1.00  0.00    -0.337 OA
HETATM   14  C   UNL     1       8.160  32.751  62.723  1.00  0.00     0.079 C 
HETATM   15  C   UNL     1       6.163  34.368  62.427  1.00  0.00     0.010 A 
HETATM   16  C   UNL     1       8.497  31.581  61.770  1.00  0.00     0.065 C 
HETATM   17  C   UNL     1       8.784  30.296  62.552  1.00  0.00     0.046 C 
HETATM   18  C   UNL     1       9.690  31.922  60.870  1.00  0.00     0.046 C 
HETATM   19  C   UNL     1       4.966  34.588  61.741  1.00  0.00     0.003 A 
HETATM   20  C   UNL     1       4.537  33.691  60.749  1.00  0.00     0.040 A 
ENDBRANCH   9  10
ENDBRANCH   8   9
ENDBRANCH   7   8
ENDBRANCH   5   6
ENDBRANCH   2   5
BRANCH   1  21
HETATM   21  C   UNL     1       7.300  26.122  56.447  1.00  0.00     0.075 C 
HETATM   22  C   UNL     1       7.798  24.820  56.513  1.00  0.00     0.050 C 
HETATM   23  C   UNL     1       8.834  24.217  57.394  1.00  0.00     0.071 C 
HETATM   24  N   UNL     1       7.143  24.122  55.493  1.00  0.00    -0.238 N 
HETATM   25  N   UNL     1       6.030  24.792  55.096  1.00  0.00    -0.179 NA
HETATM   26  C   UNL     1       6.210  26.025  55.560  1.00  0.00     0.158 C 
BRANCH  24  27
HETATM   27  C   UNL     1       7.504  22.919  54.813  1.00  0.00     0.058 A 
HETATM   28  C   UNL     1       7.611  21.726  55.545  1.00  0.00     0.031 A 
HETATM   29  C   UNL     1       7.919  20.525  54.902  1.00  0.00     0.002 A 
HETATM   30  C   UNL     1       8.106  20.499  53.522  1.00  0.00     0.000 A 
HETATM   31  C   UNL     1       7.976  21.673  52.782  1.00  0.00     0.002 A 
HETATM   32  C   UNL     1       7.670  22.878  53.422  1.00  0.00     0.031 A 
ENDBRANCH  24  27
ENDBRANCH   1  21
TORSDOF 7
ENDMDL
MODEL 7
REMARK VINA RESULT:      -9.7      2.923     11.709
REMARK  7 active torsions:
REMARK  status: ('A' for Active; 'I' for Inactive)
REMARK    1  A    between atoms: N_3  and  C_4 
REMARK    2  A    between atoms: C_12  and  C_13 
REMARK       I    between atoms: C_13  and  N_14 
REMARK    3  A    between atoms: N_14  and  C_15 
REMARK    4  A    between atoms: C_15  and  C_16 
REMARK    5  A    between atoms: C_17  and  C_18 
REMARK    6  A    between atoms: C_18  and  O_19 
REMARK    7  A    between atoms: O_19  and  C_20 
ROOT
HETATM    1  C   UNL     1       6.567  27.416  56.750  1.00  0.00     0.255 C 
HETATM    2  N   UNL     1       7.210  28.610  56.536  1.00  0.00    -0.346 N 
HETATM    3  O   UNL     1       5.406  27.344  57.138  1.00  0.00    -0.268 OA
HETATM    4  H   UNL     1       8.216  28.617  56.519  1.00  0.00     0.163 HD
ENDROOT
BRANCH   2   5
HETATM    5  C   UNL     1       6.534  29.870  56.713  1.00  0.00     0.217 C 
BRANCH   5   6
HETATM    6  C   UNL     1       6.982  30.543  57.934  1.00  0.00    -0.085 C 
HETATM    7  C   UNL     1       7.297  31.154  58.920  1.00  0.00    -0.078 C 
BRANCH   7   8
HETATM    8  C   UNL     1       7.617  31.963  60.105  1.00  0.00     0.269 C 
BRANCH   8   9
HETATM    9  O   UNL     1       6.391  32.339  60.735  1.00  0.00    -0.337 OA
BRANCH   9  10
HETATM   10  C   UNL     1       6.584  32.759  62.019  1.00  0.00     0.103 A 
HETATM   11  C   UNL     1       5.716  33.672  62.590  1.00  0.00     0.109 A 
HETATM   12  C   UNL     1       5.953  34.202  63.847  1.00  0.00    -0.019 A 
HETATM   13  O   UNL     1       4.578  34.151  61.996  1.00  0.00    -0.337 OA
HETATM   14  C   UNL     1       4.918  35.209  64.173  1.00  0.00     0.079 C 
HETATM   15  C   UNL     1       7.067  33.829  64.581  1.00  0.00     0.010 A 
HETATM   16  C   UNL     1       3.938  34.990  62.998  1.00  0.00     0.065 C 
HETATM   17  C   UNL     1       3.577  36.315  62.324  1.00  0.00     0.046 C 
HETATM   18  C   UNL     1       2.663  34.275  63.462  1.00  0.00     0.046 C 
HETATM   19  C   UNL     1       7.955  32.908  64.019  1.00  0.00     0.003 A 
HETATM   20  C   UNL     1       7.723  32.384  62.736  1.00  0.00     0.040 A 
ENDBRANCH   9  10
ENDBRANCH   8   9
ENDBRANCH   7   8
ENDBRANCH   5   6
ENDBRANCH   2   5
BRANCH   1  21
HETATM   21  C   UNL     1       7.339  26.214  56.474  1.00  0.00     0.075 C 
HETATM   22  C   UNL     1       7.402  25.399  55.342  1.00  0.00     0.050 C 
HETATM   23  C   UNL     1       6.861  25.593  53.971  1.00  0.00     0.071 C 
HETATM   24  N   UNL     1       8.074  24.245  55.757  1.00  0.00    -0.238 N 
HETATM   25  N   UNL     1       8.750  24.475  56.912  1.00  0.00    -0.179 NA
HETATM   26  C   UNL     1       8.199  25.585  57.396  1.00  0.00     0.158 C 
BRANCH  24  27
HETATM   27  C   UNL     1       8.084  22.928  55.203  1.00  0.00     0.058 A 
HETATM   28  C   UNL     1       8.324  22.767  53.828  1.00  0.00     0.031 A 
HETATM   29  C   UNL     1       8.385  21.491  53.264  1.00  0.00     0.002 A 
HETATM   30  C   UNL     1       8.224  20.364  54.066  1.00  0.00     0.000 A 
HETATM   31  C   UNL     1       8.011  20.511  55.435  1.00  0.00     0.002 A 
HETATM   32  C   UNL     1       7.948  21.787  56.005  1.00  0.00     0.031 A 
ENDBRANCH  24  27
ENDBRANCH   1  21
TORSDOF 7
ENDMDL
MODEL 8
REMARK VINA RESULT:      -9.6      3.221     11.414
REMARK  7 active torsions:
REMARK  status: ('A' for Active; 'I' for Inactive)
REMARK    1  A    between atoms: N_3  and  C_4 
REMARK    2  A    between atoms: C_12  and  C_13 
REMARK       I    between atoms: C_13  and  N_14 
REMARK    3  A    between atoms: N_14  and  C_15 
REMARK    4  A    between atoms: C_15  and  C_16 
REMARK    5  A    between atoms: C_17  and  C_18 
REMARK    6  A    between atoms: C_18  and  O_19 
REMARK    7  A    between atoms: O_19  and  C_20 
ROOT
HETATM    1  C   UNL     1       4.443  28.340  55.805  1.00  0.00     0.255 C 
HETATM    2  N   UNL     1       4.230  29.085  56.939  1.00  0.00    -0.346 N 
HETATM    3  O   UNL     1       3.998  28.655  54.707  1.00  0.00    -0.268 OA
HETATM    4  H   UNL     1       4.347  28.642  57.834  1.00  0.00     0.163 HD
ENDROOT
BRANCH   2   5
HETATM    5  C   UNL     1       3.498  30.325  56.896  1.00  0.00     0.217 C 
BRANCH   5   6
HETATM    6  C   UNL     1       3.618  31.054  58.160  1.00  0.00    -0.085 C 
HETATM    7  C   UNL     1       3.760  31.591  59.226  1.00  0.00    -0.078 C 
BRANCH   7   8
HETATM    8  C   UNL     1       3.989  32.179  60.554  1.00  0.00     0.269 C 
BRANCH   8   9
HETATM    9  O   UNL     1       5.081  33.096  60.456  1.00  0.00    -0.337 OA
BRANCH   9  10
HETATM   10  C   UNL     1       6.081  32.797  61.335  1.00  0.00     0.103 A 
HETATM   11  C   UNL     1       6.109  33.389  62.584  1.00  0.00     0.109 A 
HETATM   12  C   UNL     1       7.172  33.192  63.450  1.00  0.00    -0.019 A 
HETATM   13  O   UNL     1       5.139  34.218  63.083  1.00  0.00    -0.337 OA
HETATM   14  C   UNL     1       6.984  34.005  64.672  1.00  0.00     0.079 C 
HETATM   15  C   UNL     1       8.243  32.387  63.096  1.00  0.00     0.010 A 
HETATM   16  C   UNL     1       5.538  34.507  64.452  1.00  0.00     0.065 C 
HETATM   17  C   UNL     1       5.442  36.022  64.647  1.00  0.00     0.046 C 
HETATM   18  C   UNL     1       4.553  33.796  65.387  1.00  0.00     0.046 C 
HETATM   19  C   UNL     1       8.230  31.782  61.837  1.00  0.00     0.003 A 
HETATM   20  C   UNL     1       7.160  31.995  60.952  1.00  0.00     0.040 A 
ENDBRANCH   9  10
ENDBRANCH   8   9
ENDBRANCH   7   8
ENDBRANCH   5   6
ENDBRANCH   2   5
BRANCH   1  21
HETATM   21  C   UNL     1       5.253  27.143  55.969  1.00  0.00     0.075 C 
HETATM   22  C   UNL     1       6.387  26.697  55.288  1.00  0.00     0.050 C 
HETATM   23  C   UNL     1       7.267  27.384  54.307  1.00  0.00     0.071 C 
HETATM   24  N   UNL     1       6.548  25.362  55.676  1.00  0.00    -0.238 N 
HETATM   25  N   UNL     1       5.849  25.108  56.812  1.00  0.00    -0.179 NA
HETATM   26  C   UNL     1       4.985  26.115  56.895  1.00  0.00     0.158 C 
BRANCH  24  27
HETATM   27  C   UNL     1       7.243  24.289  55.038  1.00  0.00     0.058 A 
HETATM   28  C   UNL     1       6.906  23.944  53.719  1.00  0.00     0.031 A 
HETATM   29  C   UNL     1       7.598  22.930  53.053  1.00  0.00     0.002 A 
HETATM   30  C   UNL     1       8.642  22.263  53.688  1.00  0.00     0.000 A 
HETATM   31  C   UNL     1       9.002  22.615  54.987  1.00  0.00     0.002 A 
HETATM   32  C   UNL     1       8.312  23.628  55.660  1.00  0.00     0.031 A 
ENDBRANCH  24  27
ENDBRANCH   1  21
TORSDOF 7
ENDMDL
MODEL 9
REMARK VINA RESULT:      -9.5      2.918     11.144
REMARK  7 active torsions:
REMARK  status: ('A' for Active; 'I' for Inactive)
REMARK    1  A    between atoms: N_3  and  C_4 
REMARK    2  A    between atoms: C_12  and  C_13 
REMARK       I    between atoms: C_13  and  N_14 
REMARK    3  A    between atoms: N_14  and  C_15 
REMARK    4  A    between atoms: C_15  and  C_16 
REMARK    5  A    between atoms: C_17  and  C_18 
REMARK    6  A    between atoms: C_18  and  O_19 
REMARK    7  A    between atoms: O_19  and  C_20 
ROOT
HETATM    1  C   UNL     1       6.079  27.193  54.513  1.00  0.00     0.255 C 
HETATM    2  N   UNL     1       6.197  28.248  55.384  1.00  0.00    -0.346 N 
HETATM    3  O   UNL     1       5.415  27.248  53.485  1.00  0.00    -0.268 OA
HETATM    4  H   UNL     1       6.486  28.061  56.329  1.00  0.00     0.163 HD
ENDROOT
BRANCH   2   5
HETATM    5  C   UNL     1       5.573  29.518  55.113  1.00  0.00     0.217 C 
BRANCH   5   6
HETATM    6  C   UNL     1       5.517  30.348  56.318  1.00  0.00    -0.085 C 
HETATM    7  C   UNL     1       5.493  30.964  57.350  1.00  0.00    -0.078 C 
BRANCH   7   8
HETATM    8  C   UNL     1       5.495  31.643  58.655  1.00  0.00     0.269 C 
BRANCH   8   9
HETATM    9  O   UNL     1       6.670  32.452  58.738  1.00  0.00    -0.337 OA
BRANCH   9  10
HETATM   10  C   UNL     1       7.493  32.055  59.751  1.00  0.00     0.103 A 
HETATM   11  C   UNL     1       7.258  32.480  61.045  1.00  0.00     0.109 A 
HETATM   12  C   UNL     1       8.142  32.188  62.071  1.00  0.00    -0.019 A 
HETATM   13  O   UNL     1       6.178  33.223  61.444  1.00  0.00    -0.337 OA
HETATM   14  C   UNL     1       7.690  32.832  63.324  1.00  0.00     0.079 C 
HETATM   15  C   UNL     1       9.292  31.451  61.835  1.00  0.00     0.010 A 
HETATM   16  C   UNL     1       6.295  33.337  62.889  1.00  0.00     0.065 C 
HETATM   17  C   UNL     1       6.103  34.812  63.250  1.00  0.00     0.046 C 
HETATM   18  C   UNL     1       5.177  32.496  63.518  1.00  0.00     0.046 C 
HETATM   19  C   UNL     1       9.544  31.015  60.532  1.00  0.00     0.003 A 
HETATM   20  C   UNL     1       8.656  31.326  59.489  1.00  0.00     0.040 A 
ENDBRANCH   9  10
ENDBRANCH   8   9
ENDBRANCH   7   8
ENDBRANCH   5   6
ENDBRANCH   2   5
BRANCH   1  21
HETATM   21  C   UNL     1       6.810  25.986  54.868  1.00  0.00     0.075 C 
HETATM   22  C   UNL     1       7.512  25.069  54.084  1.00  0.00     0.050 C 
HETATM   23  C   UNL     1       7.921  25.120  52.656  1.00  0.00     0.071 C 
HETATM   24  N   UNL     1       7.746  23.972  54.922  1.00  0.00    -0.238 N 
HETATM   25  N   UNL     1       7.593  24.325  56.224  1.00  0.00    -0.179 NA
HETATM   26  C   UNL     1       6.908  25.465  56.174  1.00  0.00     0.158 C 
BRANCH  24  27
HETATM   27  C   UNL     1       8.035  22.609  54.605  1.00  0.00     0.058 A 
HETATM   28  C   UNL     1       7.709  22.121  53.329  1.00  0.00     0.031 A 
HETATM   29  C   UNL     1       8.020  20.806  52.974  1.00  0.00     0.002 A 
HETATM   30  C   UNL     1       8.673  19.973  53.879  1.00  0.00     0.000 A 
HETATM   31  C   UNL     1       9.024  20.456  55.137  1.00  0.00     0.002 A 
HETATM   32  C   UNL     1       8.714  21.771  55.499  1.00  0.00     0.031 A 
ENDBRANCH  24  27
ENDBRANCH   1  21
TORSDOF 7
ENDMDL
MODEL 10
REMARK VINA RESULT:      -9.3      3.114     11.701
REMARK  7 active torsions:
REMARK  status: ('A' for Active; 'I' for Inactive)
REMARK    1  A    between atoms: N_3  and  C_4 
REMARK    2  A    between atoms: C_12  and  C_13 
REMARK       I    between atoms: C_13  and  N_14 
REMARK    3  A    between atoms: N_14  and  C_15 
REMARK    4  A    between atoms: C_15  and  C_16 
REMARK    5  A    between atoms: C_17  and  C_18 
REMARK    6  A    between atoms: C_18  and  O_19 
REMARK    7  A    between atoms: O_19  and  C_20 
ROOT
HETATM    1  C   UNL     1       5.303  28.115  54.334  1.00  0.00     0.255 C 
HETATM    2  N   UNL     1       5.744  28.864  55.397  1.00  0.00    -0.346 N 
HETATM    3  O   UNL     1       4.282  28.380  53.709  1.00  0.00    -0.268 OA
HETATM    4  H   UNL     1       6.389  28.445  56.045  1.00  0.00     0.163 HD
ENDROOT
BRANCH   2   5
HETATM    5  C   UNL     1       5.046  30.052  55.819  1.00  0.00     0.217 C 
BRANCH   5   6
HETATM    6  C   UNL     1       5.687  30.652  56.991  1.00  0.00    -0.085 C 
HETATM    7  C   UNL     1       6.283  31.126  57.921  1.00  0.00    -0.078 C 
BRANCH   7   8
HETATM    8  C   UNL     1       7.092  31.686  59.015  1.00  0.00     0.269 C 
BRANCH   8   9
HETATM    9  O   UNL     1       6.222  32.404  59.892  1.00  0.00    -0.337 OA
BRANCH   9  10
HETATM   10  C   UNL     1       6.721  32.477  61.160  1.00  0.00     0.103 A 
HETATM   11  C   UNL     1       6.246  33.431  62.041  1.00  0.00     0.109 A 
HETATM   12  C   UNL     1       6.814  33.602  63.292  1.00  0.00    -0.019 A 
HETATM   13  O   UNL     1       5.213  34.294  61.782  1.00  0.00    -0.337 OA
HETATM   14  C   UNL     1       6.170  34.739  63.987  1.00  0.00     0.079 C 
HETATM   15  C   UNL     1       7.876  32.815  63.708  1.00  0.00     0.010 A 
HETATM   16  C   UNL     1       4.999  35.028  63.020  1.00  0.00     0.065 C 
HETATM   17  C   UNL     1       4.929  36.515  62.664  1.00  0.00     0.046 C 
HETATM   18  C   UNL     1       3.661  34.570  63.612  1.00  0.00     0.046 C 
HETATM   19  C   UNL     1       8.368  31.847  62.830  1.00  0.00     0.003 A 
HETATM   20  C   UNL     1       7.803  31.685  61.554  1.00  0.00     0.040 A 
ENDBRANCH   9  10
ENDBRANCH   8   9
ENDBRANCH   7   8
ENDBRANCH   5   6
ENDBRANCH   2   5
BRANCH   1  21
HETATM   21  C   UNL     1       6.132  26.978  53.966  1.00  0.00     0.075 C 
HETATM   22  C   UNL     1       5.808  25.642  53.720  1.00  0.00     0.050 C 
HETATM   23  C   UNL     1       4.490  24.974  53.551  1.00  0.00     0.071 C 
HETATM   24  N   UNL     1       7.031  24.963  53.706  1.00  0.00    -0.238 N 
HETATM   25  N   UNL     1       8.058  25.834  53.530  1.00  0.00    -0.179 NA
HETATM   26  C   UNL     1       7.533  27.020  53.826  1.00  0.00     0.158 C 
BRANCH  24  27
HETATM   27  C   UNL     1       7.326  23.580  53.909  1.00  0.00     0.058 A 
HETATM   28  C   UNL     1       7.716  22.796  52.811  1.00  0.00     0.031 A 
HETATM   29  C   UNL     1       8.055  21.452  52.985  1.00  0.00     0.002 A 
HETATM   30  C   UNL     1       8.023  20.882  54.256  1.00  0.00     0.000 A 
HETATM   31  C   UNL     1       7.662  21.658  55.355  1.00  0.00     0.002 A 
HETATM   32  C   UNL     1       7.322  23.004  55.187  1.00  0.00     0.031 A 
ENDBRANCH  24  27
ENDBRANCH   1  21
TORSDOF 7
ENDMDL
