MODEL 1
REMARK VINA RESULT:     -10.7      0.000      0.000
REMARK  4 active torsions:
REMARK  status: ('A' for Active; 'I' for Inactive)
REMARK    1  A    between atoms: C_4  and  N_5 
REMARK    2  A    between atoms: N_5  and  C_6 
REMARK    3  A    between atoms: C_8  and  C_9 
REMARK    4  A    between atoms: C_23  and  O_24 
ROOT
HETATM    1  C   UNL     1       8.141  28.213  57.482  1.00  0.00     0.722 A 
HETATM    2  N   UNL     1       7.954  28.876  58.586  1.00  0.00    -0.063 NA
HETATM    3  C   UNL     1       8.675  30.033  58.790  1.00  0.00     0.091 A 
HETATM    4  C   UNL     1       9.541  30.536  57.898  1.00  0.00     0.108 A 
HETATM    5  C   UNL     1       9.758  29.790  56.655  1.00  0.00     0.261 A 
HETATM    6  O   UNL     1      10.543  30.187  55.802  1.00  0.00    -0.268 OA
HETATM    7  N   UNL     1       9.029  28.651  56.537  1.00  0.00    -0.154 N 
HETATM    8  H   UNL     1       9.143  28.099  55.694  1.00  0.00     0.187 HD
ENDROOT
BRANCH   1   9
HETATM    9  N   UNL     1       7.440  27.070  57.263  1.00  0.00    -0.017 N 
HETATM   10  H   UNL     1       6.858  26.722  58.008  1.00  0.00     0.203 HD
BRANCH   9  11
HETATM   11  C   UNL     1       7.409  26.263  56.139  1.00  0.00     0.742 A 
HETATM   12  N   UNL     1       6.999  26.759  54.963  1.00  0.00    -0.066 NA
HETATM   13  C   UNL     1       7.000  25.932  53.895  1.00  0.00     0.062 A 
HETATM   14  C   UNL     1       6.536  26.552  52.608  1.00  0.00     0.072 C 
HETATM   15  C   UNL     1       7.402  24.594  53.974  1.00  0.00     0.021 A 
HETATM   16  C   UNL     1       7.801  24.161  55.247  1.00  0.00     0.121 A 
HETATM   17  C   UNL     1       7.419  23.700  52.878  1.00  0.00     0.016 A 
HETATM   18  N   UNL     1       7.800  24.997  56.305  1.00  0.00    -0.059 NA
HETATM   19  C   UNL     1       8.197  22.818  55.394  1.00  0.00     0.098 A 
HETATM   20  C   UNL     1       8.226  21.941  54.299  1.00  0.00     0.039 A 
HETATM   21  C   UNL     1       7.835  22.383  53.042  1.00  0.00     0.004 A 
BRANCH  19  22
HETATM   22  O   UNL     1       8.583  22.440  56.663  1.00  0.00    -0.354 OA
HETATM   23  C   UNL     1       8.390  21.075  57.012  1.00  0.00     0.210 C 
ENDBRANCH  19  22
ENDBRANCH   9  11
ENDBRANCH   1   9
BRANCH   3  24
HETATM   24  C   UNL     1       8.433  30.768  60.057  1.00  0.00    -0.006 A 
HETATM   25  C   UNL     1       9.220  30.485  61.188  1.00  0.00     0.017 A 
HETATM   26  C   UNL     1       9.018  31.164  62.392  1.00  0.00     0.043 A 
HETATM   27  C   UNL     1       8.032  32.138  62.470  1.00  0.00     0.116 A 
HETATM   28  F   UNL     1       7.836  32.790  63.625  1.00  0.00    -0.206 F 
HETATM   29  C   UNL     1       7.249  32.451  61.367  1.00  0.00     0.043 A 
HETATM   30  C   UNL     1       7.453  31.773  60.161  1.00  0.00     0.017 A 
ENDBRANCH   3  24
TORSDOF 4
ENDMDL
MODEL 2
REMARK VINA RESULT:     -10.5      1.321      2.790
REMARK  4 active torsions:
REMARK  status: ('A' for Active; 'I' for Inactive)
REMARK    1  A    between atoms: C_4  and  N_5 
REMARK    2  A    between atoms: N_5  and  C_6 
REMARK    3  A    between atoms: C_8  and  C_9 
REMARK    4  A    between atoms: C_23  and  O_24 
ROOT
HETATM    1  C   UNL     1       8.005  28.378  57.615  1.00  0.00     0.722 A 
HETATM    2  N   UNL     1       7.884  29.057  58.719  1.00  0.00    -0.063 NA
HETATM    3  C   UNL     1       8.695  30.155  58.909  1.00  0.00     0.091 A 
HETATM    4  C   UNL     1       9.586  30.586  58.005  1.00  0.00     0.108 A 
HETATM    5  C   UNL     1       9.728  29.823  56.762  1.00  0.00     0.261 A 
HETATM    6  O   UNL     1      10.531  30.155  55.898  1.00  0.00    -0.268 OA
HETATM    7  N   UNL     1       8.912  28.743  56.658  1.00  0.00    -0.154 N 
HETATM    8  H   UNL     1       8.972  28.181  55.816  1.00  0.00     0.187 HD
ENDROOT
BRANCH   1   9
HETATM    9  N   UNL     1       7.215  27.292  57.410  1.00  0.00    -0.017 N 
HETATM   10  H   UNL     1       6.335  27.249  57.898  1.00  0.00     0.203 HD
BRANCH   9  11
HETATM   11  C   UNL     1       7.443  26.180  56.618  1.00  0.00     0.742 A 
HETATM   12  N   UNL     1       7.788  25.011  57.177  1.00  0.00    -0.066 NA
HETATM   13  C   UNL     1       7.986  23.955  56.359  1.00  0.00     0.062 A 
HETATM   14  C   UNL     1       8.364  22.675  57.050  1.00  0.00     0.072 C 
HETATM   15  C   UNL     1       7.851  24.038  54.969  1.00  0.00     0.021 A 
HETATM   16  C   UNL     1       7.500  25.302  54.474  1.00  0.00     0.121 A 
HETATM   17  C   UNL     1       8.046  22.953  54.082  1.00  0.00     0.016 A 
HETATM   18  N   UNL     1       7.301  26.349  55.301  1.00  0.00    -0.059 NA
HETATM   19  C   UNL     1       7.369  25.454  53.081  1.00  0.00     0.098 A 
HETATM   20  C   UNL     1       7.550  24.370  52.209  1.00  0.00     0.039 A 
HETATM   21  C   UNL     1       7.891  23.121  52.711  1.00  0.00     0.004 A 
BRANCH  19  22
HETATM   22  O   UNL     1       7.021  26.714  52.642  1.00  0.00    -0.354 OA
HETATM   23  C   UNL     1       5.831  26.819  51.871  1.00  0.00     0.210 C 
ENDBRANCH  19  22
ENDBRANCH   9  11
ENDBRANCH   1   9
BRANCH   3  24
HETATM   24  C   UNL     1       8.526  30.911  60.176  1.00  0.00    -0.006 A 
HETATM   25  C   UNL     1       7.722  32.065  60.197  1.00  0.00     0.017 A 
HETATM   26  C   UNL     1       7.542  32.793  61.375  1.00  0.00     0.043 A 
HETATM   27  C   UNL     1       8.160  32.368  62.544  1.00  0.00     0.116 A 
HETATM   28  F   UNL     1       7.989  33.065  63.675  1.00  0.00    -0.206 F 
HETATM   29  C   UNL     1       8.947  31.223  62.558  1.00  0.00     0.043 A 
HETATM   30  C   UNL     1       9.125  30.493  61.379  1.00  0.00     0.017 A 
ENDBRANCH   3  24
TORSDOF 4
ENDMDL
MODEL 3
REMARK VINA RESULT:      -9.9      2.442      3.029
REMARK  4 active torsions:
REMARK  status: ('A' for Active; 'I' for Inactive)
REMARK    1  A    between atoms: C_4  and  N_5 
REMARK    2  A    between atoms: N_5  and  C_6 
REMARK    3  A    between atoms: C_8  and  C_9 
REMARK    4  A    between atoms: C_23  and  O_24 
ROOT
HETATM    1  C   UNL     1       5.221  27.564  56.851  1.00  0.00     0.722 A 
HETATM    2  N   UNL     1       6.175  28.206  57.459  1.00  0.00    -0.063 NA
HETATM    3  C   UNL     1       6.097  29.580  57.540  1.00  0.00     0.091 A 
HETATM    4  C   UNL     1       5.072  30.295  57.054  1.00  0.00     0.108 A 
HETATM    5  C   UNL     1       3.997  29.576  56.366  1.00  0.00     0.261 A 
HETATM    6  O   UNL     1       3.036  30.169  55.889  1.00  0.00    -0.268 OA
HETATM    7  N   UNL     1       4.156  28.229  56.307  1.00  0.00    -0.154 N 
HETATM    8  H   UNL     1       3.439  27.685  55.841  1.00  0.00     0.187 HD
ENDROOT
BRANCH   1   9
HETATM    9  N   UNL     1       5.281  26.209  56.760  1.00  0.00    -0.017 N 
HETATM   10  H   UNL     1       4.928  25.667  57.531  1.00  0.00     0.203 HD
BRANCH   9  11
HETATM   11  C   UNL     1       5.787  25.421  55.740  1.00  0.00     0.742 A 
HETATM   12  N   UNL     1       5.430  25.650  54.468  1.00  0.00    -0.066 NA
HETATM   13  C   UNL     1       5.963  24.860  53.512  1.00  0.00     0.062 A 
HETATM   14  C   UNL     1       5.525  25.174  52.109  1.00  0.00     0.072 C 
HETATM   15  C   UNL     1       6.857  23.823  53.798  1.00  0.00     0.021 A 
HETATM   16  C   UNL     1       7.163  23.651  55.155  1.00  0.00     0.121 A 
HETATM   17  C   UNL     1       7.438  22.979  52.823  1.00  0.00     0.016 A 
HETATM   18  N   UNL     1       6.628  24.449  56.102  1.00  0.00    -0.059 NA
HETATM   19  C   UNL     1       8.042  22.610  55.508  1.00  0.00     0.098 A 
HETATM   20  C   UNL     1       8.626  21.786  54.534  1.00  0.00     0.039 A 
HETATM   21  C   UNL     1       8.321  21.970  53.191  1.00  0.00     0.004 A 
BRANCH  19  22
HETATM   22  O   UNL     1       8.314  22.481  56.854  1.00  0.00    -0.354 OA
HETATM   23  C   UNL     1       8.399  21.158  57.368  1.00  0.00     0.210 C 
ENDBRANCH  19  22
ENDBRANCH   9  11
ENDBRANCH   1   9
BRANCH   3  24
HETATM   24  C   UNL     1       7.199  30.282  58.245  1.00  0.00    -0.006 A 
HETATM   25  C   UNL     1       6.914  31.411  59.033  1.00  0.00     0.017 A 
HETATM   26  C   UNL     1       7.930  32.088  59.712  1.00  0.00     0.043 A 
HETATM   27  C   UNL     1       9.239  31.635  59.612  1.00  0.00     0.116 A 
HETATM   28  F   UNL     1      10.215  32.284  60.261  1.00  0.00    -0.206 F 
HETATM   29  C   UNL     1       9.550  30.514  58.854  1.00  0.00     0.043 A 
HETATM   30  C   UNL     1       8.532  29.834  58.177  1.00  0.00     0.017 A 
ENDBRANCH   3  24
TORSDOF 4
ENDMDL
MODEL 4
REMARK VINA RESULT:      -9.8      3.852      8.877
REMARK  4 active torsions:
REMARK  status: ('A' for Active; 'I' for Inactive)
REMARK    1  A    between atoms: C_4  and  N_5 
REMARK    2  A    between atoms: N_5  and  C_6 
REMARK    3  A    between atoms: C_8  and  C_9 
REMARK    4  A    between atoms: C_23  and  O_24 
ROOT
HETATM    1  C   UNL     1       7.258  27.388  54.021  1.00  0.00     0.722 A 
HETATM    2  N   UNL     1       7.640  26.150  54.139  1.00  0.00    -0.063 NA
HETATM    3  C   UNL     1       6.719  25.151  53.909  1.00  0.00     0.091 A 
HETATM    4  C   UNL     1       5.452  25.381  53.536  1.00  0.00     0.108 A 
HETATM    5  C   UNL     1       5.016  26.773  53.404  1.00  0.00     0.261 A 
HETATM    6  O   UNL     1       3.868  27.054  53.077  1.00  0.00    -0.268 OA
HETATM    7  N   UNL     1       5.972  27.700  53.669  1.00  0.00    -0.154 N 
HETATM    8  H   UNL     1       5.720  28.679  53.591  1.00  0.00     0.187 HD
ENDROOT
BRANCH   1   9
HETATM    9  N   UNL     1       8.151  28.387  54.245  1.00  0.00    -0.017 N 
HETATM   10  H   UNL     1       8.708  28.707  53.469  1.00  0.00     0.203 HD
BRANCH   9  11
HETATM   11  C   UNL     1       8.443  29.054  55.423  1.00  0.00     0.742 A 
HETATM   12  N   UNL     1       9.714  29.180  55.830  1.00  0.00    -0.066 NA
HETATM   13  C   UNL     1       9.944  29.850  56.979  1.00  0.00     0.062 A 
HETATM   14  C   UNL     1      11.389  29.961  57.376  1.00  0.00     0.072 C 
HETATM   15  C   UNL     1       8.917  30.404  57.751  1.00  0.00     0.021 A 
HETATM   16  C   UNL     1       7.620  30.211  57.253  1.00  0.00     0.121 A 
HETATM   17  C   UNL     1       9.119  31.116  58.957  1.00  0.00     0.016 A 
HETATM   18  N   UNL     1       7.403  29.544  56.101  1.00  0.00    -0.059 NA
HETATM   19  C   UNL     1       6.543  30.729  57.997  1.00  0.00     0.098 A 
HETATM   20  C   UNL     1       6.752  31.445  59.184  1.00  0.00     0.039 A 
HETATM   21  C   UNL     1       8.042  31.637  59.664  1.00  0.00     0.004 A 
BRANCH  19  22
HETATM   22  O   UNL     1       5.288  30.516  57.466  1.00  0.00    -0.354 OA
HETATM   23  C   UNL     1       4.184  31.021  58.206  1.00  0.00     0.210 C 
ENDBRANCH  19  22
ENDBRANCH   9  11
ENDBRANCH   1   9
BRANCH   3  24
HETATM   24  C   UNL     1       7.190  23.750  54.048  1.00  0.00    -0.006 A 
HETATM   25  C   UNL     1       7.540  23.016  52.900  1.00  0.00     0.017 A 
HETATM   26  C   UNL     1       7.991  21.697  53.001  1.00  0.00     0.043 A 
HETATM   27  C   UNL     1       8.101  21.106  54.252  1.00  0.00     0.116 A 
HETATM   28  F   UNL     1       8.532  19.841  54.351  1.00  0.00    -0.206 F 
HETATM   29  C   UNL     1       7.778  21.810  55.405  1.00  0.00     0.043 A 
HETATM   30  C   UNL     1       7.330  23.131  55.304  1.00  0.00     0.017 A 
ENDBRANCH   3  24
TORSDOF 4
ENDMDL
MODEL 5
REMARK VINA RESULT:      -9.8      4.131      8.753
REMARK  4 active torsions:
REMARK  status: ('A' for Active; 'I' for Inactive)
REMARK    1  A    between atoms: C_4  and  N_5 
REMARK    2  A    between atoms: N_5  and  C_6 
REMARK    3  A    between atoms: C_8  and  C_9 
REMARK    4  A    between atoms: C_23  and  O_24 
ROOT
HETATM    1  C   UNL     1       5.390  25.980  54.704  1.00  0.00     0.722 A 
HETATM    2  N   UNL     1       5.995  24.841  54.880  1.00  0.00    -0.063 NA
HETATM    3  C   UNL     1       6.650  24.272  53.809  1.00  0.00     0.091 A 
HETATM    4  C   UNL     1       6.727  24.841  52.597  1.00  0.00     0.108 A 
HETATM    5  C   UNL     1       6.044  26.122  52.395  1.00  0.00     0.261 A 
HETATM    6  O   UNL     1       6.065  26.691  51.309  1.00  0.00    -0.268 OA
HETATM    7  N   UNL     1       5.404  26.607  53.488  1.00  0.00    -0.154 N 
HETATM    8  H   UNL     1       4.915  27.491  53.400  1.00  0.00     0.187 HD
ENDROOT
BRANCH   1   9
HETATM    9  N   UNL     1       4.738  26.556  55.748  1.00  0.00    -0.017 N 
HETATM   10  H   UNL     1       4.044  26.010  56.232  1.00  0.00     0.203 HD
BRANCH   9  11
HETATM   11  C   UNL     1       4.870  27.833  56.266  1.00  0.00     0.742 A 
HETATM   12  N   UNL     1       3.881  28.727  56.121  1.00  0.00    -0.066 NA
HETATM   13  C   UNL     1       4.057  29.954  56.656  1.00  0.00     0.062 A 
HETATM   14  C   UNL     1       2.909  30.904  56.462  1.00  0.00     0.072 C 
HETATM   15  C   UNL     1       5.219  30.322  57.342  1.00  0.00     0.021 A 
HETATM   16  C   UNL     1       6.203  29.327  57.433  1.00  0.00     0.121 A 
HETATM   17  C   UNL     1       5.437  31.595  57.918  1.00  0.00     0.016 A 
HETATM   18  N   UNL     1       6.015  28.103  56.898  1.00  0.00    -0.059 NA
HETATM   19  C   UNL     1       7.405  29.644  58.094  1.00  0.00     0.098 A 
HETATM   20  C   UNL     1       7.607  30.904  58.676  1.00  0.00     0.039 A 
HETATM   21  C   UNL     1       6.623  31.880  58.585  1.00  0.00     0.004 A 
BRANCH  19  22
HETATM   22  O   UNL     1       8.341  28.633  58.160  1.00  0.00    -0.354 OA
HETATM   23  C   UNL     1       9.406  28.683  57.220  1.00  0.00     0.210 C 
ENDBRANCH  19  22
ENDBRANCH   9  11
ENDBRANCH   1   9
BRANCH   3  24
HETATM   24  C   UNL     1       7.335  22.975  54.044  1.00  0.00    -0.006 A 
HETATM   25  C   UNL     1       7.784  22.217  52.948  1.00  0.00     0.017 A 
HETATM   26  C   UNL     1       8.436  20.996  53.139  1.00  0.00     0.043 A 
HETATM   27  C   UNL     1       8.649  20.529  54.429  1.00  0.00     0.116 A 
HETATM   28  F   UNL     1       9.273  19.357  54.614  1.00  0.00    -0.206 F 
HETATM   29  C   UNL     1       8.231  21.263  55.531  1.00  0.00     0.043 A 
HETATM   30  C   UNL     1       7.581  22.486  55.340  1.00  0.00     0.017 A 
ENDBRANCH   3  24
TORSDOF 4
ENDMDL
MODEL 6
REMARK VINA RESULT:      -9.7      3.794      8.903
REMARK  4 active torsions:
REMARK  status: ('A' for Active; 'I' for Inactive)
REMARK    1  A    between atoms: C_4  and  N_5 
REMARK    2  A    between atoms: N_5  and  C_6 
REMARK    3  A    between atoms: C_8  and  C_9 
REMARK    4  A    between atoms: C_23  and  O_24 
ROOT
HETATM    1  C   UNL     1       6.231  28.092  55.021  1.00  0.00     0.722 A 
HETATM    2  N   UNL     1       6.568  26.836  55.074  1.00  0.00    -0.063 NA
HETATM    3  C   UNL     1       6.656  26.128  53.895  1.00  0.00     0.091 A 
HETATM    4  C   UNL     1       6.446  26.668  52.686  1.00  0.00     0.108 A 
HETATM    5  C   UNL     1       6.063  28.081  52.622  1.00  0.00     0.261 A 
HETATM    6  O   UNL     1       5.845  28.635  51.551  1.00  0.00    -0.268 OA
HETATM    7  N   UNL     1       5.975  28.705  53.825  1.00  0.00    -0.154 N 
HETATM    8  H   UNL     1       5.713  29.684  53.834  1.00  0.00     0.187 HD
ENDROOT
BRANCH   1   9
HETATM    9  N   UNL     1       6.138  28.807  56.173  1.00  0.00    -0.017 N 
HETATM   10  H   UNL     1       5.225  28.928  56.582  1.00  0.00     0.203 HD
BRANCH   9  11
HETATM   11  C   UNL     1       7.136  29.437  56.897  1.00  0.00     0.742 A 
HETATM   12  N   UNL     1       8.425  29.217  56.602  1.00  0.00    -0.066 NA
HETATM   13  C   UNL     1       9.358  29.866  57.332  1.00  0.00     0.062 A 
HETATM   14  C   UNL     1      10.782  29.580  56.947  1.00  0.00     0.072 C 
HETATM   15  C   UNL     1       9.030  30.743  58.372  1.00  0.00     0.021 A 
HETATM   16  C   UNL     1       7.658  30.900  58.615  1.00  0.00     0.121 A 
HETATM   17  C   UNL     1       9.979  31.443  59.154  1.00  0.00     0.016 A 
HETATM   18  N   UNL     1       6.736  30.250  57.877  1.00  0.00    -0.059 NA
HETATM   19  C   UNL     1       7.267  31.755  59.663  1.00  0.00     0.098 A 
HETATM   20  C   UNL     1       8.213  32.456  60.425  1.00  0.00     0.039 A 
HETATM   21  C   UNL     1       9.569  32.298  60.170  1.00  0.00     0.004 A 
BRANCH  19  22
HETATM   22  O   UNL     1       5.908  31.879  59.863  1.00  0.00    -0.354 OA
HETATM   23  C   UNL     1       5.491  32.689  60.955  1.00  0.00     0.210 C 
ENDBRANCH  19  22
ENDBRANCH   9  11
ENDBRANCH   1   9
BRANCH   3  24
HETATM   24  C   UNL     1       7.048  24.699  53.991  1.00  0.00    -0.006 A 
HETATM   25  C   UNL     1       7.448  24.008  52.833  1.00  0.00     0.017 A 
HETATM   26  C   UNL     1       7.826  22.664  52.893  1.00  0.00     0.043 A 
HETATM   27  C   UNL     1       7.815  22.005  54.115  1.00  0.00     0.116 A 
HETATM   28  F   UNL     1       8.176  20.716  54.175  1.00  0.00    -0.206 F 
HETATM   29  C   UNL     1       7.440  22.664  55.278  1.00  0.00     0.043 A 
HETATM   30  C   UNL     1       7.064  24.010  55.218  1.00  0.00     0.017 A 
ENDBRANCH   3  24
TORSDOF 4
ENDMDL
MODEL 7
REMARK VINA RESULT:      -9.7      3.846      8.826
REMARK  4 active torsions:
REMARK  status: ('A' for Active; 'I' for Inactive)
REMARK    1  A    between atoms: C_4  and  N_5 
REMARK    2  A    between atoms: N_5  and  C_6 
REMARK    3  A    between atoms: C_8  and  C_9 
REMARK    4  A    between atoms: C_23  and  O_24 
ROOT
HETATM    1  C   UNL     1       7.274  26.713  53.672  1.00  0.00     0.722 A 
HETATM    2  N   UNL     1       7.612  25.518  54.061  1.00  0.00    -0.063 NA
HETATM    3  C   UNL     1       7.046  24.434  53.425  1.00  0.00     0.091 A 
HETATM    4  C   UNL     1       6.187  24.538  52.401  1.00  0.00     0.108 A 
HETATM    5  C   UNL     1       5.802  25.882  51.961  1.00  0.00     0.261 A 
HETATM    6  O   UNL     1       5.012  26.049  51.039  1.00  0.00    -0.268 OA
HETATM    7  N   UNL     1       6.382  26.897  52.650  1.00  0.00    -0.154 N 
HETATM    8  H   UNL     1       6.148  27.847  52.385  1.00  0.00     0.187 HD
ENDROOT
BRANCH   1   9
HETATM    9  N   UNL     1       7.820  27.794  54.288  1.00  0.00    -0.017 N 
HETATM   10  H   UNL     1       8.780  28.020  54.084  1.00  0.00     0.203 HD
BRANCH   9  11
HETATM   11  C   UNL     1       7.249  28.663  55.202  1.00  0.00     0.742 A 
HETATM   12  N   UNL     1       5.968  29.035  55.071  1.00  0.00    -0.066 NA
HETATM   13  C   UNL     1       5.458  29.874  55.998  1.00  0.00     0.062 A 
HETATM   14  C   UNL     1       4.016  30.247  55.796  1.00  0.00     0.072 C 
HETATM   15  C   UNL     1       6.210  30.365  57.071  1.00  0.00     0.021 A 
HETATM   16  C   UNL     1       7.542  29.931  57.119  1.00  0.00     0.121 A 
HETATM   17  C   UNL     1       5.708  31.241  58.062  1.00  0.00     0.016 A 
HETATM   18  N   UNL     1       8.040  29.089  56.190  1.00  0.00    -0.059 NA
HETATM   19  C   UNL     1       8.355  30.408  58.164  1.00  0.00     0.098 A 
HETATM   20  C   UNL     1       7.847  31.265  59.152  1.00  0.00     0.039 A 
HETATM   21  C   UNL     1       6.524  31.683  59.098  1.00  0.00     0.004 A 
BRANCH  19  22
HETATM   22  O   UNL     1       9.657  29.951  58.171  1.00  0.00    -0.354 OA
HETATM   23  C   UNL     1      10.629  30.778  57.544  1.00  0.00     0.210 C 
ENDBRANCH  19  22
ENDBRANCH   9  11
ENDBRANCH   1   9
BRANCH   3  24
HETATM   24  C   UNL     1       7.457  23.084  53.890  1.00  0.00    -0.006 A 
HETATM   25  C   UNL     1       7.437  22.786  55.264  1.00  0.00     0.017 A 
HETATM   26  C   UNL     1       7.814  21.523  55.730  1.00  0.00     0.043 A 
HETATM   27  C   UNL     1       8.206  20.548  54.822  1.00  0.00     0.116 A 
HETATM   28  F   UNL     1       8.569  19.338  55.267  1.00  0.00    -0.206 F 
HETATM   29  C   UNL     1       8.221  20.809  53.458  1.00  0.00     0.043 A 
HETATM   30  C   UNL     1       7.841  22.071  52.992  1.00  0.00     0.017 A 
ENDBRANCH   3  24
TORSDOF 4
ENDMDL
MODEL 8
REMARK VINA RESULT:      -9.6      5.836      9.385
REMARK  4 active torsions:
REMARK  status: ('A' for Active; 'I' for Inactive)
REMARK    1  A    between atoms: C_4  and  N_5 
REMARK    2  A    between atoms: N_5  and  C_6 
REMARK    3  A    between atoms: C_8  and  C_9 
REMARK    4  A    between atoms: C_23  and  O_24 
ROOT
HETATM    1  C   UNL     1       6.396  26.076  52.225  1.00  0.00     0.722 A 
HETATM    2  N   UNL     1       6.761  24.856  52.497  1.00  0.00    -0.063 NA
HETATM    3  C   UNL     1       7.155  24.558  53.783  1.00  0.00     0.091 A 
HETATM    4  C   UNL     1       7.156  25.448  54.786  1.00  0.00     0.108 A 
HETATM    5  C   UNL     1       6.749  26.823  54.484  1.00  0.00     0.261 A 
HETATM    6  O   UNL     1       6.737  27.689  55.351  1.00  0.00    -0.268 OA
HETATM    7  N   UNL     1       6.396  27.045  53.192  1.00  0.00    -0.154 N 
HETATM    8  H   UNL     1       6.107  27.981  52.932  1.00  0.00     0.187 HD
ENDROOT
BRANCH   1   9
HETATM    9  N   UNL     1       6.005  26.389  50.963  1.00  0.00    -0.017 N 
HETATM   10  H   UNL     1       6.551  26.032  50.196  1.00  0.00     0.203 HD
BRANCH   9  11
HETATM   11  C   UNL     1       4.940  27.169  50.543  1.00  0.00     0.742 A 
HETATM   12  N   UNL     1       4.465  28.144  51.332  1.00  0.00    -0.066 NA
HETATM   13  C   UNL     1       3.433  28.882  50.869  1.00  0.00     0.062 A 
HETATM   14  C   UNL     1       2.953  29.960  51.798  1.00  0.00     0.072 C 
HETATM   15  C   UNL     1       2.848  28.664  49.616  1.00  0.00     0.021 A 
HETATM   16  C   UNL     1       3.403  27.616  48.868  1.00  0.00     0.121 A 
HETATM   17  C   UNL     1       1.770  29.419  49.097  1.00  0.00     0.016 A 
HETATM   18  N   UNL     1       4.436  26.888  49.339  1.00  0.00    -0.059 NA
HETATM   19  C   UNL     1       2.843  27.335  47.608  1.00  0.00     0.098 A 
HETATM   20  C   UNL     1       1.784  28.097  47.093  1.00  0.00     0.039 A 
HETATM   21  C   UNL     1       1.247  29.138  47.840  1.00  0.00     0.004 A 
BRANCH  19  22
HETATM   22  O   UNL     1       3.424  26.298  46.909  1.00  0.00    -0.354 OA
HETATM   23  C   UNL     1       2.781  25.032  46.988  1.00  0.00     0.210 C 
ENDBRANCH  19  22
ENDBRANCH   9  11
ENDBRANCH   1   9
BRANCH   3  24
HETATM   24  C   UNL     1       7.560  23.156  54.060  1.00  0.00    -0.006 A 
HETATM   25  C   UNL     1       7.926  22.314  52.995  1.00  0.00     0.017 A 
HETATM   26  C   UNL     1       8.315  20.992  53.227  1.00  0.00     0.043 A 
HETATM   27  C   UNL     1       8.349  20.506  54.527  1.00  0.00     0.116 A 
HETATM   28  F   UNL     1       8.721  19.239  54.751  1.00  0.00    -0.206 F 
HETATM   29  C   UNL     1       8.008  21.319  55.601  1.00  0.00     0.043 A 
HETATM   30  C   UNL     1       7.621  22.642  55.369  1.00  0.00     0.017 A 
ENDBRANCH   3  24
TORSDOF 4
ENDMDL
MODEL 9
REMARK VINA RESULT:      -9.6      3.768      9.089
REMARK  4 active torsions:
REMARK  status: ('A' for Active; 'I' for Inactive)
REMARK    1  A    between atoms: C_4  and  N_5 
REMARK    2  A    between atoms: N_5  and  C_6 
REMARK    3  A    between atoms: C_8  and  C_9 
REMARK    4  A    between atoms: C_23  and  O_24 
ROOT
HETATM    1  C   UNL     1       6.964  26.942  55.915  1.00  0.00     0.722 A 
HETATM    2  N   UNL     1       7.500  25.931  55.295  1.00  0.00    -0.063 NA
HETATM    3  C   UNL     1       6.993  24.671  55.530  1.00  0.00     0.091 A 
HETATM    4  C   UNL     1       5.954  24.428  56.341  1.00  0.00     0.108 A 
HETATM    5  C   UNL     1       5.350  25.563  57.044  1.00  0.00     0.261 A 
HETATM    6  O   UNL     1       4.404  25.409  57.809  1.00  0.00    -0.268 OA
HETATM    7  N   UNL     1       5.917  26.767  56.779  1.00  0.00    -0.154 N 
HETATM    8  H   UNL     1       5.535  27.585  57.240  1.00  0.00     0.187 HD
ENDROOT
BRANCH   1   9
HETATM    9  N   UNL     1       7.450  28.192  55.697  1.00  0.00    -0.017 N 
HETATM   10  H   UNL     1       7.353  28.583  54.773  1.00  0.00     0.203 HD
BRANCH   9  11
HETATM   11  C   UNL     1       8.100  29.045  56.573  1.00  0.00     0.742 A 
HETATM   12  N   UNL     1       9.439  29.103  56.590  1.00  0.00    -0.066 NA
HETATM   13  C   UNL     1      10.021  29.962  57.455  1.00  0.00     0.062 A 
HETATM   14  C   UNL     1      11.523  29.982  57.420  1.00  0.00     0.072 C 
HETATM   15  C   UNL     1       9.286  30.775  58.324  1.00  0.00     0.021 A 
HETATM   16  C   UNL     1       7.893  30.637  58.244  1.00  0.00     0.121 A 
HETATM   17  C   UNL     1       9.861  31.688  59.240  1.00  0.00     0.016 A 
HETATM   18  N   UNL     1       7.323  29.780  57.372  1.00  0.00    -0.059 NA
HETATM   19  C   UNL     1       7.101  31.415  59.108  1.00  0.00     0.098 A 
HETATM   20  C   UNL     1       7.677  32.328  60.003  1.00  0.00     0.039 A 
HETATM   21  C   UNL     1       9.058  32.462  60.070  1.00  0.00     0.004 A 
BRANCH  19  22
HETATM   22  O   UNL     1       5.737  31.246  58.990  1.00  0.00    -0.354 OA
HETATM   23  C   UNL     1       4.924  32.381  59.258  1.00  0.00     0.210 C 
ENDBRANCH  19  22
ENDBRANCH   9  11
ENDBRANCH   1   9
BRANCH   3  24
HETATM   24  C   UNL     1       7.624  23.540  54.803  1.00  0.00    -0.006 A 
HETATM   25  C   UNL     1       8.555  22.720  55.464  1.00  0.00     0.017 A 
HETATM   26  C   UNL     1       9.160  21.645  54.806  1.00  0.00     0.043 A 
HETATM   27  C   UNL     1       8.831  21.381  53.483  1.00  0.00     0.116 A 
HETATM   28  F   UNL     1       9.412  20.353  52.850  1.00  0.00    -0.206 F 
HETATM   29  C   UNL     1       7.904  22.164  52.808  1.00  0.00     0.043 A 
HETATM   30  C   UNL     1       7.296  23.237  53.468  1.00  0.00     0.017 A 
ENDBRANCH   3  24
TORSDOF 4
ENDMDL
MODEL 10
REMARK VINA RESULT:      -9.6      6.240      9.589
REMARK  4 active torsions:
REMARK  status: ('A' for Active; 'I' for Inactive)
REMARK    1  A    between atoms: C_4  and  N_5 
REMARK    2  A    between atoms: N_5  and  C_6 
REMARK    3  A    between atoms: C_8  and  C_9 
REMARK    4  A    between atoms: C_23  and  O_24 
ROOT
HETATM    1  C   UNL     1       6.046  26.048  52.055  1.00  0.00     0.722 A 
HETATM    2  N   UNL     1       6.592  24.902  52.342  1.00  0.00    -0.063 NA
HETATM    3  C   UNL     1       6.646  24.511  53.662  1.00  0.00     0.091 A 
HETATM    4  C   UNL     1       6.136  25.231  54.672  1.00  0.00     0.108 A 
HETATM    5  C   UNL     1       5.523  26.523  54.353  1.00  0.00     0.261 A 
HETATM    6  O   UNL     1       5.048  27.237  55.229  1.00  0.00    -0.268 OA
HETATM    7  N   UNL     1       5.529  26.850  53.036  1.00  0.00    -0.154 N 
HETATM    8  H   UNL     1       5.116  27.735  52.763  1.00  0.00     0.187 HD
ENDROOT
BRANCH   1   9
HETATM    9  N   UNL     1       5.986  26.452  50.759  1.00  0.00    -0.017 N 
HETATM   10  H   UNL     1       6.848  26.519  50.243  1.00  0.00     0.203 HD
BRANCH   9  11
HETATM   11  C   UNL     1       4.883  26.818  50.006  1.00  0.00     0.742 A 
HETATM   12  N   UNL     1       4.421  26.004  49.045  1.00  0.00    -0.066 NA
HETATM   13  C   UNL     1       3.335  26.403  48.350  1.00  0.00     0.062 A 
HETATM   14  C   UNL     1       2.865  25.443  47.293  1.00  0.00     0.072 C 
HETATM   15  C   UNL     1       2.688  27.621  48.588  1.00  0.00     0.021 A 
HETATM   16  C   UNL     1       3.250  28.411  49.601  1.00  0.00     0.121 A 
HETATM   17  C   UNL     1       1.547  28.070  47.882  1.00  0.00     0.016 A 
HETATM   18  N   UNL     1       4.332  27.999  50.293  1.00  0.00    -0.059 NA
HETATM   19  C   UNL     1       2.655  29.657  49.874  1.00  0.00     0.098 A 
HETATM   20  C   UNL     1       1.516  30.090  49.180  1.00  0.00     0.039 A 
HETATM   21  C   UNL     1       0.964  29.296  48.182  1.00  0.00     0.004 A 
BRANCH  19  22
HETATM   22  O   UNL     1       3.241  30.396  50.880  1.00  0.00    -0.354 OA
HETATM   23  C   UNL     1       3.864  31.617  50.500  1.00  0.00     0.210 C 
ENDBRANCH  19  22
ENDBRANCH   9  11
ENDBRANCH   1   9
BRANCH   3  24
HETATM   24  C   UNL     1       7.270  23.195  53.954  1.00  0.00    -0.006 A 
HETATM   25  C   UNL     1       7.366  22.751  55.286  1.00  0.00     0.017 A 
HETATM   26  C   UNL     1       7.945  21.516  55.590  1.00  0.00     0.043 A 
HETATM   27  C   UNL     1       8.424  20.714  54.564  1.00  0.00     0.116 A 
HETATM   28  F   UNL     1       8.980  19.530  54.854  1.00  0.00    -0.206 F 
HETATM   29  C   UNL     1       8.329  21.118  53.238  1.00  0.00     0.043 A 
HETATM   30  C   UNL     1       7.748  22.353  52.933  1.00  0.00     0.017 A 
ENDBRANCH   3  24
TORSDOF 4
ENDMDL
