MODEL 1
REMARK VINA RESULT:      -9.7      0.000      0.000
REMARK  11 active torsions:
REMARK  status: ('A' for Active; 'I' for Inactive)
REMARK    1  A    between atoms: O_2  and  C_3 
REMARK    2  A    between atoms: C_6  and  C_7 
REMARK    3  A    between atoms: C_7  and  N_8 
REMARK    4  A    between atoms: N_8  and  C_9 
REMARK    5  A    between atoms: N_8  and  C_22 
REMARK    6  A    between atoms: C_9  and  N_10 
REMARK    7  A    between atoms: N_10  and  C_11 
REMARK    8  A    between atoms: C_11  and  C_12 
REMARK    9  A    between atoms: C_12  and  C_13 
REMARK   10  A    between atoms: C_13  and  N_14 
REMARK   11  A    between atoms: C_22  and  C_23 
ROOT
HETATM    1  N   UNL     1       6.497  28.382  55.747  1.00  0.00    -0.350 N 
ENDROOT
BRANCH   1   2
HETATM    2  C   UNL     1       7.976  28.457  55.729  1.00  0.00     0.164 C 
BRANCH   2   3
HETATM    3  C   UNL     1       8.621  29.370  56.745  1.00  0.00    -0.040 A 
HETATM    4  C   UNL     1       9.936  29.832  56.602  1.00  0.00     0.011 A 
HETATM    5  C   UNL     1      10.465  30.745  57.522  1.00  0.00     0.037 A 
HETATM    6  C   UNL     1       9.680  31.207  58.580  1.00  0.00     0.068 A 
HETATM    7  C   UNL     1       8.382  30.736  58.743  1.00  0.00     0.037 A 
HETATM    8  C   UNL     1       7.849  29.838  57.822  1.00  0.00     0.011 A 
BRANCH   6   9
HETATM    9  O   UNL     1      10.125  32.086  59.527  1.00  0.00    -0.356 OA
HETATM   10  C   UNL     1       9.146  32.395  60.517  1.00  0.00     0.210 C 
ENDBRANCH   6   9
ENDBRANCH   2   3
ENDBRANCH   1   2
BRANCH   1  11
HETATM   11  C   UNL     1       5.738  28.862  54.660  1.00  0.00     0.170 C 
HETATM   12  S   UNL     1       4.221  29.582  54.765  1.00  0.00    -0.041 SA
BRANCH  11  13
HETATM   13  N   UNL     1       6.369  28.632  53.446  1.00  0.00    -0.367 N 
HETATM   14  H   UNL     1       7.369  28.790  53.447  1.00  0.00     0.161 HD
BRANCH  13  15
HETATM   15  C   UNL     1       5.743  28.609  52.131  1.00  0.00     0.123 C 
BRANCH  15  16
HETATM   16  C   UNL     1       5.171  27.239  51.780  1.00  0.00     0.047 C 
BRANCH  16  17
HETATM   17  C   UNL     1       5.159  26.881  50.296  1.00  0.00     0.236 C 
BRANCH  17  18
HETATM   18  N   UNL     1       3.787  26.858  49.676  1.00  0.00    -0.067 N 
HETATM   19  H   UNL     1       3.176  26.297  50.297  1.00  0.00     0.280 HD
HETATM   20  C   UNL     1       3.150  28.227  49.492  1.00  0.00     0.261 C 
HETATM   21  C   UNL     1       1.783  28.083  48.814  1.00  0.00     0.195 C 
HETATM   22  O   UNL     1       1.903  27.410  47.556  1.00  0.00    -0.388 OA
HETATM   23  C   UNL     1       2.406  26.080  47.725  1.00  0.00     0.195 C 
HETATM   24  C   UNL     1       3.808  26.103  48.344  1.00  0.00     0.261 C 
ENDBRANCH  17  18
ENDBRANCH  16  17
ENDBRANCH  15  16
ENDBRANCH  13  15
ENDBRANCH  11  13
ENDBRANCH   1  11
BRANCH   1  25
HETATM   25  C   UNL     1       5.979  27.154  56.417  1.00  0.00     0.169 C 
BRANCH  25  26
HETATM   26  C   UNL     1       6.937  26.014  56.177  1.00  0.00     0.029 C 
HETATM   27  C   UNL     1       7.671  25.477  57.364  1.00  0.00     0.253 C 
HETATM   28  O   UNL     1       7.687  26.075  58.437  1.00  0.00    -0.268 OA
HETATM   29  N   UNL     1       8.289  24.265  57.214  1.00  0.00    -0.322 N 
HETATM   30  C   UNL     1       8.286  23.535  56.019  1.00  0.00     0.048 A 
HETATM   31  H   UNL     1       8.734  23.885  58.039  1.00  0.00     0.169 HD
HETATM   32  C   UNL     1       7.714  24.114  54.866  1.00  0.00    -0.006 A 
HETATM   33  C   UNL     1       8.793  22.236  56.000  1.00  0.00     0.070 A 
HETATM   34  C   UNL     1       7.636  23.382  53.676  1.00  0.00     0.053 A 
HETATM   35  C   UNL     1       7.077  25.426  54.975  1.00  0.00     0.028 C 
HETATM   36  C   UNL     1       8.104  22.087  53.695  1.00  0.00     0.106 A 
HETATM   37  C   UNL     1       8.663  21.530  54.823  1.00  0.00     0.107 A 
HETATM   38  O   UNL     1       8.034  21.208  52.661  1.00  0.00    -0.323 OA
HETATM   39  O   UNL     1       9.015  20.230  54.634  1.00  0.00    -0.323 OA
HETATM   40  C   UNL     1       8.555  20.014  53.282  1.00  0.00     0.352 A 
ENDBRANCH  25  26
ENDBRANCH   1  25
TORSDOF 11
ENDMDL
MODEL 2
REMARK VINA RESULT:      -9.6      1.533      7.832
REMARK  11 active torsions:
REMARK  status: ('A' for Active; 'I' for Inactive)
REMARK    1  A    between atoms: O_2  and  C_3 
REMARK    2  A    between atoms: C_6  and  C_7 
REMARK    3  A    between atoms: C_7  and  N_8 
REMARK    4  A    between atoms: N_8  and  C_9 
REMARK    5  A    between atoms: N_8  and  C_22 
REMARK    6  A    between atoms: C_9  and  N_10 
REMARK    7  A    between atoms: N_10  and  C_11 
REMARK    8  A    between atoms: C_11  and  C_12 
REMARK    9  A    between atoms: C_12  and  C_13 
REMARK   10  A    between atoms: C_13  and  N_14 
REMARK   11  A    between atoms: C_22  and  C_23 
ROOT
HETATM    1  N   UNL     1       5.248  28.317  53.205  1.00  0.00    -0.350 N 
ENDROOT
BRANCH   1   2
HETATM    2  C   UNL     1       5.655  28.517  51.795  1.00  0.00     0.164 C 
BRANCH   2   3
HETATM    3  C   UNL     1       4.693  28.033  50.737  1.00  0.00    -0.040 A 
HETATM    4  C   UNL     1       3.587  28.791  50.333  1.00  0.00     0.011 A 
HETATM    5  C   UNL     1       2.770  28.343  49.287  1.00  0.00     0.037 A 
HETATM    6  C   UNL     1       3.063  27.144  48.636  1.00  0.00     0.068 A 
HETATM    7  C   UNL     1       4.146  26.373  49.045  1.00  0.00     0.037 A 
HETATM    8  C   UNL     1       4.966  26.823  50.076  1.00  0.00     0.011 A 
BRANCH   6   9
HETATM    9  O   UNL     1       2.309  26.631  47.618  1.00  0.00    -0.356 OA
HETATM   10  C   UNL     1       0.962  27.102  47.619  1.00  0.00     0.210 C 
ENDBRANCH   6   9
ENDBRANCH   2   3
ENDBRANCH   1   2
BRANCH   1  11
HETATM   11  C   UNL     1       4.781  29.398  53.981  1.00  0.00     0.170 C 
HETATM   12  S   UNL     1       3.540  30.449  53.550  1.00  0.00    -0.041 SA
BRANCH  11  13
HETATM   13  N   UNL     1       5.502  29.541  55.157  1.00  0.00    -0.367 N 
HETATM   14  H   UNL     1       6.326  28.957  55.229  1.00  0.00     0.161 HD
BRANCH  13  15
HETATM   15  C   UNL     1       5.011  30.083  56.417  1.00  0.00     0.123 C 
BRANCH  15  16
HETATM   16  C   UNL     1       6.133  30.352  57.415  1.00  0.00     0.047 C 
BRANCH  16  17
HETATM   17  C   UNL     1       7.150  29.228  57.595  1.00  0.00     0.236 C 
BRANCH  17  18
HETATM   18  N   UNL     1       8.530  29.697  57.973  1.00  0.00    -0.067 N 
HETATM   19  H   UNL     1       8.872  29.077  58.729  1.00  0.00     0.280 HD
HETATM   20  C   UNL     1       9.545  29.666  56.840  1.00  0.00     0.261 C 
HETATM   21  C   UNL     1      10.894  30.206  57.328  1.00  0.00     0.195 C 
HETATM   22  O   UNL     1      10.757  31.533  57.846  1.00  0.00    -0.388 OA
HETATM   23  C   UNL     1       9.884  31.559  58.981  1.00  0.00     0.195 C 
HETATM   24  C   UNL     1       8.476  31.096  58.594  1.00  0.00     0.261 C 
ENDBRANCH  17  18
ENDBRANCH  16  17
ENDBRANCH  15  16
ENDBRANCH  13  15
ENDBRANCH  11  13
ENDBRANCH   1  11
BRANCH   1  25
HETATM   25  C   UNL     1       4.583  27.003  53.444  1.00  0.00     0.169 C 
BRANCH  25  26
HETATM   26  C   UNL     1       5.592  26.027  53.994  1.00  0.00     0.029 C 
HETATM   27  C   UNL     1       5.662  25.882  55.481  1.00  0.00     0.253 C 
HETATM   28  O   UNL     1       5.107  26.679  56.234  1.00  0.00    -0.268 OA
HETATM   29  N   UNL     1       6.336  24.794  55.967  1.00  0.00    -0.322 N 
HETATM   30  C   UNL     1       6.970  23.847  55.153  1.00  0.00     0.048 A 
HETATM   31  H   UNL     1       6.329  24.675  56.971  1.00  0.00     0.169 HD
HETATM   32  C   UNL     1       7.021  24.069  53.759  1.00  0.00    -0.006 A 
HETATM   33  C   UNL     1       7.488  22.682  55.719  1.00  0.00     0.070 A 
HETATM   34  C   UNL     1       7.588  23.107  52.914  1.00  0.00     0.053 A 
HETATM   35  C   UNL     1       6.347  25.241  53.204  1.00  0.00     0.028 C 
HETATM   36  C   UNL     1       8.053  21.947  53.494  1.00  0.00     0.106 A 
HETATM   37  C   UNL     1       8.002  21.740  54.853  1.00  0.00     0.107 A 
HETATM   38  O   UNL     1       8.557  20.878  52.824  1.00  0.00    -0.323 OA
HETATM   39  O   UNL     1       8.470  20.512  55.205  1.00  0.00    -0.323 OA
HETATM   40  C   UNL     1       8.760  19.947  53.908  1.00  0.00     0.352 A 
ENDBRANCH  25  26
ENDBRANCH   1  25
TORSDOF 11
ENDMDL
MODEL 3
REMARK VINA RESULT:      -9.4      1.777      7.727
REMARK  11 active torsions:
REMARK  status: ('A' for Active; 'I' for Inactive)
REMARK    1  A    between atoms: O_2  and  C_3 
REMARK    2  A    between atoms: C_6  and  C_7 
REMARK    3  A    between atoms: C_7  and  N_8 
REMARK    4  A    between atoms: N_8  and  C_9 
REMARK    5  A    between atoms: N_8  and  C_22 
REMARK    6  A    between atoms: C_9  and  N_10 
REMARK    7  A    between atoms: N_10  and  C_11 
REMARK    8  A    between atoms: C_11  and  C_12 
REMARK    9  A    between atoms: C_12  and  C_13 
REMARK   10  A    between atoms: C_13  and  N_14 
REMARK   11  A    between atoms: C_22  and  C_23 
ROOT
HETATM    1  N   UNL     1       5.781  28.062  55.658  1.00  0.00    -0.350 N 
ENDROOT
BRANCH   1   2
HETATM    2  C   UNL     1       4.504  27.971  54.914  1.00  0.00     0.164 C 
BRANCH   2   3
HETATM    3  C   UNL     1       4.602  27.774  53.420  1.00  0.00    -0.040 A 
HETATM    4  C   UNL     1       4.610  28.853  52.526  1.00  0.00     0.011 A 
HETATM    5  C   UNL     1       4.790  28.630  51.156  1.00  0.00     0.037 A 
HETATM    6  C   UNL     1       4.973  27.332  50.676  1.00  0.00     0.068 A 
HETATM    7  C   UNL     1       4.942  26.253  51.553  1.00  0.00     0.037 A 
HETATM    8  C   UNL     1       4.776  26.473  52.918  1.00  0.00     0.011 A 
BRANCH   6   9
HETATM    9  O   UNL     1       5.140  27.029  49.354  1.00  0.00    -0.356 OA
HETATM   10  C   UNL     1       3.953  26.539  48.732  1.00  0.00     0.210 C 
ENDBRANCH   6   9
ENDBRANCH   2   3
ENDBRANCH   1   2
BRANCH   1  11
HETATM   11  C   UNL     1       6.416  29.307  55.852  1.00  0.00     0.170 C 
HETATM   12  S   UNL     1       5.667  30.715  56.385  1.00  0.00    -0.041 SA
BRANCH  11  13
HETATM   13  N   UNL     1       7.757  29.264  55.502  1.00  0.00    -0.367 N 
HETATM   14  H   UNL     1       7.948  28.901  54.577  1.00  0.00     0.161 HD
BRANCH  13  15
HETATM   15  C   UNL     1       8.893  29.272  56.414  1.00  0.00     0.123 C 
BRANCH  15  16
HETATM   16  C   UNL     1       8.468  29.279  57.879  1.00  0.00     0.047 C 
BRANCH  16  17
HETATM   17  C   UNL     1       8.881  30.505  58.689  1.00  0.00     0.236 C 
BRANCH  17  18
HETATM   18  N   UNL     1       8.242  30.593  60.050  1.00  0.00    -0.067 N 
HETATM   19  H   UNL     1       7.609  29.778  60.148  1.00  0.00     0.280 HD
HETATM   20  C   UNL     1       9.221  30.577  61.214  1.00  0.00     0.261 C 
HETATM   21  C   UNL     1       8.464  30.717  62.539  1.00  0.00     0.195 C 
HETATM   22  O   UNL     1       7.679  31.914  62.557  1.00  0.00    -0.388 OA
HETATM   23  C   UNL     1       6.683  31.896  61.528  1.00  0.00     0.195 C 
HETATM   24  C   UNL     1       7.333  31.821  60.143  1.00  0.00     0.261 C 
ENDBRANCH  17  18
ENDBRANCH  16  17
ENDBRANCH  15  16
ENDBRANCH  13  15
ENDBRANCH  11  13
ENDBRANCH   1  11
BRANCH   1  25
HETATM   25  C   UNL     1       5.870  27.097  56.793  1.00  0.00     0.169 C 
BRANCH  25  26
HETATM   26  C   UNL     1       6.852  26.007  56.444  1.00  0.00     0.029 C 
HETATM   27  C   UNL     1       7.674  25.445  57.560  1.00  0.00     0.253 C 
HETATM   28  O   UNL     1       7.733  25.994  58.658  1.00  0.00    -0.268 OA
HETATM   29  N   UNL     1       8.325  24.266  57.318  1.00  0.00    -0.322 N 
HETATM   30  C   UNL     1       8.276  23.591  56.092  1.00  0.00     0.048 A 
HETATM   31  H   UNL     1       8.831  23.866  58.096  1.00  0.00     0.169 HD
HETATM   32  C   UNL     1       7.616  24.199  55.002  1.00  0.00    -0.006 A 
HETATM   33  C   UNL     1       8.827  22.314  55.982  1.00  0.00     0.070 A 
HETATM   34  C   UNL     1       7.493  23.519  53.785  1.00  0.00     0.053 A 
HETATM   35  C   UNL     1       6.941  25.480  55.209  1.00  0.00     0.028 C 
HETATM   36  C   UNL     1       8.008  22.243  53.716  1.00  0.00     0.106 A 
HETATM   37  C   UNL     1       8.652  21.657  54.782  1.00  0.00     0.107 A 
HETATM   38  O   UNL     1       7.907  21.409  52.648  1.00  0.00    -0.323 OA
HETATM   39  O   UNL     1       9.038  20.382  54.512  1.00  0.00    -0.323 OA
HETATM   40  C   UNL     1       8.506  20.209  53.180  1.00  0.00     0.352 A 
ENDBRANCH  25  26
ENDBRANCH   1  25
TORSDOF 11
ENDMDL
MODEL 4
REMARK VINA RESULT:      -9.2      2.047      7.050
REMARK  11 active torsions:
REMARK  status: ('A' for Active; 'I' for Inactive)
REMARK    1  A    between atoms: O_2  and  C_3 
REMARK    2  A    between atoms: C_6  and  C_7 
REMARK    3  A    between atoms: C_7  and  N_8 
REMARK    4  A    between atoms: N_8  and  C_9 
REMARK    5  A    between atoms: N_8  and  C_22 
REMARK    6  A    between atoms: C_9  and  N_10 
REMARK    7  A    between atoms: N_10  and  C_11 
REMARK    8  A    between atoms: C_11  and  C_12 
REMARK    9  A    between atoms: C_12  and  C_13 
REMARK   10  A    between atoms: C_13  and  N_14 
REMARK   11  A    between atoms: C_22  and  C_23 
ROOT
HETATM    1  N   UNL     1       5.956  26.537  54.063  1.00  0.00    -0.350 N 
ENDROOT
BRANCH   1   2
HETATM    2  C   UNL     1       7.339  26.144  53.705  1.00  0.00     0.164 C 
BRANCH   2   3
HETATM    3  C   UNL     1       7.860  24.866  54.316  1.00  0.00    -0.040 A 
HETATM    4  C   UNL     1       8.126  24.749  55.686  1.00  0.00     0.011 A 
HETATM    5  C   UNL     1       8.526  23.520  56.224  1.00  0.00     0.037 A 
HETATM    6  C   UNL     1       8.650  22.402  55.398  1.00  0.00     0.068 A 
HETATM    7  C   UNL     1       8.411  22.513  54.032  1.00  0.00     0.037 A 
HETATM    8  C   UNL     1       8.001  23.732  53.498  1.00  0.00     0.011 A 
BRANCH   6   9
HETATM    9  O   UNL     1       9.048  21.172  55.841  1.00  0.00    -0.356 OA
HETATM   10  C   UNL     1       7.961  20.290  56.114  1.00  0.00     0.210 C 
ENDBRANCH   6   9
ENDBRANCH   2   3
ENDBRANCH   1   2
BRANCH   1  11
HETATM   11  C   UNL     1       4.866  26.153  53.253  1.00  0.00     0.170 C 
HETATM   12  S   UNL     1       4.762  24.733  52.359  1.00  0.00    -0.041 SA
BRANCH  11  13
HETATM   13  N   UNL     1       3.872  27.120  53.233  1.00  0.00    -0.367 N 
HETATM   14  H   UNL     1       2.952  26.795  53.503  1.00  0.00     0.161 HD
BRANCH  13  15
HETATM   15  C   UNL     1       3.897  28.377  52.497  1.00  0.00     0.123 C 
BRANCH  15  16
HETATM   16  C   UNL     1       4.276  28.189  51.031  1.00  0.00     0.047 C 
BRANCH  16  17
HETATM   17  C   UNL     1       3.225  28.615  50.009  1.00  0.00     0.236 C 
BRANCH  17  18
HETATM   18  N   UNL     1       2.754  27.506  49.107  1.00  0.00    -0.067 N 
HETATM   19  H   UNL     1       2.004  26.996  49.608  1.00  0.00     0.280 HD
HETATM   20  C   UNL     1       2.199  27.968  47.768  1.00  0.00     0.261 C 
HETATM   21  C   UNL     1       1.795  26.757  46.920  1.00  0.00     0.195 C 
HETATM   22  O   UNL     1       2.905  25.873  46.728  1.00  0.00    -0.388 OA
HETATM   23  C   UNL     1       3.372  25.349  47.975  1.00  0.00     0.195 C 
HETATM   24  C   UNL     1       3.865  26.475  48.889  1.00  0.00     0.261 C 
ENDBRANCH  17  18
ENDBRANCH  16  17
ENDBRANCH  15  16
ENDBRANCH  13  15
ENDBRANCH  11  13
ENDBRANCH   1  11
BRANCH   1  25
HETATM   25  C   UNL     1       5.709  26.544  55.534  1.00  0.00     0.169 C 
BRANCH  25  26
HETATM   26  C   UNL     1       5.996  27.921  56.080  1.00  0.00     0.029 C 
HETATM   27  C   UNL     1       4.822  28.811  56.337  1.00  0.00     0.253 C 
HETATM   28  O   UNL     1       3.702  28.543  55.908  1.00  0.00    -0.268 OA
HETATM   29  N   UNL     1       5.042  29.919  57.110  1.00  0.00    -0.322 N 
HETATM   30  C   UNL     1       6.294  30.260  57.638  1.00  0.00     0.048 A 
HETATM   31  H   UNL     1       4.231  30.483  57.326  1.00  0.00     0.169 HD
HETATM   32  C   UNL     1       7.422  29.494  57.273  1.00  0.00    -0.006 A 
HETATM   33  C   UNL     1       6.398  31.308  58.553  1.00  0.00     0.070 A 
HETATM   34  C   UNL     1       8.673  29.770  57.837  1.00  0.00     0.053 A 
HETATM   35  C   UNL     1       7.235  28.325  56.415  1.00  0.00     0.028 C 
HETATM   36  C   UNL     1       8.740  30.781  58.770  1.00  0.00     0.106 A 
HETATM   37  C   UNL     1       7.636  31.525  59.119  1.00  0.00     0.107 A 
HETATM   38  O   UNL     1       9.847  31.131  59.475  1.00  0.00    -0.323 OA
HETATM   39  O   UNL     1       7.916  32.437  60.088  1.00  0.00    -0.323 OA
HETATM   40  C   UNL     1       9.303  32.138  60.355  1.00  0.00     0.352 A 
ENDBRANCH  25  26
ENDBRANCH   1  25
TORSDOF 11
ENDMDL
MODEL 5
REMARK VINA RESULT:      -9.1      2.585      7.422
REMARK  11 active torsions:
REMARK  status: ('A' for Active; 'I' for Inactive)
REMARK    1  A    between atoms: O_2  and  C_3 
REMARK    2  A    between atoms: C_6  and  C_7 
REMARK    3  A    between atoms: C_7  and  N_8 
REMARK    4  A    between atoms: N_8  and  C_9 
REMARK    5  A    between atoms: N_8  and  C_22 
REMARK    6  A    between atoms: C_9  and  N_10 
REMARK    7  A    between atoms: N_10  and  C_11 
REMARK    8  A    between atoms: C_11  and  C_12 
REMARK    9  A    between atoms: C_12  and  C_13 
REMARK   10  A    between atoms: C_13  and  N_14 
REMARK   11  A    between atoms: C_22  and  C_23 
ROOT
HETATM    1  N   UNL     1       6.548  28.437  56.027  1.00  0.00    -0.350 N 
ENDROOT
BRANCH   1   2
HETATM    2  C   UNL     1       5.500  29.290  55.420  1.00  0.00     0.164 C 
BRANCH   2   3
HETATM    3  C   UNL     1       5.112  28.977  53.995  1.00  0.00    -0.040 A 
HETATM    4  C   UNL     1       5.988  28.339  53.107  1.00  0.00     0.011 A 
HETATM    5  C   UNL     1       5.557  27.989  51.822  1.00  0.00     0.037 A 
HETATM    6  C   UNL     1       4.248  28.266  51.424  1.00  0.00     0.068 A 
HETATM    7  C   UNL     1       3.378  28.919  52.289  1.00  0.00     0.037 A 
HETATM    8  C   UNL     1       3.800  29.256  53.573  1.00  0.00     0.011 A 
BRANCH   6   9
HETATM    9  O   UNL     1       3.755  27.970  50.184  1.00  0.00    -0.356 OA
HETATM   10  C   UNL     1       4.555  27.032  49.466  1.00  0.00     0.210 C 
ENDBRANCH   6   9
ENDBRANCH   2   3
ENDBRANCH   1   2
BRANCH   1  11
HETATM   11  C   UNL     1       7.648  29.013  56.695  1.00  0.00     0.170 C 
HETATM   12  S   UNL     1       9.140  29.365  56.004  1.00  0.00    -0.041 SA
BRANCH  11  13
HETATM   13  N   UNL     1       7.382  29.228  58.040  1.00  0.00    -0.367 N 
HETATM   14  H   UNL     1       6.422  29.070  58.317  1.00  0.00     0.161 HD
BRANCH  13  15
HETATM   15  C   UNL     1       8.175  30.025  58.966  1.00  0.00     0.123 C 
BRANCH  15  16
HETATM   16  C   UNL     1       7.640  31.444  59.124  1.00  0.00     0.047 C 
BRANCH  16  17
HETATM   17  C   UNL     1       7.215  31.844  60.534  1.00  0.00     0.236 C 
BRANCH  17  18
HETATM   18  N   UNL     1       5.725  31.847  60.755  1.00  0.00    -0.067 N 
HETATM   19  H   UNL     1       5.438  30.870  60.948  1.00  0.00     0.280 HD
HETATM   20  C   UNL     1       5.256  32.717  61.912  1.00  0.00     0.261 C 
HETATM   21  C   UNL     1       3.727  32.678  62.011  1.00  0.00     0.195 C 
HETATM   22  O   UNL     1       3.123  33.102  60.784  1.00  0.00    -0.388 OA
HETATM   23  C   UNL     1       3.474  32.229  59.705  1.00  0.00     0.195 C 
HETATM   24  C   UNL     1       4.988  32.236  59.470  1.00  0.00     0.261 C 
ENDBRANCH  17  18
ENDBRANCH  16  17
ENDBRANCH  15  16
ENDBRANCH  13  15
ENDBRANCH  11  13
ENDBRANCH   1  11
BRANCH   1  25
HETATM   25  C   UNL     1       6.011  27.175  56.615  1.00  0.00     0.169 C 
BRANCH  25  26
HETATM   26  C   UNL     1       6.963  26.044  56.320  1.00  0.00     0.029 C 
HETATM   27  C   UNL     1       7.738  25.486  57.471  1.00  0.00     0.253 C 
HETATM   28  O   UNL     1       7.787  26.062  58.555  1.00  0.00    -0.268 OA
HETATM   29  N   UNL     1       8.354  24.279  57.276  1.00  0.00    -0.322 N 
HETATM   30  C   UNL     1       8.314  23.573  56.068  1.00  0.00     0.048 A 
HETATM   31  H   UNL     1       8.827  23.884  58.078  1.00  0.00     0.169 HD
HETATM   32  C   UNL     1       7.702  24.174  54.946  1.00  0.00    -0.006 A 
HETATM   33  C   UNL     1       8.823  22.276  56.005  1.00  0.00     0.070 A 
HETATM   34  C   UNL     1       7.587  23.465  53.744  1.00  0.00     0.053 A 
HETATM   35  C   UNL     1       7.066  25.481  55.102  1.00  0.00     0.028 C 
HETATM   36  C   UNL     1       8.059  22.172  53.722  1.00  0.00     0.106 A 
HETATM   37  C   UNL     1       8.656  21.594  54.819  1.00  0.00     0.107 A 
HETATM   38  O   UNL     1       7.957  21.313  52.673  1.00  0.00    -0.323 OA
HETATM   39  O   UNL     1       9.005  20.299  54.593  1.00  0.00    -0.323 OA
HETATM   40  C   UNL     1       8.502  20.109  53.252  1.00  0.00     0.352 A 
ENDBRANCH  25  26
ENDBRANCH   1  25
TORSDOF 11
ENDMDL
MODEL 6
REMARK VINA RESULT:      -9.1      2.178      9.439
REMARK  11 active torsions:
REMARK  status: ('A' for Active; 'I' for Inactive)
REMARK    1  A    between atoms: O_2  and  C_3 
REMARK    2  A    between atoms: C_6  and  C_7 
REMARK    3  A    between atoms: C_7  and  N_8 
REMARK    4  A    between atoms: N_8  and  C_9 
REMARK    5  A    between atoms: N_8  and  C_22 
REMARK    6  A    between atoms: C_9  and  N_10 
REMARK    7  A    between atoms: N_10  and  C_11 
REMARK    8  A    between atoms: C_11  and  C_12 
REMARK    9  A    between atoms: C_12  and  C_13 
REMARK   10  A    between atoms: C_13  and  N_14 
REMARK   11  A    between atoms: C_22  and  C_23 
ROOT
HETATM    1  N   UNL     1       6.265  26.935  55.081  1.00  0.00    -0.350 N 
ENDROOT
BRANCH   1   2
HETATM    2  C   UNL     1       7.419  26.412  54.314  1.00  0.00     0.164 C 
BRANCH   2   3
HETATM    3  C   UNL     1       7.650  24.921  54.370  1.00  0.00    -0.040 A 
HETATM    4  C   UNL     1       7.441  24.178  55.538  1.00  0.00     0.011 A 
HETATM    5  C   UNL     1       7.583  22.785  55.522  1.00  0.00     0.037 A 
HETATM    6  C   UNL     1       7.924  22.130  54.338  1.00  0.00     0.068 A 
HETATM    7  C   UNL     1       8.157  22.861  53.178  1.00  0.00     0.037 A 
HETATM    8  C   UNL     1       8.003  24.245  53.189  1.00  0.00     0.011 A 
BRANCH   6   9
HETATM    9  O   UNL     1       8.096  20.778  54.242  1.00  0.00    -0.356 OA
HETATM   10  C   UNL     1       8.286  20.326  52.902  1.00  0.00     0.210 C 
ENDBRANCH   6   9
ENDBRANCH   2   3
ENDBRANCH   1   2
BRANCH   1  11
HETATM   11  C   UNL     1       6.389  28.105  55.861  1.00  0.00     0.170 C 
HETATM   12  S   UNL     1       5.273  29.362  55.925  1.00  0.00    -0.041 SA
BRANCH  11  13
HETATM   13  N   UNL     1       7.586  28.136  56.560  1.00  0.00    -0.367 N 
HETATM   14  H   UNL     1       7.618  27.547  57.383  1.00  0.00     0.161 HD
BRANCH  13  15
HETATM   15  C   UNL     1       8.598  29.182  56.503  1.00  0.00     0.123 C 
BRANCH  15  16
HETATM   16  C   UNL     1       8.857  29.820  57.864  1.00  0.00     0.047 C 
BRANCH  16  17
HETATM   17  C   UNL     1       7.667  30.530  58.506  1.00  0.00     0.236 C 
BRANCH  17  18
HETATM   18  N   UNL     1       7.718  30.586  60.011  1.00  0.00    -0.067 N 
HETATM   19  H   UNL     1       7.137  29.807  60.370  1.00  0.00     0.280 HD
HETATM   20  C   UNL     1       9.112  30.450  60.605  1.00  0.00     0.261 C 
HETATM   21  C   UNL     1       9.046  30.568  62.132  1.00  0.00     0.195 C 
HETATM   22  O   UNL     1       8.448  31.808  62.525  1.00  0.00    -0.388 OA
HETATM   23  C   UNL     1       7.098  31.904  62.059  1.00  0.00     0.195 C 
HETATM   24  C   UNL     1       7.046  31.861  60.528  1.00  0.00     0.261 C 
ENDBRANCH  17  18
ENDBRANCH  16  17
ENDBRANCH  15  16
ENDBRANCH  13  15
ENDBRANCH  11  13
ENDBRANCH   1  11
BRANCH   1  25
HETATM   25  C   UNL     1       4.961  26.749  54.381  1.00  0.00     0.169 C 
BRANCH  25  26
HETATM   26  C   UNL     1       5.167  26.905  52.895  1.00  0.00     0.029 C 
HETATM   27  C   UNL     1       4.851  25.724  52.034  1.00  0.00     0.253 C 
HETATM   28  O   UNL     1       4.665  24.608  52.513  1.00  0.00    -0.268 OA
HETATM   29  N   UNL     1       4.734  25.950  50.690  1.00  0.00    -0.322 N 
HETATM   30  C   UNL     1       4.918  27.205  50.095  1.00  0.00     0.048 A 
HETATM   31  H   UNL     1       4.465  25.157  50.124  1.00  0.00     0.169 HD
HETATM   32  C   UNL     1       5.355  28.283  50.896  1.00  0.00    -0.006 A 
HETATM   33  C   UNL     1       4.615  27.384  48.745  1.00  0.00     0.070 A 
HETATM   34  C   UNL     1       5.482  29.563  50.344  1.00  0.00     0.053 A 
HETATM   35  C   UNL     1       5.530  28.072  52.332  1.00  0.00     0.028 C 
HETATM   36  C   UNL     1       5.136  29.721  49.020  1.00  0.00     0.106 A 
HETATM   37  C   UNL     1       4.712  28.665  48.246  1.00  0.00     0.107 A 
HETATM   38  O   UNL     1       5.118  30.900  48.345  1.00  0.00    -0.323 OA
HETATM   39  O   UNL     1       4.379  29.052  46.986  1.00  0.00    -0.323 OA
HETATM   40  C   UNL     1       4.578  30.480  47.075  1.00  0.00     0.352 A 
ENDBRANCH  25  26
ENDBRANCH   1  25
TORSDOF 11
ENDMDL
MODEL 7
REMARK VINA RESULT:      -8.8      2.962      9.394
REMARK  11 active torsions:
REMARK  status: ('A' for Active; 'I' for Inactive)
REMARK    1  A    between atoms: O_2  and  C_3 
REMARK    2  A    between atoms: C_6  and  C_7 
REMARK    3  A    between atoms: C_7  and  N_8 
REMARK    4  A    between atoms: N_8  and  C_9 
REMARK    5  A    between atoms: N_8  and  C_22 
REMARK    6  A    between atoms: C_9  and  N_10 
REMARK    7  A    between atoms: N_10  and  C_11 
REMARK    8  A    between atoms: C_11  and  C_12 
REMARK    9  A    between atoms: C_12  and  C_13 
REMARK   10  A    between atoms: C_13  and  N_14 
REMARK   11  A    between atoms: C_22  and  C_23 
ROOT
HETATM    1  N   UNL     1       6.460  28.675  57.316  1.00  0.00    -0.350 N 
ENDROOT
BRANCH   1   2
HETATM    2  C   UNL     1       5.263  27.953  56.826  1.00  0.00     0.164 C 
BRANCH   2   3
HETATM    3  C   UNL     1       5.081  27.880  55.329  1.00  0.00    -0.040 A 
HETATM    4  C   UNL     1       5.866  27.044  54.524  1.00  0.00     0.011 A 
HETATM    5  C   UNL     1       5.605  26.942  53.152  1.00  0.00     0.037 A 
HETATM    6  C   UNL     1       4.556  27.665  52.583  1.00  0.00     0.068 A 
HETATM    7  C   UNL     1       3.786  28.515  53.370  1.00  0.00     0.037 A 
HETATM    8  C   UNL     1       4.035  28.608  54.737  1.00  0.00     0.011 A 
BRANCH   6   9
HETATM    9  O   UNL     1       4.247  27.632  51.252  1.00  0.00    -0.356 OA
HETATM   10  C   UNL     1       4.862  28.677  50.502  1.00  0.00     0.210 C 
ENDBRANCH   6   9
ENDBRANCH   2   3
ENDBRANCH   1   2
BRANCH   1  11
HETATM   11  C   UNL     1       7.699  28.014  57.441  1.00  0.00     0.170 C 
HETATM   12  S   UNL     1       9.209  28.705  57.176  1.00  0.00    -0.041 SA
BRANCH  11  13
HETATM   13  N   UNL     1       7.541  26.676  57.773  1.00  0.00    -0.367 N 
HETATM   14  H   UNL     1       7.049  26.505  58.641  1.00  0.00     0.161 HD
BRANCH  13  15
HETATM   15  C   UNL     1       8.329  25.558  57.272  1.00  0.00     0.123 C 
BRANCH  15  16
HETATM   16  C   UNL     1       7.463  24.458  56.666  1.00  0.00     0.047 C 
BRANCH  16  17
HETATM   17  C   UNL     1       7.820  24.036  55.242  1.00  0.00     0.236 C 
BRANCH  17  18
HETATM   18  N   UNL     1       7.648  22.565  54.971  1.00  0.00    -0.067 N 
HETATM   19  H   UNL     1       6.642  22.344  55.087  1.00  0.00     0.280 HD
HETATM   20  C   UNL     1       8.075  22.121  53.580  1.00  0.00     0.261 C 
HETATM   21  C   UNL     1       7.899  20.605  53.435  1.00  0.00     0.195 C 
HETATM   22  O   UNL     1       8.642  19.905  54.438  1.00  0.00    -0.388 OA
HETATM   23  C   UNL     1       8.180  20.236  55.752  1.00  0.00     0.195 C 
HETATM   24  C   UNL     1       8.367  21.730  56.035  1.00  0.00     0.261 C 
ENDBRANCH  17  18
ENDBRANCH  16  17
ENDBRANCH  15  16
ENDBRANCH  13  15
ENDBRANCH  11  13
ENDBRANCH   1  11
BRANCH   1  25
HETATM   25  C   UNL     1       6.517  30.095  56.861  1.00  0.00     0.169 C 
BRANCH  25  26
HETATM   26  C   UNL     1       6.243  31.005  58.032  1.00  0.00     0.029 C 
HETATM   27  C   UNL     1       4.812  31.318  58.334  1.00  0.00     0.253 C 
HETATM   28  O   UNL     1       3.913  31.054  57.539  1.00  0.00    -0.268 OA
HETATM   29  N   UNL     1       4.543  31.873  59.556  1.00  0.00    -0.322 N 
HETATM   30  C   UNL     1       5.529  32.176  60.503  1.00  0.00     0.048 A 
HETATM   31  H   UNL     1       3.568  32.027  59.772  1.00  0.00     0.169 HD
HETATM   32  C   UNL     1       6.886  32.010  60.155  1.00  0.00    -0.006 A 
HETATM   33  C   UNL     1       5.156  32.580  61.786  1.00  0.00     0.070 A 
HETATM   34  C   UNL     1       7.890  32.241  61.103  1.00  0.00     0.053 A 
HETATM   35  C   UNL     1       7.217  31.457  58.843  1.00  0.00     0.028 C 
HETATM   36  C   UNL     1       7.493  32.597  62.373  1.00  0.00     0.106 A 
HETATM   37  C   UNL     1       6.167  32.759  62.705  1.00  0.00     0.107 A 
HETATM   38  O   UNL     1       8.320  32.780  63.436  1.00  0.00    -0.323 OA
HETATM   39  O   UNL     1       5.999  33.066  64.019  1.00  0.00    -0.323 OA
HETATM   40  C   UNL     1       7.363  33.014  64.490  1.00  0.00     0.352 A 
ENDBRANCH  25  26
ENDBRANCH   1  25
TORSDOF 11
ENDMDL
MODEL 8
REMARK VINA RESULT:      -8.8      2.559      7.418
REMARK  11 active torsions:
REMARK  status: ('A' for Active; 'I' for Inactive)
REMARK    1  A    between atoms: O_2  and  C_3 
REMARK    2  A    between atoms: C_6  and  C_7 
REMARK    3  A    between atoms: C_7  and  N_8 
REMARK    4  A    between atoms: N_8  and  C_9 
REMARK    5  A    between atoms: N_8  and  C_22 
REMARK    6  A    between atoms: C_9  and  N_10 
REMARK    7  A    between atoms: N_10  and  C_11 
REMARK    8  A    between atoms: C_11  and  C_12 
REMARK    9  A    between atoms: C_12  and  C_13 
REMARK   10  A    between atoms: C_13  and  N_14 
REMARK   11  A    between atoms: C_22  and  C_23 
ROOT
HETATM    1  N   UNL     1       6.353  26.473  54.457  1.00  0.00    -0.350 N 
ENDROOT
BRANCH   1   2
HETATM    2  C   UNL     1       7.698  25.991  54.066  1.00  0.00     0.164 C 
BRANCH   2   3
HETATM    3  C   UNL     1       7.926  24.500  54.122  1.00  0.00    -0.040 A 
HETATM    4  C   UNL     1       8.179  23.829  55.325  1.00  0.00     0.011 A 
HETATM    5  C   UNL     1       8.298  22.434  55.342  1.00  0.00     0.037 A 
HETATM    6  C   UNL     1       8.155  21.705  54.160  1.00  0.00     0.068 A 
HETATM    7  C   UNL     1       7.929  22.364  52.957  1.00  0.00     0.037 A 
HETATM    8  C   UNL     1       7.797  23.750  52.940  1.00  0.00     0.011 A 
BRANCH   6   9
HETATM    9  O   UNL     1       8.272  20.345  54.090  1.00  0.00    -0.356 OA
HETATM   10  C   UNL     1       8.884  19.770  55.243  1.00  0.00     0.210 C 
ENDBRANCH   6   9
ENDBRANCH   2   3
ENDBRANCH   1   2
BRANCH   1  11
HETATM   11  C   UNL     1       5.294  26.486  53.526  1.00  0.00     0.170 C 
HETATM   12  S   UNL     1       4.542  25.128  52.879  1.00  0.00    -0.041 SA
BRANCH  11  13
HETATM   13  N   UNL     1       4.951  27.776  53.150  1.00  0.00    -0.367 N 
HETATM   14  H   UNL     1       5.690  28.461  53.245  1.00  0.00     0.161 HD
BRANCH  13  15
HETATM   15  C   UNL     1       3.604  28.322  53.046  1.00  0.00     0.123 C 
BRANCH  15  16
HETATM   16  C   UNL     1       3.282  28.823  51.642  1.00  0.00     0.047 C 
BRANCH  16  17
HETATM   17  C   UNL     1       4.045  28.151  50.503  1.00  0.00     0.236 C 
BRANCH  17  18
HETATM   18  N   UNL     1       3.187  27.309  49.595  1.00  0.00    -0.067 N 
HETATM   19  H   UNL     1       2.710  26.603  50.186  1.00  0.00     0.280 HD
HETATM   20  C   UNL     1       2.124  28.081  48.829  1.00  0.00     0.261 C 
HETATM   21  C   UNL     1       1.347  27.133  47.908  1.00  0.00     0.195 C 
HETATM   22  O   UNL     1       2.229  26.458  47.006  1.00  0.00    -0.388 OA
HETATM   23  C   UNL     1       3.171  25.644  47.713  1.00  0.00     0.195 C 
HETATM   24  C   UNL     1       4.054  26.501  48.626  1.00  0.00     0.261 C 
ENDBRANCH  17  18
ENDBRANCH  16  17
ENDBRANCH  15  16
ENDBRANCH  13  15
ENDBRANCH  11  13
ENDBRANCH   1  11
BRANCH   1  25
HETATM   25  C   UNL     1       5.989  26.124  55.861  1.00  0.00     0.169 C 
BRANCH  25  26
HETATM   26  C   UNL     1       5.935  27.383  56.690  1.00  0.00     0.029 C 
HETATM   27  C   UNL     1       7.194  27.800  57.380  1.00  0.00     0.253 C 
HETATM   28  O   UNL     1       8.159  27.044  57.475  1.00  0.00    -0.268 OA
HETATM   29  N   UNL     1       7.241  29.079  57.865  1.00  0.00    -0.322 N 
HETATM   30  C   UNL     1       6.178  29.985  57.767  1.00  0.00     0.048 A 
HETATM   31  H   UNL     1       8.117  29.369  58.279  1.00  0.00     0.169 HD
HETATM   32  C   UNL     1       4.946  29.538  57.242  1.00  0.00    -0.006 A 
HETATM   33  C   UNL     1       6.367  31.318  58.134  1.00  0.00     0.070 A 
HETATM   34  C   UNL     1       3.887  30.437  57.070  1.00  0.00     0.053 A 
HETATM   35  C   UNL     1       4.842  28.165  56.750  1.00  0.00     0.028 C 
HETATM   36  C   UNL     1       4.113  31.756  57.399  1.00  0.00     0.106 A 
HETATM   37  C   UNL     1       5.317  32.183  57.912  1.00  0.00     0.107 A 
HETATM   38  O   UNL     1       3.233  32.775  57.222  1.00  0.00    -0.323 OA
HETATM   39  O   UNL     1       5.339  33.526  58.122  1.00  0.00    -0.323 OA
HETATM   40  C   UNL     1       4.037  33.904  57.623  1.00  0.00     0.352 A 
ENDBRANCH  25  26
ENDBRANCH   1  25
TORSDOF 11
ENDMDL
MODEL 9
REMARK VINA RESULT:      -8.5      2.226      7.972
REMARK  11 active torsions:
REMARK  status: ('A' for Active; 'I' for Inactive)
REMARK    1  A    between atoms: O_2  and  C_3 
REMARK    2  A    between atoms: C_6  and  C_7 
REMARK    3  A    between atoms: C_7  and  N_8 
REMARK    4  A    between atoms: N_8  and  C_9 
REMARK    5  A    between atoms: N_8  and  C_22 
REMARK    6  A    between atoms: C_9  and  N_10 
REMARK    7  A    between atoms: N_10  and  C_11 
REMARK    8  A    between atoms: C_11  and  C_12 
REMARK    9  A    between atoms: C_12  and  C_13 
REMARK   10  A    between atoms: C_13  and  N_14 
REMARK   11  A    between atoms: C_22  and  C_23 
ROOT
HETATM    1  N   UNL     1       5.164  28.668  53.107  1.00  0.00    -0.350 N 
ENDROOT
BRANCH   1   2
HETATM    2  C   UNL     1       4.562  29.870  52.484  1.00  0.00     0.164 C 
BRANCH   2   3
HETATM    3  C   UNL     1       4.290  29.801  51.001  1.00  0.00    -0.040 A 
HETATM    4  C   UNL     1       5.315  29.893  50.051  1.00  0.00     0.011 A 
HETATM    5  C   UNL     1       5.029  29.737  48.689  1.00  0.00     0.037 A 
HETATM    6  C   UNL     1       3.722  29.479  48.274  1.00  0.00     0.068 A 
HETATM    7  C   UNL     1       2.693  29.410  49.207  1.00  0.00     0.037 A 
HETATM    8  C   UNL     1       2.978  29.551  50.563  1.00  0.00     0.011 A 
BRANCH   6   9
HETATM    9  O   UNL     1       3.358  29.329  46.965  1.00  0.00    -0.356 OA
HETATM   10  C   UNL     1       2.327  30.227  46.559  1.00  0.00     0.210 C 
ENDBRANCH   6   9
ENDBRANCH   2   3
ENDBRANCH   1   2
BRANCH   1  11
HETATM   11  C   UNL     1       6.154  28.792  54.103  1.00  0.00     0.170 C 
HETATM   12  S   UNL     1       7.693  28.115  54.045  1.00  0.00    -0.041 SA
BRANCH  11  13
HETATM   13  N   UNL     1       5.702  29.518  55.196  1.00  0.00    -0.367 N 
HETATM   14  H   UNL     1       5.916  30.507  55.172  1.00  0.00     0.161 HD
BRANCH  13  15
HETATM   15  C   UNL     1       5.351  28.987  56.506  1.00  0.00     0.123 C 
BRANCH  15  16
HETATM   16  C   UNL     1       6.313  29.444  57.598  1.00  0.00     0.047 C 
BRANCH  16  17
HETATM   17  C   UNL     1       7.552  28.576  57.802  1.00  0.00     0.236 C 
BRANCH  17  18
HETATM   18  N   UNL     1       8.807  29.350  58.109  1.00  0.00    -0.067 N 
HETATM   19  H   UNL     1       9.222  28.942  58.967  1.00  0.00     0.280 HD
HETATM   20  C   UNL     1       9.859  29.317  57.011  1.00  0.00     0.261 C 
HETATM   21  C   UNL     1      11.066  30.172  57.413  1.00  0.00     0.195 C 
HETATM   22  O   UNL     1      10.669  31.519  57.690  1.00  0.00    -0.388 OA
HETATM   23  C   UNL     1       9.756  31.575  58.792  1.00  0.00     0.195 C 
HETATM   24  C   UNL     1       8.473  30.799  58.475  1.00  0.00     0.261 C 
ENDBRANCH  17  18
ENDBRANCH  16  17
ENDBRANCH  15  16
ENDBRANCH  13  15
ENDBRANCH  11  13
ENDBRANCH   1  11
BRANCH   1  25
HETATM   25  C   UNL     1       4.193  27.549  53.283  1.00  0.00     0.169 C 
BRANCH  25  26
HETATM   26  C   UNL     1       4.922  26.234  53.166  1.00  0.00     0.029 C 
HETATM   27  C   UNL     1       5.439  25.859  51.813  1.00  0.00     0.253 C 
HETATM   28  O   UNL     1       5.090  26.459  50.800  1.00  0.00    -0.268 OA
HETATM   29  N   UNL     1       6.356  24.844  51.760  1.00  0.00    -0.322 N 
HETATM   30  C   UNL     1       6.801  24.140  52.886  1.00  0.00     0.048 A 
HETATM   31  H   UNL     1       6.742  24.636  50.849  1.00  0.00     0.169 HD
HETATM   32  C   UNL     1       6.202  24.404  54.137  1.00  0.00    -0.006 A 
HETATM   33  C   UNL     1       7.858  23.238  52.767  1.00  0.00     0.070 A 
HETATM   34  C   UNL     1       6.673  23.766  55.291  1.00  0.00     0.053 A 
HETATM   35  C   UNL     1       5.190  25.455  54.230  1.00  0.00     0.028 C 
HETATM   36  C   UNL     1       7.745  22.913  55.153  1.00  0.00     0.106 A 
HETATM   37  C   UNL     1       8.322  22.659  53.929  1.00  0.00     0.107 A 
HETATM   38  O   UNL     1       8.381  22.275  56.169  1.00  0.00    -0.323 OA
HETATM   39  O   UNL     1       9.392  21.826  54.027  1.00  0.00    -0.323 OA
HETATM   40  C   UNL     1       9.463  21.637  55.458  1.00  0.00     0.352 A 
ENDBRANCH  25  26
ENDBRANCH   1  25
TORSDOF 11
ENDMDL
MODEL 10
REMARK VINA RESULT:      -8.4      3.353      8.107
REMARK  11 active torsions:
REMARK  status: ('A' for Active; 'I' for Inactive)
REMARK    1  A    between atoms: O_2  and  C_3 
REMARK    2  A    between atoms: C_6  and  C_7 
REMARK    3  A    between atoms: C_7  and  N_8 
REMARK    4  A    between atoms: N_8  and  C_9 
REMARK    5  A    between atoms: N_8  and  C_22 
REMARK    6  A    between atoms: C_9  and  N_10 
REMARK    7  A    between atoms: N_10  and  C_11 
REMARK    8  A    between atoms: C_11  and  C_12 
REMARK    9  A    between atoms: C_12  and  C_13 
REMARK   10  A    between atoms: C_13  and  N_14 
REMARK   11  A    between atoms: C_22  and  C_23 
ROOT
HETATM    1  N   UNL     1       7.214  28.495  57.355  1.00  0.00    -0.350 N 
ENDROOT
BRANCH   1   2
HETATM    2  C   UNL     1       5.808  28.884  57.608  1.00  0.00     0.164 C 
BRANCH   2   3
HETATM    3  C   UNL     1       5.095  29.614  56.495  1.00  0.00    -0.040 A 
HETATM    4  C   UNL     1       5.306  30.975  56.242  1.00  0.00     0.011 A 
HETATM    5  C   UNL     1       4.690  31.591  55.146  1.00  0.00     0.037 A 
HETATM    6  C   UNL     1       3.871  30.847  54.294  1.00  0.00     0.068 A 
HETATM    7  C   UNL     1       3.636  29.501  54.551  1.00  0.00     0.037 A 
HETATM    8  C   UNL     1       4.258  28.883  55.633  1.00  0.00     0.011 A 
BRANCH   6   9
HETATM    9  O   UNL     1       3.223  31.376  53.214  1.00  0.00    -0.356 OA
HETATM   10  C   UNL     1       4.108  31.836  52.193  1.00  0.00     0.210 C 
ENDBRANCH   6   9
ENDBRANCH   2   3
ENDBRANCH   1   2
BRANCH   1  11
HETATM   11  C   UNL     1       8.279  29.275  57.853  1.00  0.00     0.170 C 
HETATM   12  S   UNL     1       9.720  29.594  57.047  1.00  0.00    -0.041 SA
BRANCH  11  13
HETATM   13  N   UNL     1       8.029  29.731  59.138  1.00  0.00    -0.367 N 
HETATM   14  H   UNL     1       7.075  29.612  59.458  1.00  0.00     0.161 HD
BRANCH  13  15
HETATM   15  C   UNL     1       8.819  30.700  59.886  1.00  0.00     0.123 C 
BRANCH  15  16
HETATM   16  C   UNL     1       8.170  32.079  59.926  1.00  0.00     0.047 C 
BRANCH  16  17
HETATM   17  C   UNL     1       6.682  32.127  59.585  1.00  0.00     0.236 C 
BRANCH  17  18
HETATM   18  N   UNL     1       5.769  31.899  60.761  1.00  0.00    -0.067 N 
HETATM   19  H   UNL     1       5.449  30.914  60.718  1.00  0.00     0.280 HD
HETATM   20  C   UNL     1       6.414  32.128  62.120  1.00  0.00     0.261 C 
HETATM   21  C   UNL     1       5.383  31.913  63.233  1.00  0.00     0.195 C 
HETATM   22  O   UNL     1       4.253  32.774  63.059  1.00  0.00    -0.388 OA
HETATM   23  C   UNL     1       3.575  32.497  61.829  1.00  0.00     0.195 C 
HETATM   24  C   UNL     1       4.498  32.742  60.631  1.00  0.00     0.261 C 
ENDBRANCH  17  18
ENDBRANCH  16  17
ENDBRANCH  15  16
ENDBRANCH  13  15
ENDBRANCH  11  13
ENDBRANCH   1  11
BRANCH   1  25
HETATM   25  C   UNL     1       7.425  27.018  57.359  1.00  0.00     0.169 C 
BRANCH  25  26
HETATM   26  C   UNL     1       7.201  26.478  55.969  1.00  0.00     0.029 C 
HETATM   27  C   UNL     1       6.830  25.035  55.848  1.00  0.00     0.253 C 
HETATM   28  O   UNL     1       6.934  24.261  56.797  1.00  0.00    -0.268 OA
HETATM   29  N   UNL     1       6.327  24.623  54.644  1.00  0.00    -0.322 N 
HETATM   30  C   UNL     1       6.172  25.468  53.538  1.00  0.00     0.048 A 
HETATM   31  H   UNL     1       6.026  23.659  54.591  1.00  0.00     0.169 HD
HETATM   32  C   UNL     1       6.656  26.792  53.616  1.00  0.00    -0.006 A 
HETATM   33  C   UNL     1       5.495  25.011  52.407  1.00  0.00     0.070 A 
HETATM   34  C   UNL     1       6.454  27.678  52.552  1.00  0.00     0.053 A 
HETATM   35  C   UNL     1       7.237  27.259  54.874  1.00  0.00     0.028 C 
HETATM   36  C   UNL     1       5.747  27.216  51.465  1.00  0.00     0.106 A 
HETATM   37  C   UNL     1       5.279  25.923  51.396  1.00  0.00     0.107 A 
HETATM   38  O   UNL     1       5.388  27.957  50.384  1.00  0.00    -0.323 OA
HETATM   39  O   UNL     1       4.570  25.693  50.259  1.00  0.00    -0.323 OA
HETATM   40  C   UNL     1       4.588  27.003  49.652  1.00  0.00     0.352 A 
ENDBRANCH  25  26
ENDBRANCH   1  25
TORSDOF 11
ENDMDL
