MODEL 1
REMARK VINA RESULT:      -9.9      0.000      0.000
REMARK  7 active torsions:
REMARK  status: ('A' for Active; 'I' for Inactive)
REMARK    1  A    between atoms: C_3  and  O_4 
REMARK    2  A    between atoms: O_4  and  C_5 
REMARK    3  A    between atoms: C_5  and  C_6 
REMARK    4  A    between atoms: C_7  and  C_8 
REMARK    5  A    between atoms: C_8  and  N_9 
REMARK       I    between atoms: N_9  and  C_10 
REMARK    6  A    between atoms: C_10  and  C_11 
REMARK    7  A    between atoms: C_15  and  C_16 
ROOT
HETATM    1  N   UNL     1       8.038  29.177  58.449  1.00  0.00    -0.345 N 
HETATM    2  C   UNL     1       8.680  30.320  58.856  1.00  0.00     0.270 C 
HETATM    3  O   UNL     1       9.451  30.947  58.138  1.00  0.00    -0.266 OA
HETATM    4  H   UNL     1       7.330  28.769  59.037  1.00  0.00     0.163 HD
ENDROOT
BRANCH   1   5
HETATM    5  C   UNL     1       8.166  28.667  57.107  1.00  0.00     0.217 C 
BRANCH   5   6
HETATM    6  C   UNL     1       8.202  27.203  57.132  1.00  0.00    -0.085 C 
HETATM    7  C   UNL     1       8.227  26.000  57.126  1.00  0.00    -0.078 C 
BRANCH   7   8
HETATM    8  C   UNL     1       8.258  24.531  57.088  1.00  0.00     0.269 C 
BRANCH   8   9
HETATM    9  O   UNL     1       7.206  24.073  56.243  1.00  0.00    -0.339 OA
BRANCH   9  10
HETATM   10  C   UNL     1       7.497  23.071  55.353  1.00  0.00     0.075 A 
HETATM   11  C   UNL     1       7.584  23.460  54.004  1.00  0.00    -0.029 A 
HETATM   12  C   UNL     1       7.340  24.884  53.584  1.00  0.00     0.051 C 
HETATM   13  C   UNL     1       7.850  22.492  53.022  1.00  0.00     0.009 A 
HETATM   14  C   UNL     1       8.049  21.160  53.375  1.00  0.00     0.001 A 
HETATM   15  C   UNL     1       7.972  20.779  54.711  1.00  0.00     0.003 A 
HETATM   16  C   UNL     1       7.692  21.729  55.697  1.00  0.00     0.037 A 
ENDBRANCH   9  10
ENDBRANCH   8   9
ENDBRANCH   7   8
ENDBRANCH   5   6
ENDBRANCH   1   5
BRANCH   2  17
HETATM   17  C   UNL     1       8.392  30.737  60.202  1.00  0.00     0.120 A 
HETATM   18  N   UNL     1       8.964  30.116  61.276  1.00  0.00    -0.272 N 
HETATM   19  H   UNL     1       9.623  29.343  61.250  1.00  0.00     0.189 HD
HETATM   20  N   UNL     1       8.585  30.606  62.464  1.00  0.00    -0.174 NA
HETATM   21  C   UNL     1       7.720  31.591  62.169  1.00  0.00     0.089 A 
HETATM   22  C   UNL     1       7.580  31.708  60.756  1.00  0.00     0.071 A 
BRANCH  21  23
HETATM   23  C   UNL     1       7.056  32.371  63.222  1.00  0.00    -0.006 A 
HETATM   24  C   UNL     1       7.815  33.096  64.156  1.00  0.00     0.014 A 
HETATM   25  C   UNL     1       7.199  33.835  65.169  1.00  0.00     0.001 A 
HETATM   26  C   UNL     1       5.811  33.862  65.265  1.00  0.00     0.000 A 
HETATM   27  C   UNL     1       5.039  33.151  64.347  1.00  0.00     0.001 A 
HETATM   28  C   UNL     1       5.657  32.411  63.333  1.00  0.00     0.014 A 
ENDBRANCH  21  23
ENDBRANCH   2  17
TORSDOF 7
ENDMDL
MODEL 2
REMARK VINA RESULT:      -9.8      1.476      1.820
REMARK  7 active torsions:
REMARK  status: ('A' for Active; 'I' for Inactive)
REMARK    1  A    between atoms: C_3  and  O_4 
REMARK    2  A    between atoms: O_4  and  C_5 
REMARK    3  A    between atoms: C_5  and  C_6 
REMARK    4  A    between atoms: C_7  and  C_8 
REMARK    5  A    between atoms: C_8  and  N_9 
REMARK       I    between atoms: N_9  and  C_10 
REMARK    6  A    between atoms: C_10  and  C_11 
REMARK    7  A    between atoms: C_15  and  C_16 
ROOT
HETATM    1  N   UNL     1       7.913  29.243  56.622  1.00  0.00    -0.345 N 
HETATM    2  C   UNL     1       9.079  29.618  57.241  1.00  0.00     0.270 C 
HETATM    3  O   UNL     1      10.179  29.186  56.914  1.00  0.00    -0.266 OA
HETATM    4  H   UNL     1       7.055  29.716  56.854  1.00  0.00     0.163 HD
ENDROOT
BRANCH   1   5
HETATM    5  C   UNL     1       7.903  28.364  55.480  1.00  0.00     0.217 C 
BRANCH   5   6
HETATM    6  C   UNL     1       7.772  26.974  55.922  1.00  0.00    -0.085 C 
HETATM    7  C   UNL     1       7.650  25.828  56.264  1.00  0.00    -0.078 C 
BRANCH   7   8
HETATM    8  C   UNL     1       7.487  24.420  56.654  1.00  0.00     0.269 C 
BRANCH   8   9
HETATM    9  O   UNL     1       6.850  23.720  55.589  1.00  0.00    -0.339 OA
BRANCH   9  10
HETATM   10  C   UNL     1       7.456  22.581  55.125  1.00  0.00     0.075 A 
HETATM   11  C   UNL     1       7.783  22.578  53.756  1.00  0.00    -0.029 A 
HETATM   12  C   UNL     1       7.452  23.749  52.872  1.00  0.00     0.051 C 
HETATM   13  C   UNL     1       8.381  21.441  53.192  1.00  0.00     0.009 A 
HETATM   14  C   UNL     1       8.672  20.328  53.977  1.00  0.00     0.001 A 
HETATM   15  C   UNL     1       8.356  20.336  55.333  1.00  0.00     0.003 A 
HETATM   16  C   UNL     1       7.747  21.456  55.904  1.00  0.00     0.037 A 
ENDBRANCH   9  10
ENDBRANCH   8   9
ENDBRANCH   7   8
ENDBRANCH   5   6
ENDBRANCH   1   5
BRANCH   2  17
HETATM   17  C   UNL     1       8.926  30.557  58.320  1.00  0.00     0.120 A 
HETATM   18  N   UNL     1       9.784  31.608  58.475  1.00  0.00    -0.272 N 
HETATM   19  H   UNL     1      10.574  31.839  57.878  1.00  0.00     0.189 HD
HETATM   20  N   UNL     1       9.522  32.384  59.534  1.00  0.00    -0.174 NA
HETATM   21  C   UNL     1       8.448  31.822  60.114  1.00  0.00     0.089 A 
HETATM   22  C   UNL     1       8.040  30.675  59.373  1.00  0.00     0.071 A 
BRANCH  21  23
HETATM   23  C   UNL     1       7.858  32.378  61.340  1.00  0.00    -0.006 A 
HETATM   24  C   UNL     1       8.506  32.217  62.577  1.00  0.00     0.014 A 
HETATM   25  C   UNL     1       7.952  32.731  63.753  1.00  0.00     0.001 A 
HETATM   26  C   UNL     1       6.741  33.415  63.711  1.00  0.00     0.000 A 
HETATM   27  C   UNL     1       6.084  33.587  62.494  1.00  0.00     0.001 A 
HETATM   28  C   UNL     1       6.639  33.071  61.317  1.00  0.00     0.014 A 
ENDBRANCH  21  23
ENDBRANCH   2  17
TORSDOF 7
ENDMDL
MODEL 3
REMARK VINA RESULT:      -9.6      1.490      2.530
REMARK  7 active torsions:
REMARK  status: ('A' for Active; 'I' for Inactive)
REMARK    1  A    between atoms: C_3  and  O_4 
REMARK    2  A    between atoms: O_4  and  C_5 
REMARK    3  A    between atoms: C_5  and  C_6 
REMARK    4  A    between atoms: C_7  and  C_8 
REMARK    5  A    between atoms: C_8  and  N_9 
REMARK       I    between atoms: N_9  and  C_10 
REMARK    6  A    between atoms: C_10  and  C_11 
REMARK    7  A    between atoms: C_15  and  C_16 
ROOT
HETATM    1  N   UNL     1       9.734  30.118  58.274  1.00  0.00    -0.345 N 
HETATM    2  C   UNL     1       9.720  31.358  58.863  1.00  0.00     0.270 C 
HETATM    3  O   UNL     1      10.262  32.339  58.367  1.00  0.00    -0.266 OA
HETATM    4  H   UNL     1       9.176  29.377  58.666  1.00  0.00     0.163 HD
ENDROOT
BRANCH   1   5
HETATM    5  C   UNL     1      10.326  29.894  56.979  1.00  0.00     0.217 C 
BRANCH   5   6
HETATM    6  C   UNL     1       9.327  29.336  56.064  1.00  0.00    -0.085 C 
HETATM    7  C   UNL     1       8.506  28.857  55.327  1.00  0.00    -0.078 C 
BRANCH   7   8
HETATM    8  C   UNL     1       7.500  28.246  54.446  1.00  0.00     0.269 C 
BRANCH   8   9
HETATM    9  O   UNL     1       7.140  26.973  54.975  1.00  0.00    -0.339 OA
BRANCH   9  10
HETATM   10  C   UNL     1       7.425  25.866  54.218  1.00  0.00     0.075 A 
HETATM   11  C   UNL     1       7.766  24.706  54.937  1.00  0.00    -0.029 A 
HETATM   12  C   UNL     1       7.837  24.711  56.440  1.00  0.00     0.051 C 
HETATM   13  C   UNL     1       8.099  23.534  54.239  1.00  0.00     0.009 A 
HETATM   14  C   UNL     1       8.074  23.506  52.847  1.00  0.00     0.001 A 
HETATM   15  C   UNL     1       7.727  24.652  52.138  1.00  0.00     0.003 A 
HETATM   16  C   UNL     1       7.408  25.829  52.819  1.00  0.00     0.037 A 
ENDBRANCH   9  10
ENDBRANCH   8   9
ENDBRANCH   7   8
ENDBRANCH   5   6
ENDBRANCH   1   5
BRANCH   2  17
HETATM   17  C   UNL     1       9.027  31.431  60.121  1.00  0.00     0.120 A 
HETATM   18  N   UNL     1       8.726  30.306  60.833  1.00  0.00    -0.272 N 
HETATM   19  H   UNL     1       8.950  29.348  60.578  1.00  0.00     0.189 HD
HETATM   20  N   UNL     1       8.064  30.535  61.975  1.00  0.00    -0.174 NA
HETATM   21  C   UNL     1       7.912  31.869  62.022  1.00  0.00     0.089 A 
HETATM   22  C   UNL     1       8.513  32.467  60.876  1.00  0.00     0.071 A 
BRANCH  21  23
HETATM   23  C   UNL     1       7.204  32.524  63.131  1.00  0.00    -0.006 A 
HETATM   24  C   UNL     1       5.802  32.473  63.208  1.00  0.00     0.014 A 
HETATM   25  C   UNL     1       5.114  33.099  64.251  1.00  0.00     0.001 A 
HETATM   26  C   UNL     1       5.818  33.785  65.236  1.00  0.00     0.000 A 
HETATM   27  C   UNL     1       7.208  33.846  65.179  1.00  0.00     0.001 A 
HETATM   28  C   UNL     1       7.897  33.219  64.133  1.00  0.00     0.014 A 
ENDBRANCH  21  23
ENDBRANCH   2  17
TORSDOF 7
ENDMDL
MODEL 4
REMARK VINA RESULT:      -9.3      1.159      1.479
REMARK  7 active torsions:
REMARK  status: ('A' for Active; 'I' for Inactive)
REMARK    1  A    between atoms: C_3  and  O_4 
REMARK    2  A    between atoms: O_4  and  C_5 
REMARK    3  A    between atoms: C_5  and  C_6 
REMARK    4  A    between atoms: C_7  and  C_8 
REMARK    5  A    between atoms: C_8  and  N_9 
REMARK       I    between atoms: N_9  and  C_10 
REMARK    6  A    between atoms: C_10  and  C_11 
REMARK    7  A    between atoms: C_15  and  C_16 
ROOT
HETATM    1  N   UNL     1       8.914  29.983  58.692  1.00  0.00    -0.345 N 
HETATM    2  C   UNL     1       9.275  31.225  59.150  1.00  0.00     0.270 C 
HETATM    3  O   UNL     1       9.996  31.988  58.517  1.00  0.00    -0.266 OA
HETATM    4  H   UNL     1       8.228  29.448  59.198  1.00  0.00     0.163 HD
ENDROOT
BRANCH   1   5
HETATM    5  C   UNL     1       9.297  29.510  57.385  1.00  0.00     0.217 C 
BRANCH   5   6
HETATM    6  C   UNL     1       8.829  28.135  57.196  1.00  0.00    -0.085 C 
HETATM    7  C   UNL     1       8.447  27.002  57.067  1.00  0.00    -0.078 C 
BRANCH   7   8
HETATM    8  C   UNL     1       7.982  25.613  56.940  1.00  0.00     0.269 C 
BRANCH   8   9
HETATM    9  O   UNL     1       7.019  25.547  55.892  1.00  0.00    -0.339 OA
BRANCH   9  10
HETATM   10  C   UNL     1       7.311  24.757  54.810  1.00  0.00     0.075 A 
HETATM   11  C   UNL     1       7.579  25.441  53.610  1.00  0.00    -0.029 A 
HETATM   12  C   UNL     1       7.513  26.942  53.535  1.00  0.00     0.051 C 
HETATM   13  C   UNL     1       7.860  24.708  52.446  1.00  0.00     0.009 A 
HETATM   14  C   UNL     1       7.897  23.316  52.475  1.00  0.00     0.001 A 
HETATM   15  C   UNL     1       7.641  22.642  53.665  1.00  0.00     0.003 A 
HETATM   16  C   UNL     1       7.345  23.358  54.828  1.00  0.00     0.037 A 
ENDBRANCH   9  10
ENDBRANCH   8   9
ENDBRANCH   7   8
ENDBRANCH   5   6
ENDBRANCH   1   5
BRANCH   2  17
HETATM   17  C   UNL     1       8.753  31.577  60.443  1.00  0.00     0.120 A 
HETATM   18  N   UNL     1       8.783  30.696  61.486  1.00  0.00    -0.272 N 
HETATM   19  H   UNL     1       9.161  29.753  61.472  1.00  0.00     0.189 HD
HETATM   20  N   UNL     1       8.244  31.162  62.620  1.00  0.00    -0.174 NA
HETATM   21  C   UNL     1       7.832  32.405  62.318  1.00  0.00     0.089 A 
HETATM   22  C   UNL     1       8.143  32.704  60.960  1.00  0.00     0.071 A 
BRANCH  21  23
HETATM   23  C   UNL     1       7.158  33.253  63.311  1.00  0.00    -0.006 A 
HETATM   24  C   UNL     1       7.433  33.101  64.681  1.00  0.00     0.014 A 
HETATM   25  C   UNL     1       6.793  33.894  65.638  1.00  0.00     0.001 A 
HETATM   26  C   UNL     1       5.866  34.852  65.240  1.00  0.00     0.000 A 
HETATM   27  C   UNL     1       5.580  35.020  63.886  1.00  0.00     0.001 A 
HETATM   28  C   UNL     1       6.221  34.225  62.928  1.00  0.00     0.014 A 
ENDBRANCH  21  23
ENDBRANCH   2  17
TORSDOF 7
ENDMDL
MODEL 5
REMARK VINA RESULT:      -9.2      2.028     11.245
REMARK  7 active torsions:
REMARK  status: ('A' for Active; 'I' for Inactive)
REMARK    1  A    between atoms: C_3  and  O_4 
REMARK    2  A    between atoms: O_4  and  C_5 
REMARK    3  A    between atoms: C_5  and  C_6 
REMARK    4  A    between atoms: C_7  and  C_8 
REMARK    5  A    between atoms: C_8  and  N_9 
REMARK       I    between atoms: N_9  and  C_10 
REMARK    6  A    between atoms: C_10  and  C_11 
REMARK    7  A    between atoms: C_15  and  C_16 
ROOT
HETATM    1  N   UNL     1       8.866  28.414  57.071  1.00  0.00    -0.345 N 
HETATM    2  C   UNL     1       7.689  27.743  56.852  1.00  0.00     0.270 C 
HETATM    3  O   UNL     1       6.593  28.293  56.862  1.00  0.00    -0.266 OA
HETATM    4  H   UNL     1       9.742  27.935  56.936  1.00  0.00     0.163 HD
ENDROOT
BRANCH   1   5
HETATM    5  C   UNL     1       8.908  29.842  57.255  1.00  0.00     0.217 C 
BRANCH   5   6
HETATM    6  C   UNL     1       8.816  30.163  58.682  1.00  0.00    -0.085 C 
HETATM    7  C   UNL     1       8.738  30.452  59.846  1.00  0.00    -0.078 C 
BRANCH   7   8
HETATM    8  C   UNL     1       8.637  30.835  61.262  1.00  0.00     0.269 C 
BRANCH   8   9
HETATM    9  O   UNL     1       8.242  32.202  61.340  1.00  0.00    -0.339 OA
BRANCH   9  10
HETATM   10  C   UNL     1       7.518  32.593  62.437  1.00  0.00     0.075 A 
HETATM   11  C   UNL     1       6.144  32.799  62.219  1.00  0.00    -0.029 A 
HETATM   12  C   UNL     1       5.534  32.626  60.855  1.00  0.00     0.051 C 
HETATM   13  C   UNL     1       5.333  33.227  63.282  1.00  0.00     0.009 A 
HETATM   14  C   UNL     1       5.873  33.428  64.550  1.00  0.00     0.001 A 
HETATM   15  C   UNL     1       7.231  33.214  64.766  1.00  0.00     0.003 A 
HETATM   16  C   UNL     1       8.053  32.802  63.713  1.00  0.00     0.037 A 
ENDBRANCH   9  10
ENDBRANCH   8   9
ENDBRANCH   7   8
ENDBRANCH   5   6
ENDBRANCH   1   5
BRANCH   2  17
HETATM   17  C   UNL     1       7.823  26.331  56.613  1.00  0.00     0.120 A 
HETATM   18  N   UNL     1       8.250  25.482  57.594  1.00  0.00    -0.272 N 
HETATM   19  H   UNL     1       8.497  25.732  58.547  1.00  0.00     0.189 HD
HETATM   20  N   UNL     1       8.340  24.200  57.215  1.00  0.00    -0.174 NA
HETATM   21  C   UNL     1       7.963  24.196  55.925  1.00  0.00     0.089 A 
HETATM   22  C   UNL     1       7.623  25.518  55.514  1.00  0.00     0.071 A 
BRANCH  21  23
HETATM   23  C   UNL     1       7.948  22.959  55.133  1.00  0.00    -0.006 A 
HETATM   24  C   UNL     1       7.971  21.706  55.770  1.00  0.00     0.014 A 
HETATM   25  C   UNL     1       7.967  20.521  55.030  1.00  0.00     0.001 A 
HETATM   26  C   UNL     1       7.939  20.568  53.640  1.00  0.00     0.000 A 
HETATM   27  C   UNL     1       7.914  21.800  52.989  1.00  0.00     0.001 A 
HETATM   28  C   UNL     1       7.919  22.987  53.731  1.00  0.00     0.014 A 
ENDBRANCH  21  23
ENDBRANCH   2  17
TORSDOF 7
ENDMDL
MODEL 6
REMARK VINA RESULT:      -9.1      2.555      3.975
REMARK  7 active torsions:
REMARK  status: ('A' for Active; 'I' for Inactive)
REMARK    1  A    between atoms: C_3  and  O_4 
REMARK    2  A    between atoms: O_4  and  C_5 
REMARK    3  A    between atoms: C_5  and  C_6 
REMARK    4  A    between atoms: C_7  and  C_8 
REMARK    5  A    between atoms: C_8  and  N_9 
REMARK       I    between atoms: N_9  and  C_10 
REMARK    6  A    between atoms: C_10  and  C_11 
REMARK    7  A    between atoms: C_15  and  C_16 
ROOT
HETATM    1  N   UNL     1       6.792  28.499  54.440  1.00  0.00    -0.345 N 
HETATM    2  C   UNL     1       6.263  28.230  55.677  1.00  0.00     0.270 C 
HETATM    3  O   UNL     1       5.259  27.545  55.840  1.00  0.00    -0.266 OA
HETATM    4  H   UNL     1       7.681  28.969  54.372  1.00  0.00     0.163 HD
ENDROOT
BRANCH   1   5
HETATM    5  C   UNL     1       6.247  27.927  53.235  1.00  0.00     0.217 C 
BRANCH   5   6
HETATM    6  C   UNL     1       6.849  26.614  52.990  1.00  0.00    -0.085 C 
HETATM    7  C   UNL     1       7.361  25.542  52.807  1.00  0.00    -0.078 C 
BRANCH   7   8
HETATM    8  C   UNL     1       8.007  24.236  52.609  1.00  0.00     0.269 C 
BRANCH   8   9
HETATM    9  O   UNL     1       7.190  23.227  53.197  1.00  0.00    -0.339 OA
BRANCH   9  10
HETATM   10  C   UNL     1       7.639  22.638  54.351  1.00  0.00     0.075 A 
HETATM   11  C   UNL     1       7.987  21.279  54.246  1.00  0.00    -0.029 A 
HETATM   12  C   UNL     1       7.838  20.532  52.950  1.00  0.00     0.051 C 
HETATM   13  C   UNL     1       8.430  20.591  55.387  1.00  0.00     0.009 A 
HETATM   14  C   UNL     1       8.549  21.245  56.610  1.00  0.00     0.001 A 
HETATM   15  C   UNL     1       8.213  22.593  56.709  1.00  0.00     0.003 A 
HETATM   16  C   UNL     1       7.756  23.286  55.585  1.00  0.00     0.037 A 
ENDBRANCH   9  10
ENDBRANCH   8   9
ENDBRANCH   7   8
ENDBRANCH   5   6
ENDBRANCH   1   5
BRANCH   2  17
HETATM   17  C   UNL     1       6.965  28.818  56.786  1.00  0.00     0.120 A 
HETATM   18  N   UNL     1       8.210  28.390  57.147  1.00  0.00    -0.272 N 
HETATM   19  H   UNL     1       8.753  27.658  56.697  1.00  0.00     0.189 HD
HETATM   20  N   UNL     1       8.726  29.023  58.208  1.00  0.00    -0.174 NA
HETATM   21  C   UNL     1       7.783  29.906  58.574  1.00  0.00     0.089 A 
HETATM   22  C   UNL     1       6.663  29.812  57.697  1.00  0.00     0.071 A 
BRANCH  21  23
HETATM   23  C   UNL     1       7.966  30.791  59.733  1.00  0.00    -0.006 A 
HETATM   24  C   UNL     1       9.073  30.630  60.582  1.00  0.00     0.014 A 
HETATM   25  C   UNL     1       9.257  31.457  61.694  1.00  0.00     0.001 A 
HETATM   26  C   UNL     1       8.334  32.461  61.973  1.00  0.00     0.000 A 
HETATM   27  C   UNL     1       7.230  32.639  61.142  1.00  0.00     0.001 A 
HETATM   28  C   UNL     1       7.047  31.809  60.029  1.00  0.00     0.014 A 
ENDBRANCH  21  23
ENDBRANCH   2  17
TORSDOF 7
ENDMDL
MODEL 7
REMARK VINA RESULT:      -8.9      3.248     10.980
REMARK  7 active torsions:
REMARK  status: ('A' for Active; 'I' for Inactive)
REMARK    1  A    between atoms: C_3  and  O_4 
REMARK    2  A    between atoms: O_4  and  C_5 
REMARK    3  A    between atoms: C_5  and  C_6 
REMARK    4  A    between atoms: C_7  and  C_8 
REMARK    5  A    between atoms: C_8  and  N_9 
REMARK       I    between atoms: N_9  and  C_10 
REMARK    6  A    between atoms: C_10  and  C_11 
REMARK    7  A    between atoms: C_15  and  C_16 
ROOT
HETATM    1  N   UNL     1       5.387  28.256  55.006  1.00  0.00    -0.345 N 
HETATM    2  C   UNL     1       6.274  27.616  54.177  1.00  0.00     0.270 C 
HETATM    3  O   UNL     1       6.802  28.161  53.214  1.00  0.00    -0.266 OA
HETATM    4  H   UNL     1       5.073  27.798  55.846  1.00  0.00     0.163 HD
ENDROOT
BRANCH   1   5
HETATM    5  C   UNL     1       5.066  29.652  54.849  1.00  0.00     0.217 C 
BRANCH   5   6
HETATM    6  C   UNL     1       5.327  30.367  56.101  1.00  0.00    -0.085 C 
HETATM    7  C   UNL     1       5.516  30.958  57.131  1.00  0.00    -0.078 C 
BRANCH   7   8
HETATM    8  C   UNL     1       5.716  31.682  58.395  1.00  0.00     0.269 C 
BRANCH   8   9
HETATM    9  O   UNL     1       7.103  31.973  58.542  1.00  0.00    -0.339 OA
BRANCH   9  10
HETATM   10  C   UNL     1       7.602  32.060  59.816  1.00  0.00     0.075 A 
HETATM   11  C   UNL     1       8.994  31.895  59.938  1.00  0.00    -0.029 A 
HETATM   12  C   UNL     1       9.855  31.612  58.738  1.00  0.00     0.051 C 
HETATM   13  C   UNL     1       9.586  31.942  61.210  1.00  0.00     0.009 A 
HETATM   14  C   UNL     1       8.812  32.171  62.345  1.00  0.00     0.001 A 
HETATM   15  C   UNL     1       7.436  32.343  62.221  1.00  0.00     0.003 A 
HETATM   16  C   UNL     1       6.832  32.284  60.962  1.00  0.00     0.037 A 
ENDBRANCH   9  10
ENDBRANCH   8   9
ENDBRANCH   7   8
ENDBRANCH   5   6
ENDBRANCH   1   5
BRANCH   2  17
HETATM   17  C   UNL     1       6.542  26.243  54.510  1.00  0.00     0.120 A 
HETATM   18  N   UNL     1       6.319  25.759  55.768  1.00  0.00    -0.272 N 
HETATM   19  H   UNL     1       5.953  26.279  56.561  1.00  0.00     0.189 HD
HETATM   20  N   UNL     1       6.633  24.467  55.927  1.00  0.00    -0.174 NA
HETATM   21  C   UNL     1       7.090  24.074  54.726  1.00  0.00     0.089 A 
HETATM   22  C   UNL     1       7.040  25.162  53.807  1.00  0.00     0.071 A 
BRANCH  21  23
HETATM   23  C   UNL     1       7.563  22.702  54.495  1.00  0.00    -0.006 A 
HETATM   24  C   UNL     1       7.731  21.817  55.574  1.00  0.00     0.014 A 
HETATM   25  C   UNL     1       8.189  20.512  55.371  1.00  0.00     0.001 A 
HETATM   26  C   UNL     1       8.485  20.071  54.085  1.00  0.00     0.000 A 
HETATM   27  C   UNL     1       8.323  20.932  53.002  1.00  0.00     0.001 A 
HETATM   28  C   UNL     1       7.865  22.239  53.206  1.00  0.00     0.014 A 
ENDBRANCH  21  23
ENDBRANCH   2  17
TORSDOF 7
ENDMDL
MODEL 8
REMARK VINA RESULT:      -8.8      6.709     10.437
REMARK  7 active torsions:
REMARK  status: ('A' for Active; 'I' for Inactive)
REMARK    1  A    between atoms: C_3  and  O_4 
REMARK    2  A    between atoms: O_4  and  C_5 
REMARK    3  A    between atoms: C_5  and  C_6 
REMARK    4  A    between atoms: C_7  and  C_8 
REMARK    5  A    between atoms: C_8  and  N_9 
REMARK       I    between atoms: N_9  and  C_10 
REMARK    6  A    between atoms: C_10  and  C_11 
REMARK    7  A    between atoms: C_15  and  C_16 
ROOT
HETATM    1  N   UNL     1       4.572  27.390  54.723  1.00  0.00    -0.345 N 
HETATM    2  C   UNL     1       5.935  27.260  54.810  1.00  0.00     0.270 C 
HETATM    3  O   UNL     1       6.706  28.206  54.696  1.00  0.00    -0.266 OA
HETATM    4  H   UNL     1       3.983  26.602  54.938  1.00  0.00     0.163 HD
ENDROOT
BRANCH   1   5
HETATM    5  C   UNL     1       3.936  28.674  54.567  1.00  0.00     0.217 C 
BRANCH   5   6
HETATM    6  C   UNL     1       3.491  28.844  53.181  1.00  0.00    -0.085 C 
HETATM    7  C   UNL     1       3.114  29.006  52.051  1.00  0.00    -0.078 C 
BRANCH   7   8
HETATM    8  C   UNL     1       2.643  29.234  50.677  1.00  0.00     0.269 C 
BRANCH   8   9
HETATM    9  O   UNL     1       3.628  28.748  49.769  1.00  0.00    -0.339 OA
BRANCH   9  10
HETATM   10  C   UNL     1       3.239  27.802  48.856  1.00  0.00     0.075 A 
HETATM   11  C   UNL     1       3.838  26.537  48.997  1.00  0.00    -0.029 A 
HETATM   12  C   UNL     1       4.859  26.270  50.069  1.00  0.00     0.051 C 
HETATM   13  C   UNL     1       3.518  25.516  48.087  1.00  0.00     0.009 A 
HETATM   14  C   UNL     1       2.600  25.740  47.064  1.00  0.00     0.001 A 
HETATM   15  C   UNL     1       2.001  26.990  46.932  1.00  0.00     0.003 A 
HETATM   16  C   UNL     1       2.323  28.019  47.822  1.00  0.00     0.037 A 
ENDBRANCH   9  10
ENDBRANCH   8   9
ENDBRANCH   7   8
ENDBRANCH   5   6
ENDBRANCH   1   5
BRANCH   2  17
HETATM   17  C   UNL     1       6.409  25.921  55.037  1.00  0.00     0.120 A 
HETATM   18  N   UNL     1       6.602  25.440  56.301  1.00  0.00    -0.272 N 
HETATM   19  H   UNL     1       6.435  25.938  57.171  1.00  0.00     0.189 HD
HETATM   20  N   UNL     1       7.062  24.184  56.350  1.00  0.00    -0.174 NA
HETATM   21  C   UNL     1       7.188  23.813  55.065  1.00  0.00     0.089 A 
HETATM   22  C   UNL     1       6.779  24.878  54.210  1.00  0.00     0.071 A 
BRANCH  21  23
HETATM   23  C   UNL     1       7.695  22.485  54.694  1.00  0.00    -0.006 A 
HETATM   24  C   UNL     1       7.905  22.155  53.344  1.00  0.00     0.014 A 
HETATM   25  C   UNL     1       8.377  20.893  52.974  1.00  0.00     0.001 A 
HETATM   26  C   UNL     1       8.647  19.938  53.950  1.00  0.00     0.000 A 
HETATM   27  C   UNL     1       8.447  20.246  55.295  1.00  0.00     0.001 A 
HETATM   28  C   UNL     1       7.974  21.510  55.664  1.00  0.00     0.014 A 
ENDBRANCH  21  23
ENDBRANCH   2  17
TORSDOF 7
ENDMDL
MODEL 9
REMARK VINA RESULT:      -8.8      3.105     11.134
REMARK  7 active torsions:
REMARK  status: ('A' for Active; 'I' for Inactive)
REMARK    1  A    between atoms: C_3  and  O_4 
REMARK    2  A    between atoms: O_4  and  C_5 
REMARK    3  A    between atoms: C_5  and  C_6 
REMARK    4  A    between atoms: C_7  and  C_8 
REMARK    5  A    between atoms: C_8  and  N_9 
REMARK       I    between atoms: N_9  and  C_10 
REMARK    6  A    between atoms: C_10  and  C_11 
REMARK    7  A    between atoms: C_15  and  C_16 
ROOT
HETATM    1  N   UNL     1       4.682  28.523  56.165  1.00  0.00    -0.345 N 
HETATM    2  C   UNL     1       4.527  28.228  54.834  1.00  0.00     0.270 C 
HETATM    3  O   UNL     1       3.996  28.993  54.036  1.00  0.00    -0.266 OA
HETATM    4  H   UNL     1       5.227  27.909  56.749  1.00  0.00     0.163 HD
ENDROOT
BRANCH   1   5
HETATM    5  C   UNL     1       4.297  29.798  56.715  1.00  0.00     0.217 C 
BRANCH   5   6
HETATM    6  C   UNL     1       5.439  30.411  57.397  1.00  0.00    -0.085 C 
HETATM    7  C   UNL     1       6.380  30.893  57.970  1.00  0.00    -0.078 C 
BRANCH   7   8
HETATM    8  C   UNL     1       7.538  31.452  58.682  1.00  0.00     0.269 C 
BRANCH   8   9
HETATM    9  O   UNL     1       7.590  30.887  59.989  1.00  0.00    -0.339 OA
BRANCH   9  10
HETATM   10  C   UNL     1       7.420  31.732  61.054  1.00  0.00     0.075 A 
HETATM   11  C   UNL     1       8.267  31.505  62.154  1.00  0.00    -0.029 A 
HETATM   12  C   UNL     1       9.268  30.382  62.151  1.00  0.00     0.051 C 
HETATM   13  C   UNL     1       8.142  32.308  63.299  1.00  0.00     0.009 A 
HETATM   14  C   UNL     1       7.203  33.336  63.346  1.00  0.00     0.001 A 
HETATM   15  C   UNL     1       6.372  33.564  62.254  1.00  0.00     0.003 A 
HETATM   16  C   UNL     1       6.476  32.763  61.113  1.00  0.00     0.037 A 
ENDBRANCH   9  10
ENDBRANCH   8   9
ENDBRANCH   7   8
ENDBRANCH   5   6
ENDBRANCH   1   5
BRANCH   2  17
HETATM   17  C   UNL     1       5.028  26.942  54.428  1.00  0.00     0.120 A 
HETATM   18  N   UNL     1       4.450  26.244  53.406  1.00  0.00    -0.272 N 
HETATM   19  H   UNL     1       3.657  26.538  52.844  1.00  0.00     0.189 HD
HETATM   20  N   UNL     1       5.018  25.056  53.158  1.00  0.00    -0.174 NA
HETATM   21  C   UNL     1       6.011  24.956  54.057  1.00  0.00     0.089 A 
HETATM   22  C   UNL     1       6.053  26.127  54.868  1.00  0.00     0.071 A 
BRANCH  21  23
HETATM   23  C   UNL     1       6.870  23.765  54.123  1.00  0.00    -0.006 A 
HETATM   24  C   UNL     1       7.232  23.218  55.366  1.00  0.00     0.014 A 
HETATM   25  C   UNL     1       8.056  22.092  55.445  1.00  0.00     0.001 A 
HETATM   26  C   UNL     1       8.531  21.494  54.282  1.00  0.00     0.000 A 
HETATM   27  C   UNL     1       8.183  22.020  53.040  1.00  0.00     0.001 A 
HETATM   28  C   UNL     1       7.358  23.148  52.961  1.00  0.00     0.014 A 
ENDBRANCH  21  23
ENDBRANCH   2  17
TORSDOF 7
ENDMDL
MODEL 10
REMARK VINA RESULT:      -8.7      7.452     10.854
REMARK  7 active torsions:
REMARK  status: ('A' for Active; 'I' for Inactive)
REMARK    1  A    between atoms: C_3  and  O_4 
REMARK    2  A    between atoms: O_4  and  C_5 
REMARK    3  A    between atoms: C_5  and  C_6 
REMARK    4  A    between atoms: C_7  and  C_8 
REMARK    5  A    between atoms: C_8  and  N_9 
REMARK       I    between atoms: N_9  and  C_10 
REMARK    6  A    between atoms: C_10  and  C_11 
REMARK    7  A    between atoms: C_15  and  C_16 
ROOT
HETATM    1  N   UNL     1       4.325  27.357  53.450  1.00  0.00    -0.345 N 
HETATM    2  C   UNL     1       5.312  26.981  54.325  1.00  0.00     0.270 C 
HETATM    3  O   UNL     1       5.650  27.663  55.286  1.00  0.00    -0.266 OA
HETATM    4  H   UNL     1       4.009  26.707  52.748  1.00  0.00     0.163 HD
ENDROOT
BRANCH   1   5
HETATM    5  C   UNL     1       3.551  28.558  53.641  1.00  0.00     0.217 C 
BRANCH   5   6
HETATM    6  C   UNL     1       2.941  28.965  52.373  1.00  0.00    -0.085 C 
HETATM    7  C   UNL     1       2.464  29.306  51.323  1.00  0.00    -0.078 C 
BRANCH   7   8
HETATM    8  C   UNL     1       1.909  29.727  50.028  1.00  0.00     0.269 C 
BRANCH   8   9
HETATM    9  O   UNL     1       2.882  29.490  49.015  1.00  0.00    -0.339 OA
BRANCH   9  10
HETATM   10  C   UNL     1       3.008  28.209  48.542  1.00  0.00     0.075 A 
HETATM   11  C   UNL     1       4.320  27.701  48.499  1.00  0.00    -0.029 A 
HETATM   12  C   UNL     1       5.496  28.538  48.921  1.00  0.00     0.051 C 
HETATM   13  C   UNL     1       4.543  26.408  48.002  1.00  0.00     0.009 A 
HETATM   14  C   UNL     1       3.478  25.618  47.573  1.00  0.00     0.001 A 
HETATM   15  C   UNL     1       2.181  26.119  47.625  1.00  0.00     0.003 A 
HETATM   16  C   UNL     1       1.946  27.411  48.103  1.00  0.00     0.037 A 
ENDBRANCH   9  10
ENDBRANCH   8   9
ENDBRANCH   7   8
ENDBRANCH   5   6
ENDBRANCH   1   5
BRANCH   2  17
HETATM   17  C   UNL     1       5.941  25.720  54.034  1.00  0.00     0.120 A 
HETATM   18  N   UNL     1       6.075  25.271  52.751  1.00  0.00    -0.272 N 
HETATM   19  H   UNL     1       5.774  25.750  51.907  1.00  0.00     0.189 HD
HETATM   20  N   UNL     1       6.666  24.074  52.644  1.00  0.00    -0.174 NA
HETATM   21  C   UNL     1       6.930  23.706  53.908  1.00  0.00     0.089 A 
HETATM   22  C   UNL     1       6.496  24.721  54.810  1.00  0.00     0.071 A 
BRANCH  21  23
HETATM   23  C   UNL     1       7.568  22.419  54.217  1.00  0.00    -0.006 A 
HETATM   24  C   UNL     1       8.030  21.588  53.182  1.00  0.00     0.014 A 
HETATM   25  C   UNL     1       8.630  20.357  53.459  1.00  0.00     0.001 A 
HETATM   26  C   UNL     1       8.778  19.936  54.777  1.00  0.00     0.000 A 
HETATM   27  C   UNL     1       8.328  20.746  55.818  1.00  0.00     0.001 A 
HETATM   28  C   UNL     1       7.727  21.979  55.540  1.00  0.00     0.014 A 
ENDBRANCH  21  23
ENDBRANCH   2  17
TORSDOF 7
ENDMDL
