MODEL 1
REMARK VINA RESULT:      -9.3      0.000      0.000
REMARK  10 active torsions:
REMARK  status: ('A' for Active; 'I' for Inactive)
REMARK    1  A    between atoms: C_2  and  O_3 
REMARK    2  A    between atoms: O_3  and  C_4 
REMARK    3  A    between atoms: C_7  and  N_8 
REMARK    4  A    between atoms: C_9  and  S_10 
REMARK    5  A    between atoms: S_10  and  C_11 
REMARK    6  A    between atoms: C_11  and  C_12 
REMARK       I    between atoms: C_12  and  N_13 
REMARK    7  A    between atoms: N_13  and  C_14 
REMARK    8  A    between atoms: C_15  and  O_16 
REMARK    9  A    between atoms: C_19  and  O_20 
REMARK   10  A    between atoms: C_29  and  N_30 
ROOT
HETATM    1  N   UNL     1       6.050  26.883  54.651  1.00  0.00    -0.276 N 
HETATM    2  C   UNL     1       6.567  27.808  55.513  1.00  0.00     0.177 A 
HETATM    3  N   UNL     1       6.129  29.069  55.615  1.00  0.00    -0.204 NA
HETATM    4  C   UNL     1       5.164  29.365  54.757  1.00  0.00     0.162 A 
HETATM    5  C   UNL     1       4.580  28.508  53.853  1.00  0.00     0.081 A 
HETATM    6  C   UNL     1       5.010  27.172  53.808  1.00  0.00     0.124 A 
HETATM    7  N   UNL     1       4.572  30.584  54.609  1.00  0.00    -0.260 N 
HETATM    8  H   UNL     1       4.777  31.440  55.116  1.00  0.00     0.191 HD
HETATM    9  N   UNL     1       3.622  30.585  53.660  1.00  0.00    -0.177 NA
HETATM   10  C   UNL     1       3.623  29.332  53.187  1.00  0.00     0.068 A 
HETATM   11  C   UNL     1       2.692  28.975  52.085  1.00  0.00     0.073 C 
ENDROOT
BRANCH   2  12
HETATM   12  S   UNL     1       7.925  27.431  56.639  1.00  0.00    -0.082 SA
BRANCH  12  13
HETATM   13  C   UNL     1       7.727  28.734  57.923  1.00  0.00     0.185 C 
BRANCH  13  14
HETATM   14  C   UNL     1       8.814  29.799  57.868  1.00  0.00     0.232 C 
HETATM   15  N   UNL     1       8.654  31.026  58.436  1.00  0.00    -0.324 N 
HETATM   16  H   UNL     1       9.292  31.722  58.056  1.00  0.00     0.169 HD
HETATM   17  O   UNL     1       9.846  29.594  57.216  1.00  0.00    -0.272 OA
BRANCH  15  18
HETATM   18  C   UNL     1       7.854  31.513  59.487  1.00  0.00     0.070 A 
HETATM   19  C   UNL     1       6.601  32.060  59.135  1.00  0.00     0.097 A 
HETATM   20  C   UNL     1       5.782  32.636  60.116  1.00  0.00     0.077 A 
HETATM   21  C   UNL     1       6.207  32.696  61.447  1.00  0.00     0.092 A 
HETATM   22  C   UNL     1       7.463  32.168  61.780  1.00  0.00     0.069 A 
HETATM   23 CL   UNL     1       8.072  32.245  63.398  1.00  0.00    -0.081 Cl
HETATM   24  C   UNL     1       8.283  31.583  60.809  1.00  0.00     0.059 A 
BRANCH  19  25
HETATM   25  O   UNL     1       6.275  31.957  57.801  1.00  0.00    -0.354 OA
HETATM   26  C   UNL     1       5.116  32.651  57.351  1.00  0.00     0.210 C 
ENDBRANCH  19  25
BRANCH  21  27
HETATM   27  O   UNL     1       5.483  33.249  62.470  1.00  0.00    -0.354 OA
HETATM   28  C   UNL     1       4.066  33.166  62.413  1.00  0.00     0.210 C 
ENDBRANCH  21  27
ENDBRANCH  15  18
ENDBRANCH  13  14
ENDBRANCH  12  13
ENDBRANCH   2  12
BRANCH   1  29
HETATM   29  C   UNL     1       6.633  25.571  54.573  1.00  0.00     0.043 A 
HETATM   30  C   UNL     1       7.564  25.290  53.571  1.00  0.00     0.033 A 
HETATM   31  C   UNL     1       8.226  24.056  53.590  1.00  0.00     0.039 A 
HETATM   32  C   UNL     1       7.970  23.135  54.610  1.00  0.00     0.068 A 
HETATM   33  C   UNL     1       7.030  23.441  55.602  1.00  0.00     0.039 A 
HETATM   34  C   UNL     1       6.355  24.661  55.593  1.00  0.00     0.033 A 
BRANCH  32  35
HETATM   35  O   UNL     1       8.574  21.922  54.773  1.00  0.00    -0.352 OA
BRANCH  35  36
HETATM   36  C   UNL     1       7.874  20.760  54.330  1.00  0.00     0.171 C 
HETATM   37  C   UNL     1       8.326  20.456  52.913  1.00  0.00     0.034 C 
ENDBRANCH  35  36
ENDBRANCH  32  35
ENDBRANCH   1  29
BRANCH   6  38
HETATM   38  N   UNL     1       4.427  26.229  52.967  1.00  0.00    -0.384 N 
HETATM   39  H   UNL     1       3.815  25.531  53.379  1.00  0.00     0.157 HD
HETATM   40  H   UNL     1       4.886  25.926  52.115  1.00  0.00     0.157 HD
ENDBRANCH   6  38
TORSDOF 10
ENDMDL
MODEL 2
REMARK VINA RESULT:      -8.7      2.913      5.252
REMARK  10 active torsions:
REMARK  status: ('A' for Active; 'I' for Inactive)
REMARK    1  A    between atoms: C_2  and  O_3 
REMARK    2  A    between atoms: O_3  and  C_4 
REMARK    3  A    between atoms: C_7  and  N_8 
REMARK    4  A    between atoms: C_9  and  S_10 
REMARK    5  A    between atoms: S_10  and  C_11 
REMARK    6  A    between atoms: C_11  and  C_12 
REMARK       I    between atoms: C_12  and  N_13 
REMARK    7  A    between atoms: N_13  and  C_14 
REMARK    8  A    between atoms: C_15  and  O_16 
REMARK    9  A    between atoms: C_19  and  O_20 
REMARK   10  A    between atoms: C_29  and  N_30 
ROOT
HETATM    1  N   UNL     1       6.770  24.471  54.493  1.00  0.00    -0.276 N 
HETATM    2  C   UNL     1       6.638  25.011  55.741  1.00  0.00     0.177 A 
HETATM    3  N   UNL     1       7.086  24.435  56.862  1.00  0.00    -0.204 NA
HETATM    4  C   UNL     1       7.637  23.246  56.662  1.00  0.00     0.162 A 
HETATM    5  C   UNL     1       7.814  22.619  55.450  1.00  0.00     0.081 A 
HETATM    6  C   UNL     1       7.395  23.272  54.280  1.00  0.00     0.124 A 
HETATM    7  N   UNL     1       8.129  22.420  57.627  1.00  0.00    -0.260 N 
HETATM    8  H   UNL     1       8.144  22.577  58.631  1.00  0.00     0.191 HD
HETATM    9  N   UNL     1       8.629  21.279  57.126  1.00  0.00    -0.177 NA
HETATM   10  C   UNL     1       8.435  21.384  55.805  1.00  0.00     0.068 A 
HETATM   11  C   UNL     1       8.856  20.264  54.922  1.00  0.00     0.073 C 
ENDROOT
BRANCH   2  12
HETATM   12  S   UNL     1       5.831  26.599  56.029  1.00  0.00    -0.082 SA
BRANCH  12  13
HETATM   13  C   UNL     1       7.050  27.455  57.110  1.00  0.00     0.185 C 
BRANCH  13  14
HETATM   14  C   UNL     1       7.766  28.603  56.412  1.00  0.00     0.232 C 
HETATM   15  N   UNL     1       7.772  29.867  56.920  1.00  0.00    -0.324 N 
HETATM   16  H   UNL     1       7.992  30.572  56.219  1.00  0.00     0.169 HD
HETATM   17  O   UNL     1       8.288  28.423  55.304  1.00  0.00    -0.272 OA
BRANCH  15  18
HETATM   18  C   UNL     1       7.621  30.393  58.217  1.00  0.00     0.070 A 
HETATM   19  C   UNL     1       6.540  31.277  58.425  1.00  0.00     0.097 A 
HETATM   20  C   UNL     1       6.370  31.903  59.667  1.00  0.00     0.077 A 
HETATM   21  C   UNL     1       7.280  31.677  60.704  1.00  0.00     0.092 A 
HETATM   22  C   UNL     1       8.363  30.812  60.478  1.00  0.00     0.069 A 
HETATM   23 CL   UNL     1       9.552  30.518  61.701  1.00  0.00    -0.081 Cl
HETATM   24  C   UNL     1       8.534  30.176  59.244  1.00  0.00     0.059 A 
BRANCH  19  25
HETATM   25  O   UNL     1       5.703  31.438  57.344  1.00  0.00    -0.354 OA
HETATM   26  C   UNL     1       4.386  30.907  57.447  1.00  0.00     0.210 C 
ENDBRANCH  19  25
BRANCH  21  27
HETATM   27  O   UNL     1       7.204  32.250  61.946  1.00  0.00    -0.354 OA
HETATM   28  C   UNL     1       6.789  33.606  62.036  1.00  0.00     0.210 C 
ENDBRANCH  21  27
ENDBRANCH  15  18
ENDBRANCH  13  14
ENDBRANCH  12  13
ENDBRANCH   2  12
BRANCH   1  29
HETATM   29  C   UNL     1       6.197  25.141  53.357  1.00  0.00     0.043 A 
HETATM   30  C   UNL     1       6.911  26.162  52.727  1.00  0.00     0.033 A 
HETATM   31  C   UNL     1       6.405  26.710  51.542  1.00  0.00     0.039 A 
HETATM   32  C   UNL     1       5.215  26.223  50.992  1.00  0.00     0.068 A 
HETATM   33  C   UNL     1       4.517  25.199  51.645  1.00  0.00     0.039 A 
HETATM   34  C   UNL     1       5.001  24.649  52.831  1.00  0.00     0.033 A 
BRANCH  32  35
HETATM   35  O   UNL     1       4.637  26.633  49.827  1.00  0.00    -0.352 OA
BRANCH  35  36
HETATM   36  C   UNL     1       4.701  28.021  49.498  1.00  0.00     0.171 C 
HETATM   37  C   UNL     1       5.226  28.139  48.079  1.00  0.00     0.034 C 
ENDBRANCH  35  36
ENDBRANCH  32  35
ENDBRANCH   1  29
BRANCH   6  38
HETATM   38  N   UNL     1       7.595  22.732  53.012  1.00  0.00    -0.384 N 
HETATM   39  H   UNL     1       8.098  23.289  52.328  1.00  0.00     0.157 HD
HETATM   40  H   UNL     1       6.938  22.074  52.609  1.00  0.00     0.157 HD
ENDBRANCH   6  38
TORSDOF 10
ENDMDL
MODEL 3
REMARK VINA RESULT:      -8.7      2.275      4.882
REMARK  10 active torsions:
REMARK  status: ('A' for Active; 'I' for Inactive)
REMARK    1  A    between atoms: C_2  and  O_3 
REMARK    2  A    between atoms: O_3  and  C_4 
REMARK    3  A    between atoms: C_7  and  N_8 
REMARK    4  A    between atoms: C_9  and  S_10 
REMARK    5  A    between atoms: S_10  and  C_11 
REMARK    6  A    between atoms: C_11  and  C_12 
REMARK       I    between atoms: C_12  and  N_13 
REMARK    7  A    between atoms: N_13  and  C_14 
REMARK    8  A    between atoms: C_15  and  O_16 
REMARK    9  A    between atoms: C_19  and  O_20 
REMARK   10  A    between atoms: C_29  and  N_30 
ROOT
HETATM    1  N   UNL     1       6.775  26.763  55.217  1.00  0.00    -0.276 N 
HETATM    2  C   UNL     1       7.356  27.345  56.308  1.00  0.00     0.177 A 
HETATM    3  N   UNL     1       8.061  26.679  57.231  1.00  0.00    -0.204 NA
HETATM    4  C   UNL     1       8.107  25.372  57.019  1.00  0.00     0.162 A 
HETATM    5  C   UNL     1       7.555  24.694  55.956  1.00  0.00     0.081 A 
HETATM    6  C   UNL     1       6.875  25.421  54.965  1.00  0.00     0.124 A 
HETATM    7  N   UNL     1       8.709  24.452  57.823  1.00  0.00    -0.260 N 
HETATM    8  H   UNL     1       9.202  24.618  58.697  1.00  0.00     0.191 HD
HETATM    9  N   UNL     1       8.595  23.199  57.353  1.00  0.00    -0.177 NA
HETATM   10  C   UNL     1       7.887  23.332  56.224  1.00  0.00     0.068 A 
HETATM   11  C   UNL     1       7.546  22.117  55.439  1.00  0.00     0.073 C 
ENDROOT
BRANCH   2  12
HETATM   12  S   UNL     1       7.244  29.115  56.638  1.00  0.00    -0.082 SA
BRANCH  12  13
HETATM   13  C   UNL     1       8.114  29.257  58.253  1.00  0.00     0.185 C 
BRANCH  13  14
HETATM   14  C   UNL     1       9.121  30.399  58.293  1.00  0.00     0.232 C 
HETATM   15  N   UNL     1       8.843  31.587  58.897  1.00  0.00    -0.324 N 
HETATM   16  H   UNL     1       9.445  32.343  58.576  1.00  0.00     0.169 HD
HETATM   17  O   UNL     1      10.194  30.297  57.685  1.00  0.00    -0.272 OA
BRANCH  15  18
HETATM   18  C   UNL     1       7.961  31.971  59.925  1.00  0.00     0.070 A 
HETATM   19  C   UNL     1       6.672  32.395  59.534  1.00  0.00     0.097 A 
HETATM   20  C   UNL     1       5.764  32.867  60.492  1.00  0.00     0.077 A 
HETATM   21  C   UNL     1       6.133  32.946  61.839  1.00  0.00     0.092 A 
HETATM   22  C   UNL     1       7.425  32.542  62.211  1.00  0.00     0.069 A 
HETATM   23 CL   UNL     1       7.965  32.651  63.851  1.00  0.00    -0.081 Cl
HETATM   24  C   UNL     1       8.333  32.061  61.263  1.00  0.00     0.059 A 
BRANCH  19  25
HETATM   25  O   UNL     1       6.405  32.283  58.188  1.00  0.00    -0.354 OA
HETATM   26  C   UNL     1       5.041  32.176  57.794  1.00  0.00     0.210 C 
ENDBRANCH  19  25
BRANCH  21  27
HETATM   27  O   UNL     1       5.321  33.403  62.843  1.00  0.00    -0.354 OA
HETATM   28  C   UNL     1       3.979  33.743  62.521  1.00  0.00     0.210 C 
ENDBRANCH  21  27
ENDBRANCH  15  18
ENDBRANCH  13  14
ENDBRANCH  12  13
ENDBRANCH   2  12
BRANCH   1  29
HETATM   29  C   UNL     1       5.985  27.558  54.317  1.00  0.00     0.043 A 
HETATM   30  C   UNL     1       6.553  28.025  53.130  1.00  0.00     0.033 A 
HETATM   31  C   UNL     1       5.735  28.677  52.200  1.00  0.00     0.039 A 
HETATM   32  C   UNL     1       4.369  28.836  52.451  1.00  0.00     0.068 A 
HETATM   33  C   UNL     1       3.824  28.360  53.650  1.00  0.00     0.039 A 
HETATM   34  C   UNL     1       4.625  27.716  54.591  1.00  0.00     0.033 A 
BRANCH  32  35
HETATM   35  O   UNL     1       3.455  29.409  51.615  1.00  0.00    -0.352 OA
BRANCH  35  36
HETATM   36  C   UNL     1       3.527  29.093  50.225  1.00  0.00     0.171 C 
HETATM   37  C   UNL     1       2.124  28.758  49.751  1.00  0.00     0.034 C 
ENDBRANCH  35  36
ENDBRANCH  32  35
ENDBRANCH   1  29
BRANCH   6  38
HETATM   38  N   UNL     1       6.344  24.818  53.829  1.00  0.00    -0.384 N 
HETATM   39  H   UNL     1       6.775  25.021  52.932  1.00  0.00     0.157 HD
HETATM   40  H   UNL     1       5.362  24.573  53.771  1.00  0.00     0.157 HD
ENDBRANCH   6  38
TORSDOF 10
ENDMDL
MODEL 4
REMARK VINA RESULT:      -8.6      2.553      3.650
REMARK  10 active torsions:
REMARK  status: ('A' for Active; 'I' for Inactive)
REMARK    1  A    between atoms: C_2  and  O_3 
REMARK    2  A    between atoms: O_3  and  C_4 
REMARK    3  A    between atoms: C_7  and  N_8 
REMARK    4  A    between atoms: C_9  and  S_10 
REMARK    5  A    between atoms: S_10  and  C_11 
REMARK    6  A    between atoms: C_11  and  C_12 
REMARK       I    between atoms: C_12  and  N_13 
REMARK    7  A    between atoms: N_13  and  C_14 
REMARK    8  A    between atoms: C_15  and  O_16 
REMARK    9  A    between atoms: C_19  and  O_20 
REMARK   10  A    between atoms: C_29  and  N_30 
ROOT
HETATM    1  N   UNL     1       5.545  27.001  51.661  1.00  0.00    -0.276 N 
HETATM    2  C   UNL     1       5.875  28.200  52.225  1.00  0.00     0.177 A 
HETATM    3  N   UNL     1       5.498  29.389  51.739  1.00  0.00    -0.204 NA
HETATM    4  C   UNL     1       4.804  29.304  50.613  1.00  0.00     0.162 A 
HETATM    5  C   UNL     1       4.425  28.149  49.970  1.00  0.00     0.081 A 
HETATM    6  C   UNL     1       4.776  26.911  50.532  1.00  0.00     0.124 A 
HETATM    7  N   UNL     1       4.340  30.355  49.879  1.00  0.00    -0.260 N 
HETATM    8  H   UNL     1       4.456  31.346  50.071  1.00  0.00     0.191 HD
HETATM    9  N   UNL     1       3.668  29.964  48.784  1.00  0.00    -0.177 NA
HETATM   10  C   UNL     1       3.720  28.626  48.824  1.00  0.00     0.068 A 
HETATM   11  C   UNL     1       3.084  27.846  47.729  1.00  0.00     0.073 C 
ENDROOT
BRANCH   2  12
HETATM   12  S   UNL     1       6.874  28.326  53.722  1.00  0.00    -0.082 SA
BRANCH  12  13
HETATM   13  C   UNL     1       5.677  29.047  54.919  1.00  0.00     0.185 C 
BRANCH  13  14
HETATM   14  C   UNL     1       5.466  28.179  56.152  1.00  0.00     0.232 C 
HETATM   15  N   UNL     1       6.139  28.399  57.315  1.00  0.00    -0.324 N 
HETATM   16  H   UNL     1       6.152  27.583  57.923  1.00  0.00     0.169 HD
HETATM   17  O   UNL     1       4.733  27.183  56.088  1.00  0.00    -0.272 OA
BRANCH  15  18
HETATM   18  C   UNL     1       6.745  29.534  57.886  1.00  0.00     0.070 A 
HETATM   19  C   UNL     1       8.132  29.460  58.133  1.00  0.00     0.097 A 
HETATM   20  C   UNL     1       8.793  30.520  58.771  1.00  0.00     0.077 A 
HETATM   21  C   UNL     1       8.081  31.647  59.191  1.00  0.00     0.092 A 
HETATM   22  C   UNL     1       6.698  31.699  58.959  1.00  0.00     0.069 A 
HETATM   23 CL   UNL     1       5.745  33.044  59.488  1.00  0.00    -0.081 Cl
HETATM   24  C   UNL     1       6.033  30.651  58.314  1.00  0.00     0.059 A 
BRANCH  19  25
HETATM   25  O   UNL     1       8.743  28.310  57.687  1.00  0.00    -0.354 OA
HETATM   26  C   UNL     1       9.737  28.441  56.677  1.00  0.00     0.210 C 
ENDBRANCH  19  25
BRANCH  21  27
HETATM   27  O   UNL     1       8.635  32.724  59.831  1.00  0.00    -0.354 OA
HETATM   28  C   UNL     1       9.121  32.543  61.154  1.00  0.00     0.210 C 
ENDBRANCH  21  27
ENDBRANCH  15  18
ENDBRANCH  13  14
ENDBRANCH  12  13
ENDBRANCH   2  12
BRANCH   1  29
HETATM   29  C   UNL     1       6.053  25.779  52.225  1.00  0.00     0.043 A 
HETATM   30  C   UNL     1       7.260  25.254  51.757  1.00  0.00     0.033 A 
HETATM   31  C   UNL     1       7.811  24.144  52.408  1.00  0.00     0.039 A 
HETATM   32  C   UNL     1       7.172  23.589  53.521  1.00  0.00     0.068 A 
HETATM   33  C   UNL     1       5.962  24.135  53.969  1.00  0.00     0.039 A 
HETATM   34  C   UNL     1       5.394  25.233  53.327  1.00  0.00     0.033 A 
BRANCH  32  35
HETATM   35  O   UNL     1       7.621  22.542  54.271  1.00  0.00    -0.352 OA
BRANCH  35  36
HETATM   36  C   UNL     1       8.743  21.804  53.789  1.00  0.00     0.171 C 
HETATM   37  C   UNL     1       8.222  20.527  53.153  1.00  0.00     0.034 C 
ENDBRANCH  35  36
ENDBRANCH  32  35
ENDBRANCH   1  29
BRANCH   6  38
HETATM   38  N   UNL     1       4.376  25.699  49.976  1.00  0.00    -0.384 N 
HETATM   39  H   UNL     1       3.641  25.176  50.443  1.00  0.00     0.157 HD
HETATM   40  H   UNL     1       5.020  25.124  49.445  1.00  0.00     0.157 HD
ENDBRANCH   6  38
TORSDOF 10
ENDMDL
MODEL 5
REMARK VINA RESULT:      -8.6      3.283      7.805
REMARK  10 active torsions:
REMARK  status: ('A' for Active; 'I' for Inactive)
REMARK    1  A    between atoms: C_2  and  O_3 
REMARK    2  A    between atoms: O_3  and  C_4 
REMARK    3  A    between atoms: C_7  and  N_8 
REMARK    4  A    between atoms: C_9  and  S_10 
REMARK    5  A    between atoms: S_10  and  C_11 
REMARK    6  A    between atoms: C_11  and  C_12 
REMARK       I    between atoms: C_12  and  N_13 
REMARK    7  A    between atoms: N_13  and  C_14 
REMARK    8  A    between atoms: C_15  and  O_16 
REMARK    9  A    between atoms: C_19  and  O_20 
REMARK   10  A    between atoms: C_29  and  N_30 
ROOT
HETATM    1  N   UNL     1       7.642  25.365  55.583  1.00  0.00    -0.276 N 
HETATM    2  C   UNL     1       7.608  25.488  54.223  1.00  0.00     0.177 A 
HETATM    3  N   UNL     1       7.777  24.470  53.370  1.00  0.00    -0.204 NA
HETATM    4  C   UNL     1       8.035  23.317  53.969  1.00  0.00     0.162 A 
HETATM    5  C   UNL     1       8.092  23.092  55.325  1.00  0.00     0.081 A 
HETATM    6  C   UNL     1       7.847  24.161  56.202  1.00  0.00     0.124 A 
HETATM    7  N   UNL     1       8.297  22.133  53.346  1.00  0.00    -0.260 N 
HETATM    8  H   UNL     1       8.343  21.955  52.346  1.00  0.00     0.191 HD
HETATM    9  N   UNL     1       8.521  21.131  54.211  1.00  0.00    -0.177 NA
HETATM   10  C   UNL     1       8.408  21.703  55.417  1.00  0.00     0.068 A 
HETATM   11  C   UNL     1       8.622  20.874  56.632  1.00  0.00     0.073 C 
ENDROOT
BRANCH   2  12
HETATM   12  S   UNL     1       7.321  27.068  53.400  1.00  0.00    -0.082 SA
BRANCH  12  13
HETATM   13  C   UNL     1       6.266  26.569  51.977  1.00  0.00     0.185 C 
BRANCH  13  14
HETATM   14  C   UNL     1       4.897  26.053  52.398  1.00  0.00     0.232 C 
HETATM   15  N   UNL     1       4.019  26.821  53.101  1.00  0.00    -0.324 N 
HETATM   16  H   UNL     1       3.312  26.270  53.584  1.00  0.00     0.169 HD
HETATM   17  O   UNL     1       4.590  24.873  52.184  1.00  0.00    -0.272 OA
BRANCH  15  18
HETATM   18  C   UNL     1       3.835  28.210  53.234  1.00  0.00     0.070 A 
HETATM   19  C   UNL     1       3.461  28.918  52.072  1.00  0.00     0.097 A 
HETATM   20  C   UNL     1       3.336  30.314  52.105  1.00  0.00     0.077 A 
HETATM   21  C   UNL     1       3.603  31.020  53.283  1.00  0.00     0.092 A 
HETATM   22  C   UNL     1       3.995  30.306  54.426  1.00  0.00     0.069 A 
HETATM   23 CL   UNL     1       4.383  31.116  55.905  1.00  0.00    -0.081 Cl
HETATM   24  C   UNL     1       4.113  28.913  54.403  1.00  0.00     0.059 A 
BRANCH  19  25
HETATM   25  O   UNL     1       3.224  28.136  50.964  1.00  0.00    -0.354 OA
HETATM   26  C   UNL     1       3.876  28.498  49.751  1.00  0.00     0.210 C 
ENDBRANCH  19  25
BRANCH  21  27
HETATM   27  O   UNL     1       3.520  32.382  53.410  1.00  0.00    -0.354 OA
HETATM   28  C   UNL     1       2.281  33.011  53.112  1.00  0.00     0.210 C 
ENDBRANCH  21  27
ENDBRANCH  15  18
ENDBRANCH  13  14
ENDBRANCH  12  13
ENDBRANCH   2  12
BRANCH   1  29
HETATM   29  C   UNL     1       7.512  26.532  56.412  1.00  0.00     0.043 A 
HETATM   30  C   UNL     1       8.655  27.237  56.794  1.00  0.00     0.033 A 
HETATM   31  C   UNL     1       8.505  28.446  57.484  1.00  0.00     0.039 A 
HETATM   32  C   UNL     1       7.229  28.946  57.762  1.00  0.00     0.068 A 
HETATM   33  C   UNL     1       6.098  28.219  57.368  1.00  0.00     0.039 A 
HETATM   34  C   UNL     1       6.229  27.008  56.690  1.00  0.00     0.033 A 
BRANCH  32  35
HETATM   35  O   UNL     1       6.942  30.126  58.383  1.00  0.00    -0.352 OA
BRANCH  35  36
HETATM   36  C   UNL     1       7.901  30.653  59.298  1.00  0.00     0.171 C 
HETATM   37  C   UNL     1       7.428  32.032  59.724  1.00  0.00     0.034 C 
ENDBRANCH  35  36
ENDBRANCH  32  35
ENDBRANCH   1  29
BRANCH   6  38
HETATM   38  N   UNL     1       7.824  24.001  57.584  1.00  0.00    -0.384 N 
HETATM   39  H   UNL     1       6.934  23.796  58.029  1.00  0.00     0.157 HD
HETATM   40  H   UNL     1       8.484  24.485  58.183  1.00  0.00     0.157 HD
ENDBRANCH   6  38
TORSDOF 10
ENDMDL
MODEL 6
REMARK VINA RESULT:      -8.5      4.536      9.457
REMARK  10 active torsions:
REMARK  status: ('A' for Active; 'I' for Inactive)
REMARK    1  A    between atoms: C_2  and  O_3 
REMARK    2  A    between atoms: O_3  and  C_4 
REMARK    3  A    between atoms: C_7  and  N_8 
REMARK    4  A    between atoms: C_9  and  S_10 
REMARK    5  A    between atoms: S_10  and  C_11 
REMARK    6  A    between atoms: C_11  and  C_12 
REMARK       I    between atoms: C_12  and  N_13 
REMARK    7  A    between atoms: N_13  and  C_14 
REMARK    8  A    between atoms: C_15  and  O_16 
REMARK    9  A    between atoms: C_19  and  O_20 
REMARK   10  A    between atoms: C_29  and  N_30 
ROOT
HETATM    1  N   UNL     1       7.631  25.189  55.602  1.00  0.00    -0.276 N 
HETATM    2  C   UNL     1       7.490  25.288  54.247  1.00  0.00     0.177 A 
HETATM    3  N   UNL     1       7.576  24.253  53.403  1.00  0.00    -0.204 NA
HETATM    4  C   UNL     1       7.864  23.106  54.001  1.00  0.00     0.162 A 
HETATM    5  C   UNL     1       8.026  22.905  55.353  1.00  0.00     0.081 A 
HETATM    6  C   UNL     1       7.867  23.993  56.226  1.00  0.00     0.124 A 
HETATM    7  N   UNL     1       8.059  21.908  53.382  1.00  0.00    -0.260 N 
HETATM    8  H   UNL     1       8.021  21.710  52.385  1.00  0.00     0.191 HD
HETATM    9  N   UNL     1       8.336  20.918  54.246  1.00  0.00    -0.177 NA
HETATM   10  C   UNL     1       8.328  21.512  55.445  1.00  0.00     0.068 A 
HETATM   11  C   UNL     1       8.626  20.702  56.655  1.00  0.00     0.073 C 
ENDROOT
BRANCH   2  12
HETATM   12  S   UNL     1       7.162  26.857  53.419  1.00  0.00    -0.082 SA
BRANCH  12  13
HETATM   13  C   UNL     1       6.565  26.300  51.770  1.00  0.00     0.185 C 
BRANCH  13  14
HETATM   14  C   UNL     1       5.062  26.059  51.727  1.00  0.00     0.232 C 
HETATM   15  N   UNL     1       4.200  26.967  51.192  1.00  0.00    -0.324 N 
HETATM   16  H   UNL     1       3.242  26.838  51.514  1.00  0.00     0.169 HD
HETATM   17  O   UNL     1       4.582  25.056  52.270  1.00  0.00    -0.272 OA
BRANCH  15  18
HETATM   18  C   UNL     1       4.336  27.988  50.233  1.00  0.00     0.070 A 
HETATM   19  C   UNL     1       3.865  27.708  48.932  1.00  0.00     0.097 A 
HETATM   20  C   UNL     1       4.037  28.644  47.902  1.00  0.00     0.077 A 
HETATM   21  C   UNL     1       4.698  29.851  48.147  1.00  0.00     0.092 A 
HETATM   22  C   UNL     1       5.181  30.109  49.439  1.00  0.00     0.069 A 
HETATM   23 CL   UNL     1       6.045  31.563  49.805  1.00  0.00    -0.081 Cl
HETATM   24  C   UNL     1       5.005  29.184  50.474  1.00  0.00     0.059 A 
BRANCH  19  25
HETATM   25  O   UNL     1       3.233  26.493  48.790  1.00  0.00    -0.354 OA
HETATM   26  C   UNL     1       3.529  25.729  47.626  1.00  0.00     0.210 C 
ENDBRANCH  19  25
BRANCH  21  27
HETATM   27  O   UNL     1       4.924  30.820  47.205  1.00  0.00    -0.354 OA
HETATM   28  C   UNL     1       3.845  31.672  46.844  1.00  0.00     0.210 C 
ENDBRANCH  21  27
ENDBRANCH  15  18
ENDBRANCH  13  14
ENDBRANCH  12  13
ENDBRANCH   2  12
BRANCH   1  29
HETATM   29  C   UNL     1       7.584  26.373  56.416  1.00  0.00     0.043 A 
HETATM   30  C   UNL     1       8.770  27.043  56.727  1.00  0.00     0.033 A 
HETATM   31  C   UNL     1       8.698  28.267  57.402  1.00  0.00     0.039 A 
HETATM   32  C   UNL     1       7.456  28.815  57.737  1.00  0.00     0.068 A 
HETATM   33  C   UNL     1       6.282  28.122  57.415  1.00  0.00     0.039 A 
HETATM   34  C   UNL     1       6.336  26.897  56.752  1.00  0.00     0.033 A 
BRANCH  32  35
HETATM   35  O   UNL     1       7.242  30.015  58.351  1.00  0.00    -0.352 OA
BRANCH  35  36
HETATM   36  C   UNL     1       8.093  30.372  59.440  1.00  0.00     0.171 C 
HETATM   37  C   UNL     1       8.368  31.862  59.345  1.00  0.00     0.034 C 
ENDBRANCH  35  36
ENDBRANCH  32  35
ENDBRANCH   1  29
BRANCH   6  38
HETATM   38  N   UNL     1       7.952  23.859  57.608  1.00  0.00    -0.384 N 
HETATM   39  H   UNL     1       7.798  22.939  58.011  1.00  0.00     0.157 HD
HETATM   40  H   UNL     1       7.722  24.627  58.229  1.00  0.00     0.157 HD
ENDBRANCH   6  38
TORSDOF 10
ENDMDL
MODEL 7
REMARK VINA RESULT:      -8.0      4.511      9.295
REMARK  10 active torsions:
REMARK  status: ('A' for Active; 'I' for Inactive)
REMARK    1  A    between atoms: C_2  and  O_3 
REMARK    2  A    between atoms: O_3  and  C_4 
REMARK    3  A    between atoms: C_7  and  N_8 
REMARK    4  A    between atoms: C_9  and  S_10 
REMARK    5  A    between atoms: S_10  and  C_11 
REMARK    6  A    between atoms: C_11  and  C_12 
REMARK       I    between atoms: C_12  and  N_13 
REMARK    7  A    between atoms: N_13  and  C_14 
REMARK    8  A    between atoms: C_15  and  O_16 
REMARK    9  A    between atoms: C_19  and  O_20 
REMARK   10  A    between atoms: C_29  and  N_30 
ROOT
HETATM    1  N   UNL     1       7.591  26.505  55.984  1.00  0.00    -0.276 N 
HETATM    2  C   UNL     1       7.242  26.585  54.665  1.00  0.00     0.177 A 
HETATM    3  N   UNL     1       7.083  25.526  53.863  1.00  0.00    -0.204 NA
HETATM    4  C   UNL     1       7.346  24.370  54.455  1.00  0.00     0.162 A 
HETATM    5  C   UNL     1       7.705  24.186  55.770  1.00  0.00     0.081 A 
HETATM    6  C   UNL     1       7.802  25.307  56.611  1.00  0.00     0.124 A 
HETATM    7  N   UNL     1       7.314  23.143  53.863  1.00  0.00    -0.260 N 
HETATM    8  H   UNL     1       7.095  22.926  52.894  1.00  0.00     0.191 HD
HETATM    9  N   UNL     1       7.627  22.151  54.712  1.00  0.00    -0.177 NA
HETATM   10  C   UNL     1       7.874  22.773  55.872  1.00  0.00     0.068 A 
HETATM   11  C   UNL     1       8.282  21.965  57.051  1.00  0.00     0.073 C 
ENDROOT
BRANCH   2  12
HETATM   12  S   UNL     1       6.945  28.159  53.836  1.00  0.00    -0.082 SA
BRANCH  12  13
HETATM   13  C   UNL     1       5.382  27.821  52.925  1.00  0.00     0.185 C 
BRANCH  13  14
HETATM   14  C   UNL     1       4.252  28.770  53.301  1.00  0.00     0.232 C 
HETATM   15  N   UNL     1       3.627  29.552  52.377  1.00  0.00    -0.324 N 
HETATM   16  H   UNL     1       3.143  30.345  52.794  1.00  0.00     0.169 HD
HETATM   17  O   UNL     1       3.939  28.917  54.489  1.00  0.00    -0.272 OA
BRANCH  15  18
HETATM   18  C   UNL     1       3.442  29.450  50.985  1.00  0.00     0.070 A 
HETATM   19  C   UNL     1       4.121  30.391  50.181  1.00  0.00     0.097 A 
HETATM   20  C   UNL     1       3.926  30.404  48.793  1.00  0.00     0.077 A 
HETATM   21  C   UNL     1       3.038  29.503  48.195  1.00  0.00     0.092 A 
HETATM   22  C   UNL     1       2.352  28.588  49.008  1.00  0.00     0.069 A 
HETATM   23 CL   UNL     1       1.208  27.473  48.343  1.00  0.00    -0.081 Cl
HETATM   24  C   UNL     1       2.550  28.562  50.393  1.00  0.00     0.059 A 
BRANCH  19  25
HETATM   25  O   UNL     1       4.968  31.236  50.861  1.00  0.00    -0.354 OA
HETATM   26  C   UNL     1       5.922  31.967  50.099  1.00  0.00     0.210 C 
ENDBRANCH  19  25
BRANCH  21  27
HETATM   27  O   UNL     1       2.773  29.448  46.852  1.00  0.00    -0.354 OA
HETATM   28  C   UNL     1       2.042  30.517  46.266  1.00  0.00     0.210 C 
ENDBRANCH  21  27
ENDBRANCH  15  18
ENDBRANCH  13  14
ENDBRANCH  12  13
ENDBRANCH   2  12
BRANCH   1  29
HETATM   29  C   UNL     1       7.798  27.707  56.745  1.00  0.00     0.043 A 
HETATM   30  C   UNL     1       9.077  28.263  56.820  1.00  0.00     0.033 A 
HETATM   31  C   UNL     1       9.239  29.504  57.447  1.00  0.00     0.039 A 
HETATM   32  C   UNL     1       8.131  30.181  57.967  1.00  0.00     0.068 A 
HETATM   33  C   UNL     1       6.860  29.601  57.879  1.00  0.00     0.039 A 
HETATM   34  C   UNL     1       6.682  28.362  57.268  1.00  0.00     0.033 A 
BRANCH  32  35
HETATM   35  O   UNL     1       8.142  31.410  58.559  1.00  0.00    -0.352 OA
BRANCH  35  36
HETATM   36  C   UNL     1       7.780  31.495  59.937  1.00  0.00     0.171 C 
HETATM   37  C   UNL     1       9.017  31.900  60.719  1.00  0.00     0.034 C 
ENDBRANCH  35  36
ENDBRANCH  32  35
ENDBRANCH   1  29
BRANCH   6  38
HETATM   38  N   UNL     1       8.097  25.198  57.967  1.00  0.00    -0.384 N 
HETATM   39  H   UNL     1       8.001  26.026  58.547  1.00  0.00     0.157 HD
HETATM   40  H   UNL     1       8.782  24.532  58.307  1.00  0.00     0.157 HD
ENDBRANCH   6  38
TORSDOF 10
ENDMDL
MODEL 8
REMARK VINA RESULT:      -7.9      4.490      8.107
REMARK  10 active torsions:
REMARK  status: ('A' for Active; 'I' for Inactive)
REMARK    1  A    between atoms: C_2  and  O_3 
REMARK    2  A    between atoms: O_3  and  C_4 
REMARK    3  A    between atoms: C_7  and  N_8 
REMARK    4  A    between atoms: C_9  and  S_10 
REMARK    5  A    between atoms: S_10  and  C_11 
REMARK    6  A    between atoms: C_11  and  C_12 
REMARK       I    between atoms: C_12  and  N_13 
REMARK    7  A    between atoms: N_13  and  C_14 
REMARK    8  A    between atoms: C_15  and  O_16 
REMARK    9  A    between atoms: C_19  and  O_20 
REMARK   10  A    between atoms: C_29  and  N_30 
ROOT
HETATM    1  N   UNL     1       6.533  27.671  55.723  1.00  0.00    -0.276 N 
HETATM    2  C   UNL     1       5.487  28.394  55.225  1.00  0.00     0.177 A 
HETATM    3  N   UNL     1       5.190  29.644  55.600  1.00  0.00    -0.204 NA
HETATM    4  C   UNL     1       5.983  30.113  56.552  1.00  0.00     0.162 A 
HETATM    5  C   UNL     1       7.056  29.465  57.117  1.00  0.00     0.081 A 
HETATM    6  C   UNL     1       7.390  28.179  56.662  1.00  0.00     0.124 A 
HETATM    7  N   UNL     1       5.876  31.332  57.153  1.00  0.00    -0.260 N 
HETATM    8  H   UNL     1       5.183  32.054  56.975  1.00  0.00     0.191 HD
HETATM    9  N   UNL     1       6.822  31.534  58.085  1.00  0.00    -0.177 NA
HETATM   10  C   UNL     1       7.540  30.403  58.078  1.00  0.00     0.068 A 
HETATM   11  C   UNL     1       8.679  30.266  59.024  1.00  0.00     0.073 C 
ENDROOT
BRANCH   2  12
HETATM   12  S   UNL     1       4.364  27.738  53.975  1.00  0.00    -0.082 SA
BRANCH  12  13
HETATM   13  C   UNL     1       5.241  28.165  52.414  1.00  0.00     0.185 C 
BRANCH  13  14
HETATM   14  C   UNL     1       4.990  27.165  51.293  1.00  0.00     0.232 C 
HETATM   15  N   UNL     1       4.087  27.401  50.302  1.00  0.00    -0.324 N 
HETATM   16  H   UNL     1       3.790  26.550  49.828  1.00  0.00     0.169 HD
HETATM   17  O   UNL     1       5.547  26.059  51.316  1.00  0.00    -0.272 OA
BRANCH  15  18
HETATM   18  C   UNL     1       3.544  28.573  49.743  1.00  0.00     0.070 A 
HETATM   19  C   UNL     1       4.335  29.252  48.790  1.00  0.00     0.097 A 
HETATM   20  C   UNL     1       3.898  30.468  48.247  1.00  0.00     0.077 A 
HETATM   21  C   UNL     1       2.687  31.033  48.661  1.00  0.00     0.092 A 
HETATM   22  C   UNL     1       1.920  30.359  49.624  1.00  0.00     0.069 A 
HETATM   23 CL   UNL     1       0.433  31.019  50.214  1.00  0.00    -0.081 Cl
HETATM   24  C   UNL     1       2.345  29.141  50.164  1.00  0.00     0.059 A 
BRANCH  19  25
HETATM   25  O   UNL     1       5.510  28.620  48.452  1.00  0.00    -0.354 OA
HETATM   26  C   UNL     1       5.539  27.897  47.225  1.00  0.00     0.210 C 
ENDBRANCH  19  25
BRANCH  21  27
HETATM   27  O   UNL     1       2.183  32.220  48.198  1.00  0.00    -0.354 OA
HETATM   28  C   UNL     1       1.571  32.236  46.915  1.00  0.00     0.210 C 
ENDBRANCH  21  27
ENDBRANCH  15  18
ENDBRANCH  13  14
ENDBRANCH  12  13
ENDBRANCH   2  12
BRANCH   1  29
HETATM   29  C   UNL     1       6.731  26.311  55.300  1.00  0.00     0.043 A 
HETATM   30  C   UNL     1       7.516  26.046  54.177  1.00  0.00     0.033 A 
HETATM   31  C   UNL     1       7.814  24.716  53.858  1.00  0.00     0.039 A 
HETATM   32  C   UNL     1       7.349  23.676  54.668  1.00  0.00     0.068 A 
HETATM   33  C   UNL     1       6.562  23.968  55.789  1.00  0.00     0.039 A 
HETATM   34  C   UNL     1       6.248  25.286  56.115  1.00  0.00     0.033 A 
BRANCH  32  35
HETATM   35  O   UNL     1       7.602  22.346  54.499  1.00  0.00    -0.352 OA
BRANCH  35  36
HETATM   36  C   UNL     1       8.674  21.972  53.634  1.00  0.00     0.171 C 
HETATM   37  C   UNL     1       8.267  20.699  52.913  1.00  0.00     0.034 C 
ENDBRANCH  35  36
ENDBRANCH  32  35
ENDBRANCH   1  29
BRANCH   6  38
HETATM   38  N   UNL     1       8.498  27.484  57.139  1.00  0.00    -0.384 N 
HETATM   39  H   UNL     1       8.484  26.469  57.093  1.00  0.00     0.157 HD
HETATM   40  H   UNL     1       9.075  27.857  57.884  1.00  0.00     0.157 HD
ENDBRANCH   6  38
TORSDOF 10
ENDMDL
MODEL 9
REMARK VINA RESULT:      -7.9      5.239     10.133
REMARK  10 active torsions:
REMARK  status: ('A' for Active; 'I' for Inactive)
REMARK    1  A    between atoms: C_2  and  O_3 
REMARK    2  A    between atoms: O_3  and  C_4 
REMARK    3  A    between atoms: C_7  and  N_8 
REMARK    4  A    between atoms: C_9  and  S_10 
REMARK    5  A    between atoms: S_10  and  C_11 
REMARK    6  A    between atoms: C_11  and  C_12 
REMARK       I    between atoms: C_12  and  N_13 
REMARK    7  A    between atoms: N_13  and  C_14 
REMARK    8  A    between atoms: C_15  and  O_16 
REMARK    9  A    between atoms: C_19  and  O_20 
REMARK   10  A    between atoms: C_29  and  N_30 
ROOT
HETATM    1  N   UNL     1       6.512  26.652  55.056  1.00  0.00    -0.276 N 
HETATM    2  C   UNL     1       5.934  26.611  53.819  1.00  0.00     0.177 A 
HETATM    3  N   UNL     1       5.978  25.552  53.002  1.00  0.00    -0.204 NA
HETATM    4  C   UNL     1       6.688  24.542  53.483  1.00  0.00     0.162 A 
HETATM    5  C   UNL     1       7.308  24.488  54.710  1.00  0.00     0.081 A 
HETATM    6  C   UNL     1       7.193  25.585  55.579  1.00  0.00     0.124 A 
HETATM    7  N   UNL     1       6.941  23.366  52.844  1.00  0.00    -0.260 N 
HETATM    8  H   UNL     1       6.637  23.086  51.915  1.00  0.00     0.191 HD
HETATM    9  N   UNL     1       7.689  22.527  53.579  1.00  0.00    -0.177 NA
HETATM   10  C   UNL     1       7.926  23.201  54.711  1.00  0.00     0.068 A 
HETATM   11  C   UNL     1       8.763  22.570  55.765  1.00  0.00     0.073 C 
ENDROOT
BRANCH   2  12
HETATM   12  S   UNL     1       5.020  28.006  53.130  1.00  0.00    -0.082 SA
BRANCH  12  13
HETATM   13  C   UNL     1       5.149  27.689  51.322  1.00  0.00     0.185 C 
BRANCH  13  14
HETATM   14  C   UNL     1       5.451  28.944  50.514  1.00  0.00     0.232 C 
HETATM   15  N   UNL     1       5.093  29.066  49.205  1.00  0.00    -0.324 N 
HETATM   16  H   UNL     1       5.624  29.783  48.717  1.00  0.00     0.169 HD
HETATM   17  O   UNL     1       6.119  29.856  51.017  1.00  0.00    -0.272 OA
BRANCH  15  18
HETATM   18  C   UNL     1       4.094  28.469  48.413  1.00  0.00     0.070 A 
HETATM   19  C   UNL     1       3.088  29.320  47.907  1.00  0.00     0.097 A 
HETATM   20  C   UNL     1       2.017  28.789  47.175  1.00  0.00     0.077 A 
HETATM   21  C   UNL     1       1.921  27.410  46.961  1.00  0.00     0.092 A 
HETATM   22  C   UNL     1       2.916  26.573  47.487  1.00  0.00     0.069 A 
HETATM   23 CL   UNL     1       2.841  24.854  47.298  1.00  0.00    -0.081 Cl
HETATM   24  C   UNL     1       3.994  27.096  48.210  1.00  0.00     0.059 A 
BRANCH  19  25
HETATM   25  O   UNL     1       3.268  30.659  48.174  1.00  0.00    -0.354 OA
HETATM   26  C   UNL     1       2.140  31.396  48.633  1.00  0.00     0.210 C 
ENDBRANCH  19  25
BRANCH  21  27
HETATM   27  O   UNL     1       0.908  26.798  46.271  1.00  0.00    -0.354 OA
HETATM   28  C   UNL     1      -0.235  27.571  45.928  1.00  0.00     0.210 C 
ENDBRANCH  21  27
ENDBRANCH  15  18
ENDBRANCH  13  14
ENDBRANCH  12  13
ENDBRANCH   2  12
BRANCH   1  29
HETATM   29  C   UNL     1       6.461  27.861  55.832  1.00  0.00     0.043 A 
HETATM   30  C   UNL     1       5.361  28.104  56.658  1.00  0.00     0.033 A 
HETATM   31  C   UNL     1       5.387  29.214  57.510  1.00  0.00     0.039 A 
HETATM   32  C   UNL     1       6.509  30.049  57.546  1.00  0.00     0.068 A 
HETATM   33  C   UNL     1       7.598  29.784  56.707  1.00  0.00     0.039 A 
HETATM   34  C   UNL     1       7.584  28.689  55.844  1.00  0.00     0.033 A 
BRANCH  32  35
HETATM   35  O   UNL     1       6.683  31.131  58.358  1.00  0.00    -0.352 OA
BRANCH  35  36
HETATM   36  C   UNL     1       7.961  31.316  58.965  1.00  0.00     0.171 C 
HETATM   37  C   UNL     1       7.780  32.237  60.159  1.00  0.00     0.034 C 
ENDBRANCH  35  36
ENDBRANCH  32  35
ENDBRANCH   1  29
BRANCH   6  38
HETATM   38  N   UNL     1       7.736  25.583  56.860  1.00  0.00    -0.384 N 
HETATM   39  H   UNL     1       7.170  25.943  57.622  1.00  0.00     0.157 HD
HETATM   40  H   UNL     1       8.735  25.668  57.010  1.00  0.00     0.157 HD
ENDBRANCH   6  38
TORSDOF 10
ENDMDL
MODEL 10
REMARK VINA RESULT:      -7.9      2.457      5.468
REMARK  10 active torsions:
REMARK  status: ('A' for Active; 'I' for Inactive)
REMARK    1  A    between atoms: C_2  and  O_3 
REMARK    2  A    between atoms: O_3  and  C_4 
REMARK    3  A    between atoms: C_7  and  N_8 
REMARK    4  A    between atoms: C_9  and  S_10 
REMARK    5  A    between atoms: S_10  and  C_11 
REMARK    6  A    between atoms: C_11  and  C_12 
REMARK       I    between atoms: C_12  and  N_13 
REMARK    7  A    between atoms: N_13  and  C_14 
REMARK    8  A    between atoms: C_15  and  O_16 
REMARK    9  A    between atoms: C_19  and  O_20 
REMARK   10  A    between atoms: C_29  and  N_30 
ROOT
HETATM    1  N   UNL     1       6.324  26.779  54.014  1.00  0.00    -0.276 N 
HETATM    2  C   UNL     1       6.729  27.062  55.288  1.00  0.00     0.177 A 
HETATM    3  N   UNL     1       7.471  26.242  56.041  1.00  0.00    -0.204 NA
HETATM    4  C   UNL     1       7.745  25.086  55.453  1.00  0.00     0.162 A 
HETATM    5  C   UNL     1       7.383  24.708  54.181  1.00  0.00     0.081 A 
HETATM    6  C   UNL     1       6.660  25.610  53.384  1.00  0.00     0.124 A 
HETATM    7  N   UNL     1       8.437  24.051  56.007  1.00  0.00    -0.260 N 
HETATM    8  H   UNL     1       8.837  24.000  56.941  1.00  0.00     0.191 HD
HETATM    9  N   UNL     1       8.561  23.006  55.173  1.00  0.00    -0.177 NA
HETATM   10  C   UNL     1       7.917  23.390  54.064  1.00  0.00     0.068 A 
HETATM   11  C   UNL     1       7.832  22.448  52.916  1.00  0.00     0.073 C 
ENDROOT
BRANCH   2  12
HETATM   12  S   UNL     1       6.305  28.606  56.118  1.00  0.00    -0.082 SA
BRANCH  12  13
HETATM   13  C   UNL     1       7.229  28.451  57.702  1.00  0.00     0.185 C 
BRANCH  13  14
HETATM   14  C   UNL     1       8.499  29.291  57.739  1.00  0.00     0.232 C 
HETATM   15  N   UNL     1       8.503  30.576  58.191  1.00  0.00    -0.324 N 
HETATM   16  H   UNL     1       9.309  31.106  57.864  1.00  0.00     0.169 HD
HETATM   17  O   UNL     1       9.550  28.842  57.266  1.00  0.00    -0.272 OA
BRANCH  15  18
HETATM   18  C   UNL     1       7.678  31.298  59.073  1.00  0.00     0.070 A 
HETATM   19  C   UNL     1       7.994  31.225  60.447  1.00  0.00     0.097 A 
HETATM   20  C   UNL     1       7.172  31.851  61.394  1.00  0.00     0.077 A 
HETATM   21  C   UNL     1       6.020  32.534  60.991  1.00  0.00     0.092 A 
HETATM   22  C   UNL     1       5.706  32.581  59.624  1.00  0.00     0.069 A 
HETATM   23 CL   UNL     1       4.274  33.371  59.056  1.00  0.00    -0.081 Cl
HETATM   24  C   UNL     1       6.525  31.967  58.672  1.00  0.00     0.059 A 
BRANCH  19  25
HETATM   25  O   UNL     1       9.143  30.528  60.744  1.00  0.00    -0.354 OA
HETATM   26  C   UNL     1       9.419  30.266  62.116  1.00  0.00     0.210 C 
ENDBRANCH  19  25
BRANCH  21  27
HETATM   27  O   UNL     1       5.152  33.166  61.842  1.00  0.00    -0.354 OA
HETATM   28  C   UNL     1       5.694  33.967  62.883  1.00  0.00     0.210 C 
ENDBRANCH  21  27
ENDBRANCH  15  18
ENDBRANCH  13  14
ENDBRANCH  12  13
ENDBRANCH   2  12
BRANCH   1  29
HETATM   29  C   UNL     1       5.474  27.700  53.310  1.00  0.00     0.043 A 
HETATM   30  C   UNL     1       6.027  28.555  52.354  1.00  0.00     0.033 A 
HETATM   31  C   UNL     1       5.172  29.347  51.579  1.00  0.00     0.039 A 
HETATM   32  C   UNL     1       3.787  29.263  51.750  1.00  0.00     0.068 A 
HETATM   33  C   UNL     1       3.258  28.399  52.716  1.00  0.00     0.039 A 
HETATM   34  C   UNL     1       4.095  27.611  53.503  1.00  0.00     0.033 A 
BRANCH  32  35
HETATM   35  O   UNL     1       2.843  29.942  51.035  1.00  0.00    -0.352 OA
BRANCH  35  36
HETATM   36  C   UNL     1       3.102  30.197  49.655  1.00  0.00     0.171 C 
HETATM   37  C   UNL     1       2.957  31.691  49.423  1.00  0.00     0.034 C 
ENDBRANCH  35  36
ENDBRANCH  32  35
ENDBRANCH   1  29
BRANCH   6  38
HETATM   38  N   UNL     1       6.311  25.328  52.067  1.00  0.00    -0.384 N 
HETATM   39  H   UNL     1       6.646  25.951  51.337  1.00  0.00     0.157 HD
HETATM   40  H   UNL     1       5.445  24.852  51.840  1.00  0.00     0.157 HD
ENDBRANCH   6  38
TORSDOF 10
ENDMDL
