MODEL 1
REMARK VINA RESULT:     -10.7      0.000      0.000
REMARK  9 active torsions:
REMARK  status: ('A' for Active; 'I' for Inactive)
REMARK    1  A    between atoms: C_7  and  C_8 
REMARK    2  A    between atoms: C_9  and  O_10 
REMARK    3  A    between atoms: C_13  and  N_14 
REMARK    4  A    between atoms: N_14  and  C_15 
REMARK    5  A    between atoms: C_15  and  N_16 
REMARK       I    between atoms: N_16  and  C_17 
REMARK    6  A    between atoms: C_17  and  C_18 
REMARK    7  A    between atoms: C_21  and  O_22 
REMARK    8  A    between atoms: O_22  and  C_23 
REMARK    9  A    between atoms: C_23  and  C_24 
ROOT
HETATM    1  N   UNL     1       7.470  29.627  58.485  1.00  0.00    -0.337 N 
HETATM    2  H   UNL     1       6.993  29.725  59.373  1.00  0.00     0.168 HD
ENDROOT
BRANCH   1   3
HETATM    3  C   UNL     1       6.814  28.840  57.512  1.00  0.00     0.035 A 
HETATM    4  C   UNL     1       5.654  29.349  56.926  1.00  0.00     0.032 A 
HETATM    5  C   UNL     1       4.936  28.584  56.005  1.00  0.00     0.040 A 
HETATM    6  C   UNL     1       5.357  27.292  55.693  1.00  0.00     0.080 A 
HETATM    7  C   UNL     1       6.502  26.742  56.287  1.00  0.00     0.052 A 
HETATM    8  C   UNL     1       7.223  27.538  57.197  1.00  0.00     0.048 A 
BRANCH   6   9
HETATM    9  O   UNL     1       4.578  26.605  54.796  1.00  0.00    -0.360 OA
HETATM   10  H   UNL     1       5.051  26.569  53.937  1.00  0.00     0.217 HD
ENDBRANCH   6   9
BRANCH   7  11
HETATM   11  C   UNL     1       6.907  25.369  55.999  1.00  0.00     0.183 A 
HETATM   12  N   UNL     1       7.327  24.447  56.854  1.00  0.00    -0.221 NA
HETATM   13  C   UNL     1       7.613  23.370  56.049  1.00  0.00     0.093 A 
HETATM   14  C   UNL     1       7.336  23.682  54.728  1.00  0.00     0.107 A 
HETATM   15  C   UNL     1       8.116  22.100  56.351  1.00  0.00     0.035 A 
HETATM   16  C   UNL     1       7.511  22.818  53.654  1.00  0.00     0.046 A 
HETATM   17  O   UNL     1       6.882  24.966  54.688  1.00  0.00    -0.289 OA
HETATM   18  C   UNL     1       8.004  21.539  53.963  1.00  0.00    -0.059 A 
HETATM   19  C   UNL     1       8.259  20.551  52.860  1.00  0.00     0.048 C 
HETATM   20  C   UNL     1       8.313  21.196  55.294  1.00  0.00     0.009 A 
ENDBRANCH   7  11
ENDBRANCH   1   3
BRANCH   1  21
HETATM   21  C   UNL     1       8.599  30.394  58.325  1.00  0.00     0.157 C 
HETATM   22  S   UNL     1      10.072  29.875  57.718  1.00  0.00    -0.047 SA
BRANCH  21  23
HETATM   23  N   UNL     1       8.494  31.723  58.675  1.00  0.00    -0.201 NA
HETATM   24  C   UNL     1       8.865  32.173  59.923  1.00  0.00     0.237 C 
HETATM   25  O   UNL     1       9.958  32.690  60.132  1.00  0.00    -0.274 OA
HETATM   26  H   UNL     1       8.993  32.242  57.959  1.00  0.00     0.139 HD
BRANCH  24  27
HETATM   27  C   UNL     1       7.853  32.096  61.001  1.00  0.00     0.026 A 
HETATM   28  C   UNL     1       8.284  31.976  62.325  1.00  0.00     0.019 A 
HETATM   29  C   UNL     1       7.353  32.010  63.369  1.00  0.00     0.038 A 
HETATM   30  C   UNL     1       5.997  32.198  63.092  1.00  0.00     0.068 A 
HETATM   31  C   UNL     1       5.571  32.286  61.763  1.00  0.00     0.038 A 
HETATM   32  C   UNL     1       6.493  32.234  60.713  1.00  0.00     0.019 A 
BRANCH  30  33
HETATM   33  O   UNL     1       5.002  32.316  64.024  1.00  0.00    -0.351 OA
BRANCH  33  34
HETATM   34  C   UNL     1       4.564  33.644  64.326  1.00  0.00     0.179 C 
BRANCH  34  35
HETATM   35  C   UNL     1       4.650  33.870  65.843  1.00  0.00     0.002 C 
HETATM   36  C   UNL     1       6.100  34.106  66.264  1.00  0.00     0.011 C 
HETATM   37  C   UNL     1       3.776  35.048  66.278  1.00  0.00     0.011 C 
ENDBRANCH  34  35
ENDBRANCH  33  34
ENDBRANCH  30  33
ENDBRANCH  24  27
ENDBRANCH  21  23
ENDBRANCH   1  21
TORSDOF 9
ENDMDL
MODEL 2
REMARK VINA RESULT:     -10.6      2.213     11.382
REMARK  9 active torsions:
REMARK  status: ('A' for Active; 'I' for Inactive)
REMARK    1  A    between atoms: C_7  and  C_8 
REMARK    2  A    between atoms: C_9  and  O_10 
REMARK    3  A    between atoms: C_13  and  N_14 
REMARK    4  A    between atoms: N_14  and  C_15 
REMARK    5  A    between atoms: C_15  and  N_16 
REMARK       I    between atoms: N_16  and  C_17 
REMARK    6  A    between atoms: C_17  and  C_18 
REMARK    7  A    between atoms: C_21  and  O_22 
REMARK    8  A    between atoms: O_22  and  C_23 
REMARK    9  A    between atoms: C_23  and  C_24 
ROOT
HETATM    1  N   UNL     1       7.157  28.303  56.302  1.00  0.00    -0.337 N 
HETATM    2  H   UNL     1       7.599  27.397  56.206  1.00  0.00     0.168 HD
ENDROOT
BRANCH   1   3
HETATM    3  C   UNL     1       7.916  29.297  56.962  1.00  0.00     0.035 A 
HETATM    4  C   UNL     1       9.250  29.465  56.587  1.00  0.00     0.032 A 
HETATM    5  C   UNL     1      10.057  30.390  57.252  1.00  0.00     0.040 A 
HETATM    6  C   UNL     1       9.541  31.127  58.316  1.00  0.00     0.080 A 
HETATM    7  C   UNL     1       8.213  30.960  58.735  1.00  0.00     0.052 A 
HETATM    8  C   UNL     1       7.411  30.037  58.039  1.00  0.00     0.048 A 
BRANCH   6   9
HETATM    9  O   UNL     1      10.412  31.995  58.925  1.00  0.00    -0.360 OA
HETATM   10  H   UNL     1      11.317  31.811  58.594  1.00  0.00     0.217 HD
ENDBRANCH   6   9
BRANCH   7  11
HETATM   11  C   UNL     1       7.694  31.693  59.886  1.00  0.00     0.183 A 
HETATM   12  N   UNL     1       6.687  32.554  59.918  1.00  0.00    -0.221 NA
HETATM   13  C   UNL     1       6.663  32.970  61.228  1.00  0.00     0.093 A 
HETATM   14  C   UNL     1       7.656  32.325  61.946  1.00  0.00     0.107 A 
HETATM   15  C   UNL     1       5.845  33.893  61.889  1.00  0.00     0.035 A 
HETATM   16  C   UNL     1       7.909  32.513  63.300  1.00  0.00     0.046 A 
HETATM   17  O   UNL     1       8.324  31.502  61.090  1.00  0.00    -0.289 OA
HETATM   18  C   UNL     1       7.075  33.431  63.963  1.00  0.00    -0.059 A 
HETATM   19  C   UNL     1       7.299  33.725  65.419  1.00  0.00     0.048 C 
HETATM   20  C   UNL     1       6.068  34.118  63.258  1.00  0.00     0.009 A 
ENDBRANCH   7  11
ENDBRANCH   1   3
BRANCH   1  21
HETATM   21  C   UNL     1       5.959  28.457  55.646  1.00  0.00     0.157 C 
HETATM   22  S   UNL     1       4.476  28.783  56.355  1.00  0.00    -0.047 SA
BRANCH  21  23
HETATM   23  N   UNL     1       5.994  28.358  54.272  1.00  0.00    -0.201 NA
HETATM   24  C   UNL     1       5.396  27.309  53.608  1.00  0.00     0.237 C 
HETATM   25  O   UNL     1       4.282  27.407  53.103  1.00  0.00    -0.274 OA
HETATM   26  H   UNL     1       5.635  29.239  53.918  1.00  0.00     0.139 HD
BRANCH  24  27
HETATM   27  C   UNL     1       6.190  26.071  53.440  1.00  0.00     0.026 A 
HETATM   28  C   UNL     1       7.113  25.997  52.393  1.00  0.00     0.019 A 
HETATM   29  C   UNL     1       7.951  24.882  52.277  1.00  0.00     0.038 A 
HETATM   30  C   UNL     1       7.891  23.859  53.226  1.00  0.00     0.068 A 
HETATM   31  C   UNL     1       6.943  23.926  54.253  1.00  0.00     0.038 A 
HETATM   32  C   UNL     1       6.089  25.028  54.364  1.00  0.00     0.019 A 
BRANCH  30  33
HETATM   33  O   UNL     1       8.699  22.756  53.261  1.00  0.00    -0.351 OA
BRANCH  33  34
HETATM   34  C   UNL     1       9.046  22.259  54.556  1.00  0.00     0.179 C 
BRANCH  34  35
HETATM   35  C   UNL     1       8.763  20.750  54.610  1.00  0.00     0.002 C 
HETATM   36  C   UNL     1       7.734  20.442  55.696  1.00  0.00     0.011 C 
HETATM   37  C   UNL     1       8.273  20.229  53.257  1.00  0.00     0.011 C 
ENDBRANCH  34  35
ENDBRANCH  33  34
ENDBRANCH  30  33
ENDBRANCH  24  27
ENDBRANCH  21  23
ENDBRANCH   1  21
TORSDOF 9
ENDMDL
MODEL 3
REMARK VINA RESULT:     -10.6      2.383     10.862
REMARK  9 active torsions:
REMARK  status: ('A' for Active; 'I' for Inactive)
REMARK    1  A    between atoms: C_7  and  C_8 
REMARK    2  A    between atoms: C_9  and  O_10 
REMARK    3  A    between atoms: C_13  and  N_14 
REMARK    4  A    between atoms: N_14  and  C_15 
REMARK    5  A    between atoms: C_15  and  N_16 
REMARK       I    between atoms: N_16  and  C_17 
REMARK    6  A    between atoms: C_17  and  C_18 
REMARK    7  A    between atoms: C_21  and  O_22 
REMARK    8  A    between atoms: O_22  and  C_23 
REMARK    9  A    between atoms: C_23  and  C_24 
ROOT
HETATM    1  N   UNL     1       5.533  29.473  55.153  1.00  0.00    -0.337 N 
HETATM    2  H   UNL     1       4.770  30.098  55.383  1.00  0.00     0.168 HD
ENDROOT
BRANCH   1   3
HETATM    3  C   UNL     1       6.714  29.629  55.914  1.00  0.00     0.035 A 
HETATM    4  C   UNL     1       7.893  29.063  55.424  1.00  0.00     0.032 A 
HETATM    5  C   UNL     1       9.071  29.136  56.169  1.00  0.00     0.040 A 
HETATM    6  C   UNL     1       9.067  29.746  57.422  1.00  0.00     0.080 A 
HETATM    7  C   UNL     1       7.892  30.296  57.954  1.00  0.00     0.052 A 
HETATM    8  C   UNL     1       6.720  30.230  57.179  1.00  0.00     0.048 A 
BRANCH   6   9
HETATM    9  O   UNL     1      10.263  29.751  58.094  1.00  0.00    -0.360 OA
HETATM   10  H   UNL     1      10.807  29.003  57.765  1.00  0.00     0.217 HD
ENDBRANCH   6   9
BRANCH   7  11
HETATM   11  C   UNL     1       7.879  30.883  59.292  1.00  0.00     0.183 A 
HETATM   12  N   UNL     1       8.553  30.486  60.362  1.00  0.00    -0.221 NA
HETATM   13  C   UNL     1       8.137  31.355  61.343  1.00  0.00     0.093 A 
HETATM   14  C   UNL     1       7.230  32.261  60.816  1.00  0.00     0.107 A 
HETATM   15  C   UNL     1       8.465  31.441  62.700  1.00  0.00     0.035 A 
HETATM   16  C   UNL     1       6.613  33.277  61.536  1.00  0.00     0.046 A 
HETATM   17  O   UNL     1       7.060  31.964  59.498  1.00  0.00    -0.289 OA
HETATM   18  C   UNL     1       6.957  33.369  62.896  1.00  0.00    -0.059 A 
HETATM   19  C   UNL     1       6.310  34.415  63.760  1.00  0.00     0.048 C 
HETATM   20  C   UNL     1       7.861  32.451  63.466  1.00  0.00     0.009 A 
ENDBRANCH   7  11
ENDBRANCH   1   3
BRANCH   1  21
HETATM   21  C   UNL     1       5.242  28.484  54.244  1.00  0.00     0.157 C 
HETATM   22  S   UNL     1       5.621  28.496  52.611  1.00  0.00    -0.047 SA
BRANCH  21  23
HETATM   23  N   UNL     1       4.602  27.366  54.734  1.00  0.00    -0.201 NA
HETATM   24  C   UNL     1       5.187  26.558  55.684  1.00  0.00     0.237 C 
HETATM   25  O   UNL     1       4.921  26.656  56.877  1.00  0.00    -0.274 OA
HETATM   26  H   UNL     1       3.696  27.684  55.063  1.00  0.00     0.139 HD
BRANCH  24  27
HETATM   27  C   UNL     1       6.090  25.489  55.202  1.00  0.00     0.026 A 
HETATM   28  C   UNL     1       5.824  24.882  53.971  1.00  0.00     0.019 A 
HETATM   29  C   UNL     1       6.720  23.946  53.443  1.00  0.00     0.038 A 
HETATM   30  C   UNL     1       7.898  23.642  54.128  1.00  0.00     0.068 A 
HETATM   31  C   UNL     1       8.143  24.230  55.374  1.00  0.00     0.038 A 
HETATM   32  C   UNL     1       7.243  25.152  55.916  1.00  0.00     0.019 A 
BRANCH  30  33
HETATM   33  O   UNL     1       8.882  22.799  53.687  1.00  0.00    -0.351 OA
BRANCH  33  34
HETATM   34  C   UNL     1       9.426  21.894  54.651  1.00  0.00     0.179 C 
BRANCH  34  35
HETATM   35  C   UNL     1       8.679  20.555  54.563  1.00  0.00     0.002 C 
HETATM   36  C   UNL     1       7.646  20.450  55.684  1.00  0.00     0.011 C 
HETATM   37  C   UNL     1       8.001  20.386  53.202  1.00  0.00     0.011 C 
ENDBRANCH  34  35
ENDBRANCH  33  34
ENDBRANCH  30  33
ENDBRANCH  24  27
ENDBRANCH  21  23
ENDBRANCH   1  21
TORSDOF 9
ENDMDL
MODEL 4
REMARK VINA RESULT:     -10.4      3.128     11.386
REMARK  9 active torsions:
REMARK  status: ('A' for Active; 'I' for Inactive)
REMARK    1  A    between atoms: C_7  and  C_8 
REMARK    2  A    between atoms: C_9  and  O_10 
REMARK    3  A    between atoms: C_13  and  N_14 
REMARK    4  A    between atoms: N_14  and  C_15 
REMARK    5  A    between atoms: C_15  and  N_16 
REMARK       I    between atoms: N_16  and  C_17 
REMARK    6  A    between atoms: C_17  and  C_18 
REMARK    7  A    between atoms: C_21  and  O_22 
REMARK    8  A    between atoms: O_22  and  C_23 
REMARK    9  A    between atoms: C_23  and  C_24 
ROOT
HETATM    1  N   UNL     1       8.306  27.295  57.029  1.00  0.00    -0.337 N 
HETATM    2  H   UNL     1       9.030  26.647  56.743  1.00  0.00     0.168 HD
ENDROOT
BRANCH   1   3
HETATM    3  C   UNL     1       8.743  28.582  57.419  1.00  0.00     0.035 A 
HETATM    4  C   UNL     1       9.913  29.083  56.844  1.00  0.00     0.032 A 
HETATM    5  C   UNL     1      10.418  30.321  57.243  1.00  0.00     0.040 A 
HETATM    6  C   UNL     1       9.775  31.048  58.243  1.00  0.00     0.080 A 
HETATM    7  C   UNL     1       8.615  30.558  58.860  1.00  0.00     0.052 A 
HETATM    8  C   UNL     1       8.110  29.317  58.430  1.00  0.00     0.048 A 
BRANCH   6   9
HETATM    9  O   UNL     1      10.355  32.243  58.588  1.00  0.00    -0.360 OA
HETATM   10  H   UNL     1      11.238  32.293  58.163  1.00  0.00     0.217 HD
ENDBRANCH   6   9
BRANCH   7  11
HETATM   11  C   UNL     1       7.976  31.297  59.946  1.00  0.00     0.183 A 
HETATM   12  N   UNL     1       6.834  31.968  59.914  1.00  0.00    -0.221 NA
HETATM   13  C   UNL     1       6.738  32.497  61.179  1.00  0.00     0.093 A 
HETATM   14  C   UNL     1       7.829  32.107  61.937  1.00  0.00     0.107 A 
HETATM   15  C   UNL     1       5.771  33.322  61.764  1.00  0.00     0.035 A 
HETATM   16  C   UNL     1       8.046  32.466  63.263  1.00  0.00     0.046 A 
HETATM   17  O   UNL     1       8.630  31.334  61.151  1.00  0.00    -0.289 OA
HETATM   18  C   UNL     1       7.065  33.283  63.850  1.00  0.00    -0.059 A 
HETATM   19  C   UNL     1       7.234  33.751  65.268  1.00  0.00     0.048 C 
HETATM   20  C   UNL     1       5.952  33.713  63.101  1.00  0.00     0.009 A 
ENDBRANCH   7  11
ENDBRANCH   1   3
BRANCH   1  21
HETATM   21  C   UNL     1       7.013  26.865  56.849  1.00  0.00     0.157 C 
HETATM   22  S   UNL     1       5.635  27.816  56.910  1.00  0.00    -0.047 SA
BRANCH  21  23
HETATM   23  N   UNL     1       6.844  25.527  56.565  1.00  0.00    -0.201 NA
HETATM   24  C   UNL     1       7.476  24.931  55.495  1.00  0.00     0.237 C 
HETATM   25  O   UNL     1       8.513  24.290  55.626  1.00  0.00    -0.274 OA
HETATM   26  H   UNL     1       7.069  25.028  57.420  1.00  0.00     0.139 HD
BRANCH  24  27
HETATM   27  C   UNL     1       6.803  25.011  54.179  1.00  0.00     0.026 A 
HETATM   28  C   UNL     1       5.408  24.938  54.127  1.00  0.00     0.019 A 
HETATM   29  C   UNL     1       4.743  25.119  52.910  1.00  0.00     0.038 A 
HETATM   30  C   UNL     1       5.469  25.406  51.752  1.00  0.00     0.068 A 
HETATM   31  C   UNL     1       6.866  25.446  51.805  1.00  0.00     0.038 A 
HETATM   32  C   UNL     1       7.539  25.247  53.015  1.00  0.00     0.019 A 
BRANCH  30  33
HETATM   33  O   UNL     1       4.933  25.668  50.520  1.00  0.00    -0.351 OA
BRANCH  33  34
HETATM   34  C   UNL     1       4.776  27.047  50.173  1.00  0.00     0.179 C 
BRANCH  34  35
HETATM   35  C   UNL     1       3.982  27.150  48.863  1.00  0.00     0.002 C 
HETATM   36  C   UNL     1       3.524  25.764  48.409  1.00  0.00     0.011 C 
HETATM   37  C   UNL     1       2.776  28.079  49.016  1.00  0.00     0.011 C 
ENDBRANCH  34  35
ENDBRANCH  33  34
ENDBRANCH  30  33
ENDBRANCH  24  27
ENDBRANCH  21  23
ENDBRANCH   1  21
TORSDOF 9
ENDMDL
MODEL 5
REMARK VINA RESULT:     -10.2      2.967     10.810
REMARK  9 active torsions:
REMARK  status: ('A' for Active; 'I' for Inactive)
REMARK    1  A    between atoms: C_7  and  C_8 
REMARK    2  A    between atoms: C_9  and  O_10 
REMARK    3  A    between atoms: C_13  and  N_14 
REMARK    4  A    between atoms: N_14  and  C_15 
REMARK    5  A    between atoms: C_15  and  N_16 
REMARK       I    between atoms: N_16  and  C_17 
REMARK    6  A    between atoms: C_17  and  C_18 
REMARK    7  A    between atoms: C_21  and  O_22 
REMARK    8  A    between atoms: O_22  and  C_23 
REMARK    9  A    between atoms: C_23  and  C_24 
ROOT
HETATM    1  N   UNL     1       5.744  29.187  53.621  1.00  0.00    -0.337 N 
HETATM    2  H   UNL     1       5.774  30.194  53.509  1.00  0.00     0.168 HD
ENDROOT
BRANCH   1   3
HETATM    3  C   UNL     1       6.363  28.673  54.783  1.00  0.00     0.035 A 
HETATM    4  C   UNL     1       6.554  27.293  54.871  1.00  0.00     0.032 A 
HETATM    5  C   UNL     1       7.105  26.731  56.025  1.00  0.00     0.040 A 
HETATM    6  C   UNL     1       7.435  27.545  57.107  1.00  0.00     0.080 A 
HETATM    7  C   UNL     1       7.227  28.931  57.060  1.00  0.00     0.052 A 
HETATM    8  C   UNL     1       6.690  29.479  55.880  1.00  0.00     0.048 A 
BRANCH   6   9
HETATM    9  O   UNL     1       7.948  26.905  58.207  1.00  0.00    -0.360 OA
HETATM   10  H   UNL     1       8.624  27.486  58.618  1.00  0.00     0.217 HD
ENDBRANCH   6   9
BRANCH   7  11
HETATM   11  C   UNL     1       7.522  29.772  58.217  1.00  0.00     0.183 A 
HETATM   12  N   UNL     1       8.568  29.705  59.028  1.00  0.00    -0.221 NA
HETATM   13  C   UNL     1       8.316  30.687  59.956  1.00  0.00     0.093 A 
HETATM   14  C   UNL     1       7.124  31.325  59.656  1.00  0.00     0.107 A 
HETATM   15  C   UNL     1       9.035  31.097  61.085  1.00  0.00     0.035 A 
HETATM   16  C   UNL     1       6.573  32.368  60.392  1.00  0.00     0.046 A 
HETATM   17  O   UNL     1       6.607  30.742  58.539  1.00  0.00    -0.289 OA
HETATM   18  C   UNL     1       7.306  32.786  61.516  1.00  0.00    -0.059 A 
HETATM   19  C   UNL     1       6.768  33.883  62.392  1.00  0.00     0.048 C 
HETATM   20  C   UNL     1       8.512  32.146  61.860  1.00  0.00     0.009 A 
ENDBRANCH   7  11
ENDBRANCH   1   3
BRANCH   1  21
HETATM   21  C   UNL     1       4.980  28.506  52.704  1.00  0.00     0.157 C 
HETATM   22  S   UNL     1       3.310  28.365  52.714  1.00  0.00    -0.047 SA
BRANCH  21  23
HETATM   23  N   UNL     1       5.657  27.907  51.663  1.00  0.00    -0.201 NA
HETATM   24  C   UNL     1       5.423  26.597  51.309  1.00  0.00     0.237 C 
HETATM   25  O   UNL     1       4.682  26.295  50.379  1.00  0.00    -0.274 OA
HETATM   26  H   UNL     1       5.525  28.511  50.858  1.00  0.00     0.139 HD
BRANCH  24  27
HETATM   27  C   UNL     1       6.179  25.552  52.036  1.00  0.00     0.026 A 
HETATM   28  C   UNL     1       7.559  25.454  51.839  1.00  0.00     0.019 A 
HETATM   29  C   UNL     1       8.312  24.548  52.594  1.00  0.00     0.038 A 
HETATM   30  C   UNL     1       7.691  23.765  53.569  1.00  0.00     0.068 A 
HETATM   31  C   UNL     1       6.305  23.846  53.740  1.00  0.00     0.038 A 
HETATM   32  C   UNL     1       5.544  24.735  52.976  1.00  0.00     0.019 A 
BRANCH  30  33
HETATM   33  O   UNL     1       8.325  22.895  54.415  1.00  0.00    -0.351 OA
BRANCH  33  34
HETATM   34  C   UNL     1       7.486  22.097  55.255  1.00  0.00     0.179 C 
BRANCH  34  35
HETATM   35  C   UNL     1       7.924  20.628  55.155  1.00  0.00     0.002 C 
HETATM   36  C   UNL     1       8.321  20.289  53.719  1.00  0.00     0.011 C 
HETATM   37  C   UNL     1       9.083  20.328  56.107  1.00  0.00     0.011 C 
ENDBRANCH  34  35
ENDBRANCH  33  34
ENDBRANCH  30  33
ENDBRANCH  24  27
ENDBRANCH  21  23
ENDBRANCH   1  21
TORSDOF 9
ENDMDL
MODEL 6
REMARK VINA RESULT:      -9.8      2.560      3.751
REMARK  9 active torsions:
REMARK  status: ('A' for Active; 'I' for Inactive)
REMARK    1  A    between atoms: C_7  and  C_8 
REMARK    2  A    between atoms: C_9  and  O_10 
REMARK    3  A    between atoms: C_13  and  N_14 
REMARK    4  A    between atoms: N_14  and  C_15 
REMARK    5  A    between atoms: C_15  and  N_16 
REMARK       I    between atoms: N_16  and  C_17 
REMARK    6  A    between atoms: C_17  and  C_18 
REMARK    7  A    between atoms: C_21  and  O_22 
REMARK    8  A    between atoms: O_22  and  C_23 
REMARK    9  A    between atoms: C_23  and  C_24 
ROOT
HETATM    1  N   UNL     1       3.809  28.577  56.484  1.00  0.00    -0.337 N 
HETATM    2  H   UNL     1       3.017  27.954  56.593  1.00  0.00     0.168 HD
ENDROOT
BRANCH   1   3
HETATM    3  C   UNL     1       5.077  28.027  56.780  1.00  0.00     0.035 A 
HETATM    4  C   UNL     1       6.035  28.859  57.362  1.00  0.00     0.032 A 
HETATM    5  C   UNL     1       7.321  28.380  57.616  1.00  0.00     0.040 A 
HETATM    6  C   UNL     1       7.664  27.077  57.258  1.00  0.00     0.080 A 
HETATM    7  C   UNL     1       6.732  26.227  56.645  1.00  0.00     0.052 A 
HETATM    8  C   UNL     1       5.435  26.723  56.416  1.00  0.00     0.048 A 
BRANCH   6   9
HETATM    9  O   UNL     1       8.956  26.699  57.524  1.00  0.00    -0.360 OA
HETATM   10  H   UNL     1       9.348  26.333  56.702  1.00  0.00     0.217 HD
ENDBRANCH   6   9
BRANCH   7  11
HETATM   11  C   UNL     1       7.112  24.883  56.220  1.00  0.00     0.183 A 
HETATM   12  N   UNL     1       7.541  23.881  56.973  1.00  0.00    -0.221 NA
HETATM   13  C   UNL     1       7.792  22.881  56.063  1.00  0.00     0.093 A 
HETATM   14  C   UNL     1       7.485  23.318  54.785  1.00  0.00     0.107 A 
HETATM   15  C   UNL     1       8.286  21.583  56.230  1.00  0.00     0.035 A 
HETATM   16  C   UNL     1       7.620  22.557  53.630  1.00  0.00     0.046 A 
HETATM   17  O   UNL     1       7.046  24.605  54.878  1.00  0.00    -0.289 OA
HETATM   18  C   UNL     1       8.104  21.249  53.805  1.00  0.00    -0.059 A 
HETATM   19  C   UNL     1       8.317  20.366  52.607  1.00  0.00     0.048 C 
HETATM   20  C   UNL     1       8.443  20.780  55.089  1.00  0.00     0.009 A 
ENDBRANCH   7  11
ENDBRANCH   1   3
BRANCH   1  21
HETATM   21  C   UNL     1       3.533  29.802  55.926  1.00  0.00     0.157 C 
HETATM   22  S   UNL     1       4.030  30.339  54.418  1.00  0.00    -0.047 SA
BRANCH  21  23
HETATM   23  N   UNL     1       2.748  30.655  56.672  1.00  0.00    -0.201 NA
HETATM   24  C   UNL     1       3.173  31.924  57.002  1.00  0.00     0.237 C 
HETATM   25  O   UNL     1       2.823  32.914  56.368  1.00  0.00    -0.274 OA
HETATM   26  H   UNL     1       1.854  30.704  56.194  1.00  0.00     0.139 HD
BRANCH  24  27
HETATM   27  C   UNL     1       4.002  32.067  58.220  1.00  0.00     0.026 A 
HETATM   28  C   UNL     1       5.361  32.362  58.082  1.00  0.00     0.019 A 
HETATM   29  C   UNL     1       6.142  32.609  59.216  1.00  0.00     0.038 A 
HETATM   30  C   UNL     1       5.559  32.593  60.485  1.00  0.00     0.068 A 
HETATM   31  C   UNL     1       4.205  32.267  60.617  1.00  0.00     0.038 A 
HETATM   32  C   UNL     1       3.422  32.000  59.490  1.00  0.00     0.019 A 
BRANCH  30  33
HETATM   33  O   UNL     1       6.198  32.883  61.660  1.00  0.00    -0.351 OA
BRANCH  33  34
HETATM   34  C   UNL     1       6.406  31.790  62.559  1.00  0.00     0.179 C 
BRANCH  34  35
HETATM   35  C   UNL     1       7.794  31.924  63.203  1.00  0.00     0.002 C 
HETATM   36  C   UNL     1       8.869  32.052  62.125  1.00  0.00     0.011 C 
HETATM   37  C   UNL     1       7.852  33.124  64.150  1.00  0.00     0.011 C 
ENDBRANCH  34  35
ENDBRANCH  33  34
ENDBRANCH  30  33
ENDBRANCH  24  27
ENDBRANCH  21  23
ENDBRANCH   1  21
TORSDOF 9
ENDMDL
MODEL 7
REMARK VINA RESULT:      -9.8      4.984      9.031
REMARK  9 active torsions:
REMARK  status: ('A' for Active; 'I' for Inactive)
REMARK    1  A    between atoms: C_7  and  C_8 
REMARK    2  A    between atoms: C_9  and  O_10 
REMARK    3  A    between atoms: C_13  and  N_14 
REMARK    4  A    between atoms: N_14  and  C_15 
REMARK    5  A    between atoms: C_15  and  N_16 
REMARK       I    between atoms: N_16  and  C_17 
REMARK    6  A    between atoms: C_17  and  C_18 
REMARK    7  A    between atoms: C_21  and  O_22 
REMARK    8  A    between atoms: O_22  and  C_23 
REMARK    9  A    between atoms: C_23  and  C_24 
ROOT
HETATM    1  N   UNL     1       6.258  29.346  54.747  1.00  0.00    -0.337 N 
HETATM    2  H   UNL     1       7.112  29.851  54.952  1.00  0.00     0.168 HD
ENDROOT
BRANCH   1   3
HETATM    3  C   UNL     1       6.381  28.257  53.854  1.00  0.00     0.035 A 
HETATM    4  C   UNL     1       7.461  27.388  54.019  1.00  0.00     0.032 A 
HETATM    5  C   UNL     1       7.659  26.335  53.125  1.00  0.00     0.040 A 
HETATM    6  C   UNL     1       6.798  26.167  52.042  1.00  0.00     0.080 A 
HETATM    7  C   UNL     1       5.722  27.041  51.833  1.00  0.00     0.052 A 
HETATM    8  C   UNL     1       5.527  28.085  52.757  1.00  0.00     0.048 A 
BRANCH   6   9
HETATM    9  O   UNL     1       7.082  25.120  51.202  1.00  0.00    -0.360 OA
HETATM   10  H   UNL     1       6.236  24.737  50.885  1.00  0.00     0.217 HD
ENDBRANCH   6   9
BRANCH   7  11
HETATM   11  C   UNL     1       4.856  26.896  50.666  1.00  0.00     0.183 A 
HETATM   12  N   UNL     1       4.810  25.889  49.805  1.00  0.00    -0.221 NA
HETATM   13  C   UNL     1       3.862  26.290  48.894  1.00  0.00     0.093 A 
HETATM   14  C   UNL     1       3.356  27.528  49.253  1.00  0.00     0.107 A 
HETATM   15  C   UNL     1       3.379  25.675  47.734  1.00  0.00     0.035 A 
HETATM   16  C   UNL     1       2.380  28.223  48.549  1.00  0.00     0.046 A 
HETATM   17  O   UNL     1       3.990  27.924  50.392  1.00  0.00    -0.289 OA
HETATM   18  C   UNL     1       1.887  27.595  47.392  1.00  0.00    -0.059 A 
HETATM   19  C   UNL     1       0.856  28.290  46.548  1.00  0.00     0.048 C 
HETATM   20  C   UNL     1       2.394  26.345  46.988  1.00  0.00     0.009 A 
ENDBRANCH   7  11
ENDBRANCH   1   3
BRANCH   1  21
HETATM   21  C   UNL     1       5.157  29.711  55.483  1.00  0.00     0.157 C 
HETATM   22  S   UNL     1       3.789  30.485  54.902  1.00  0.00    -0.047 SA
BRANCH  21  23
HETATM   23  N   UNL     1       5.174  29.380  56.821  1.00  0.00    -0.201 NA
HETATM   24  C   UNL     1       6.334  28.987  57.452  1.00  0.00     0.237 C 
HETATM   25  O   UNL     1       7.008  29.765  58.119  1.00  0.00    -0.274 OA
HETATM   26  H   UNL     1       4.765  30.169  57.310  1.00  0.00     0.139 HD
BRANCH  24  27
HETATM   27  C   UNL     1       6.696  27.554  57.377  1.00  0.00     0.026 A 
HETATM   28  C   UNL     1       5.689  26.614  57.140  1.00  0.00     0.019 A 
HETATM   29  C   UNL     1       6.019  25.266  56.958  1.00  0.00     0.038 A 
HETATM   30  C   UNL     1       7.356  24.864  56.979  1.00  0.00     0.068 A 
HETATM   31  C   UNL     1       8.355  25.805  57.247  1.00  0.00     0.038 A 
HETATM   32  C   UNL     1       8.032  27.150  57.449  1.00  0.00     0.019 A 
BRANCH  30  33
HETATM   33  O   UNL     1       7.810  23.593  56.748  1.00  0.00    -0.351 OA
BRANCH  33  34
HETATM   34  C   UNL     1       8.501  23.377  55.514  1.00  0.00     0.179 C 
BRANCH  34  35
HETATM   35  C   UNL     1       7.682  22.417  54.639  1.00  0.00     0.002 C 
HETATM   36  C   UNL     1       8.152  22.490  53.187  1.00  0.00     0.011 C 
HETATM   37  C   UNL     1       7.778  20.979  55.153  1.00  0.00     0.011 C 
ENDBRANCH  34  35
ENDBRANCH  33  34
ENDBRANCH  30  33
ENDBRANCH  24  27
ENDBRANCH  21  23
ENDBRANCH   1  21
TORSDOF 9
ENDMDL
MODEL 8
REMARK VINA RESULT:      -9.8      2.284      3.371
REMARK  9 active torsions:
REMARK  status: ('A' for Active; 'I' for Inactive)
REMARK    1  A    between atoms: C_7  and  C_8 
REMARK    2  A    between atoms: C_9  and  O_10 
REMARK    3  A    between atoms: C_13  and  N_14 
REMARK    4  A    between atoms: N_14  and  C_15 
REMARK    5  A    between atoms: C_15  and  N_16 
REMARK       I    between atoms: N_16  and  C_17 
REMARK    6  A    between atoms: C_17  and  C_18 
REMARK    7  A    between atoms: C_21  and  O_22 
REMARK    8  A    between atoms: O_22  and  C_23 
REMARK    9  A    between atoms: C_23  and  C_24 
ROOT
HETATM    1  N   UNL     1       6.050  29.802  55.745  1.00  0.00    -0.337 N 
HETATM    2  H   UNL     1       6.509  30.623  55.368  1.00  0.00     0.168 HD
ENDROOT
BRANCH   1   3
HETATM    3  C   UNL     1       5.693  28.805  54.809  1.00  0.00     0.035 A 
HETATM    4  C   UNL     1       4.613  29.055  53.960  1.00  0.00     0.032 A 
HETATM    5  C   UNL     1       4.183  28.077  53.062  1.00  0.00     0.040 A 
HETATM    6  C   UNL     1       4.810  26.833  53.032  1.00  0.00     0.080 A 
HETATM    7  C   UNL     1       5.878  26.541  53.893  1.00  0.00     0.052 A 
HETATM    8  C   UNL     1       6.309  27.547  54.777  1.00  0.00     0.048 A 
BRANCH   6   9
HETATM    9  O   UNL     1       4.306  25.925  52.135  1.00  0.00    -0.360 OA
HETATM   10  H   UNL     1       5.023  25.301  51.888  1.00  0.00     0.217 HD
ENDBRANCH   6   9
BRANCH   7  11
HETATM   11  C   UNL     1       6.495  25.217  53.898  1.00  0.00     0.183 A 
HETATM   12  N   UNL     1       6.947  24.524  52.863  1.00  0.00    -0.221 NA
HETATM   13  C   UNL     1       7.374  23.346  53.428  1.00  0.00     0.093 A 
HETATM   14  C   UNL     1       7.176  23.382  54.799  1.00  0.00     0.107 A 
HETATM   15  C   UNL     1       7.930  22.197  52.857  1.00  0.00     0.035 A 
HETATM   16  C   UNL     1       7.499  22.353  55.675  1.00  0.00     0.046 A 
HETATM   17  O   UNL     1       6.611  24.582  55.109  1.00  0.00    -0.289 OA
HETATM   18  C   UNL     1       8.071  21.205  55.099  1.00  0.00    -0.059 A 
HETATM   19  C   UNL     1       8.417  20.028  55.966  1.00  0.00     0.048 C 
HETATM   20  C   UNL     1       8.267  21.129  53.706  1.00  0.00     0.009 A 
ENDBRANCH   7  11
ENDBRANCH   1   3
BRANCH   1  21
HETATM   21  C   UNL     1       5.987  29.730  57.116  1.00  0.00     0.157 C 
HETATM   22  S   UNL     1       7.288  29.753  58.171  1.00  0.00    -0.047 SA
BRANCH  21  23
HETATM   23  N   UNL     1       4.726  29.659  57.670  1.00  0.00    -0.201 NA
HETATM   24  C   UNL     1       3.927  30.775  57.790  1.00  0.00     0.237 C 
HETATM   25  O   UNL     1       3.043  31.034  56.980  1.00  0.00    -0.274 OA
HETATM   26  H   UNL     1       4.234  28.936  57.155  1.00  0.00     0.139 HD
BRANCH  24  27
HETATM   27  C   UNL     1       4.108  31.613  58.997  1.00  0.00     0.026 A 
HETATM   28  C   UNL     1       3.282  31.395  60.102  1.00  0.00     0.019 A 
HETATM   29  C   UNL     1       3.503  32.099  61.291  1.00  0.00     0.038 A 
HETATM   30  C   UNL     1       4.570  32.994  61.386  1.00  0.00     0.068 A 
HETATM   31  C   UNL     1       5.374  33.230  60.266  1.00  0.00     0.038 A 
HETATM   32  C   UNL     1       5.148  32.545  59.069  1.00  0.00     0.019 A 
BRANCH  30  33
HETATM   33  O   UNL     1       4.930  33.689  62.509  1.00  0.00    -0.351 OA
BRANCH  33  34
HETATM   34  C   UNL     1       5.563  32.938  63.549  1.00  0.00     0.179 C 
BRANCH  34  35
HETATM   35  C   UNL     1       7.007  33.434  63.721  1.00  0.00     0.002 C 
HETATM   36  C   UNL     1       7.274  33.790  65.183  1.00  0.00     0.011 C 
HETATM   37  C   UNL     1       8.014  32.387  63.241  1.00  0.00     0.011 C 
ENDBRANCH  34  35
ENDBRANCH  33  34
ENDBRANCH  30  33
ENDBRANCH  24  27
ENDBRANCH  21  23
ENDBRANCH   1  21
TORSDOF 9
ENDMDL
MODEL 9
REMARK VINA RESULT:      -9.5      1.755      2.317
REMARK  9 active torsions:
REMARK  status: ('A' for Active; 'I' for Inactive)
REMARK    1  A    between atoms: C_7  and  C_8 
REMARK    2  A    between atoms: C_9  and  O_10 
REMARK    3  A    between atoms: C_13  and  N_14 
REMARK    4  A    between atoms: N_14  and  C_15 
REMARK    5  A    between atoms: C_15  and  N_16 
REMARK       I    between atoms: N_16  and  C_17 
REMARK    6  A    between atoms: C_17  and  C_18 
REMARK    7  A    between atoms: C_21  and  O_22 
REMARK    8  A    between atoms: O_22  and  C_23 
REMARK    9  A    between atoms: C_23  and  C_24 
ROOT
HETATM    1  N   UNL     1       7.973  29.219  58.851  1.00  0.00    -0.337 N 
HETATM    2  H   UNL     1       7.620  29.166  59.800  1.00  0.00     0.168 HD
ENDROOT
BRANCH   1   3
HETATM    3  C   UNL     1       7.247  28.495  57.878  1.00  0.00     0.035 A 
HETATM    4  C   UNL     1       6.066  29.054  57.385  1.00  0.00     0.032 A 
HETATM    5  C   UNL     1       5.283  28.349  56.470  1.00  0.00     0.040 A 
HETATM    6  C   UNL     1       5.660  27.068  56.070  1.00  0.00     0.080 A 
HETATM    7  C   UNL     1       6.824  26.468  56.569  1.00  0.00     0.052 A 
HETATM    8  C   UNL     1       7.611  27.203  57.476  1.00  0.00     0.048 A 
BRANCH   6   9
HETATM    9  O   UNL     1       4.818  26.441  55.186  1.00  0.00    -0.360 OA
HETATM   10  H   UNL     1       5.275  26.367  54.321  1.00  0.00     0.217 HD
ENDBRANCH   6   9
BRANCH   7  11
HETATM   11  C   UNL     1       7.185  25.105  56.191  1.00  0.00     0.183 A 
HETATM   12  N   UNL     1       7.609  24.126  56.977  1.00  0.00    -0.221 NA
HETATM   13  C   UNL     1       7.840  23.090  56.103  1.00  0.00     0.093 A 
HETATM   14  C   UNL     1       7.529  23.484  54.812  1.00  0.00     0.107 A 
HETATM   15  C   UNL     1       8.321  21.793  56.315  1.00  0.00     0.035 A 
HETATM   16  C   UNL     1       7.647  22.680  53.685  1.00  0.00     0.046 A 
HETATM   17  O   UNL     1       7.107  24.779  54.861  1.00  0.00    -0.289 OA
HETATM   18  C   UNL     1       8.117  21.373  53.904  1.00  0.00    -0.059 A 
HETATM   19  C   UNL     1       8.311  20.445  52.738  1.00  0.00     0.048 C 
HETATM   20  C   UNL     1       8.460  20.947  55.202  1.00  0.00     0.009 A 
ENDBRANCH   7  11
ENDBRANCH   1   3
BRANCH   1  21
HETATM   21  C   UNL     1       9.006  30.102  58.646  1.00  0.00     0.157 C 
HETATM   22  S   UNL     1       9.953  30.215  57.268  1.00  0.00    -0.047 SA
BRANCH  21  23
HETATM   23  N   UNL     1       9.264  30.995  59.664  1.00  0.00    -0.201 NA
HETATM   24  C   UNL     1       8.415  31.125  60.741  1.00  0.00     0.237 C 
HETATM   25  O   UNL     1       8.630  30.566  61.812  1.00  0.00    -0.274 OA
HETATM   26  H   UNL     1      10.203  30.787  59.987  1.00  0.00     0.139 HD
BRANCH  24  27
HETATM   27  C   UNL     1       7.269  32.050  60.595  1.00  0.00     0.026 A 
HETATM   28  C   UNL     1       6.618  32.130  59.360  1.00  0.00     0.019 A 
HETATM   29  C   UNL     1       5.467  32.915  59.226  1.00  0.00     0.038 A 
HETATM   30  C   UNL     1       4.948  33.591  60.332  1.00  0.00     0.068 A 
HETATM   31  C   UNL     1       5.621  33.530  61.556  1.00  0.00     0.038 A 
HETATM   32  C   UNL     1       6.783  32.764  61.693  1.00  0.00     0.019 A 
BRANCH  30  33
HETATM   33  O   UNL     1       3.797  34.331  60.344  1.00  0.00    -0.351 OA
BRANCH  33  34
HETATM   34  C   UNL     1       3.645  35.255  61.426  1.00  0.00     0.179 C 
BRANCH  34  35
HETATM   35  C   UNL     1       2.247  35.087  62.039  1.00  0.00     0.002 C 
HETATM   36  C   UNL     1       1.244  34.664  60.967  1.00  0.00     0.011 C 
HETATM   37  C   UNL     1       2.261  34.067  63.180  1.00  0.00     0.011 C 
ENDBRANCH  34  35
ENDBRANCH  33  34
ENDBRANCH  30  33
ENDBRANCH  24  27
ENDBRANCH  21  23
ENDBRANCH   1  21
TORSDOF 9
ENDMDL
MODEL 10
REMARK VINA RESULT:      -9.5      2.209     11.283
REMARK  9 active torsions:
REMARK  status: ('A' for Active; 'I' for Inactive)
REMARK    1  A    between atoms: C_7  and  C_8 
REMARK    2  A    between atoms: C_9  and  O_10 
REMARK    3  A    between atoms: C_13  and  N_14 
REMARK    4  A    between atoms: N_14  and  C_15 
REMARK    5  A    between atoms: C_15  and  N_16 
REMARK       I    between atoms: N_16  and  C_17 
REMARK    6  A    between atoms: C_17  and  C_18 
REMARK    7  A    between atoms: C_21  and  O_22 
REMARK    8  A    between atoms: O_22  and  C_23 
REMARK    9  A    between atoms: C_23  and  C_24 
ROOT
HETATM    1  N   UNL     1       5.784  31.143  56.590  1.00  0.00    -0.337 N 
HETATM    2  H   UNL     1       5.546  32.107  56.388  1.00  0.00     0.168 HD
ENDROOT
BRANCH   1   3
HETATM    3  C   UNL     1       6.666  30.936  57.675  1.00  0.00     0.035 A 
HETATM    4  C   UNL     1       7.665  29.970  57.537  1.00  0.00     0.032 A 
HETATM    5  C   UNL     1       8.520  29.686  58.603  1.00  0.00     0.040 A 
HETATM    6  C   UNL     1       8.358  30.342  59.822  1.00  0.00     0.080 A 
HETATM    7  C   UNL     1       7.345  31.295  60.000  1.00  0.00     0.052 A 
HETATM    8  C   UNL     1       6.506  31.582  58.908  1.00  0.00     0.048 A 
BRANCH   6   9
HETATM    9  O   UNL     1       9.228  29.982  60.820  1.00  0.00    -0.360 OA
HETATM   10  H   UNL     1       9.427  29.025  60.729  1.00  0.00     0.217 HD
ENDBRANCH   6   9
BRANCH   7  11
HETATM   11  C   UNL     1       7.143  31.938  61.296  1.00  0.00     0.183 A 
HETATM   12  N   UNL     1       8.065  32.356  62.151  1.00  0.00    -0.221 NA
HETATM   13  C   UNL     1       7.328  32.833  63.209  1.00  0.00     0.093 A 
HETATM   14  C   UNL     1       5.976  32.697  62.941  1.00  0.00     0.107 A 
HETATM   15  C   UNL     1       7.720  33.386  64.433  1.00  0.00     0.035 A 
HETATM   16  C   UNL     1       4.952  33.080  63.800  1.00  0.00     0.046 A 
HETATM   17  O   UNL     1       5.849  32.122  61.712  1.00  0.00    -0.289 OA
HETATM   18  C   UNL     1       5.351  33.648  65.022  1.00  0.00    -0.059 A 
HETATM   19  C   UNL     1       4.313  34.058  66.028  1.00  0.00     0.048 C 
HETATM   20  C   UNL     1       6.718  33.783  65.334  1.00  0.00     0.009 A 
ENDBRANCH   7  11
ENDBRANCH   1   3
BRANCH   1  21
HETATM   21  C   UNL     1       5.096  30.194  55.872  1.00  0.00     0.157 C 
HETATM   22  S   UNL     1       3.656  29.464  56.320  1.00  0.00    -0.047 SA
BRANCH  21  23
HETATM   23  N   UNL     1       5.635  29.833  54.655  1.00  0.00    -0.201 NA
HETATM   24  C   UNL     1       5.074  28.838  53.885  1.00  0.00     0.237 C 
HETATM   25  O   UNL     1       4.322  29.086  52.947  1.00  0.00    -0.274 OA
HETATM   26  H   UNL     1       5.706  30.690  54.115  1.00  0.00     0.139 HD
BRANCH  24  27
HETATM   27  C   UNL     1       5.487  27.446  54.168  1.00  0.00     0.026 A 
HETATM   28  C   UNL     1       4.902  26.406  53.441  1.00  0.00     0.019 A 
HETATM   29  C   UNL     1       5.352  25.092  53.613  1.00  0.00     0.038 A 
HETATM   30  C   UNL     1       6.408  24.822  54.486  1.00  0.00     0.068 A 
HETATM   31  C   UNL     1       6.968  25.864  55.233  1.00  0.00     0.038 A 
HETATM   32  C   UNL     1       6.511  27.176  55.080  1.00  0.00     0.019 A 
BRANCH  30  33
HETATM   33  O   UNL     1       6.980  23.596  54.690  1.00  0.00    -0.351 OA
BRANCH  33  34
HETATM   34  C   UNL     1       7.749  23.063  53.608  1.00  0.00     0.179 C 
BRANCH  34  35
HETATM   35  C   UNL     1       8.331  21.704  54.025  1.00  0.00     0.002 C 
HETATM   36  C   UNL     1       7.729  21.255  55.356  1.00  0.00     0.011 C 
HETATM   37  C   UNL     1       8.088  20.642  52.951  1.00  0.00     0.011 C 
ENDBRANCH  34  35
ENDBRANCH  33  34
ENDBRANCH  30  33
ENDBRANCH  24  27
ENDBRANCH  21  23
ENDBRANCH   1  21
TORSDOF 9
ENDMDL
