MODEL 1
REMARK VINA RESULT:     -12.0      0.000      0.000
REMARK  8 active torsions:
REMARK  status: ('A' for Active; 'I' for Inactive)
REMARK    1  A    between atoms: C_4  and  S_5 
REMARK    2  A    between atoms: S_5  and  C_6 
REMARK    3  A    between atoms: C_6  and  C_7 
REMARK       I    between atoms: C_7  and  N_8 
REMARK    4  A    between atoms: N_8  and  C_9 
REMARK    5  A    between atoms: C_11  and  C_12 
REMARK    6  A    between atoms: C_23  and  C_24 
REMARK    7  A    between atoms: C_30  and  C_31 
REMARK       I    between atoms: C_31  and  N_32 
REMARK    8  A    between atoms: N_32  and  C_33 
ROOT
HETATM    1  C   UNL     1       4.913  32.725  57.193  1.00  0.00     0.069 C 
HETATM    2  C   UNL     1       5.465  31.327  57.301  1.00  0.00     0.019 C 
HETATM    3  N   UNL     1       5.000  30.422  56.358  1.00  0.00    -0.353 N 
HETATM    4  C   UNL     1       5.294  29.069  56.318  1.00  0.00     0.087 C 
HETATM    5  C   UNL     1       6.194  28.580  57.201  1.00  0.00     0.055 C 
HETATM    6  C   UNL     1       6.490  27.101  57.389  1.00  0.00     0.019 C 
HETATM    7  N   UNL     1       6.735  25.873  57.546  1.00  0.00    -0.096 N 
HETATM    8  C   UNL     1       7.031  29.535  58.057  1.00  0.00     0.104 C 
HETATM    9  C   UNL     1       6.409  30.928  58.186  1.00  0.00     0.046 C 
HETATM   10  H   UNL     1       4.353  30.751  55.645  1.00  0.00     0.166 HD
ENDROOT
BRANCH   4  11
HETATM   11  S   UNL     1       4.685  28.121  54.984  1.00  0.00    -0.102 SA
BRANCH  11  12
HETATM   12  C   UNL     1       6.161  27.487  54.133  1.00  0.00     0.184 C 
BRANCH  12  13
HETATM   13  C   UNL     1       6.123  25.954  54.033  1.00  0.00     0.231 C 
HETATM   14  N   UNL     1       7.350  25.342  54.226  1.00  0.00    -0.327 N 
HETATM   15  H   UNL     1       8.133  25.981  54.328  1.00  0.00     0.169 HD
HETATM   16  O   UNL     1       5.055  25.376  53.842  1.00  0.00    -0.272 OA
BRANCH  14  17
HETATM   17  C   UNL     1       7.676  23.974  54.184  1.00  0.00     0.035 A 
HETATM   18  C   UNL     1       7.840  23.172  55.313  1.00  0.00     0.045 A 
HETATM   19  C   UNL     1       8.161  21.807  55.183  1.00  0.00     0.050 A 
HETATM   20  C   UNL     1       8.302  21.254  53.900  1.00  0.00     0.016 A 
HETATM   21  C   UNL     1       8.140  22.049  52.771  1.00  0.00     0.003 A 
HETATM   22  C   UNL     1       7.835  23.403  52.914  1.00  0.00     0.029 A 
BRANCH  19  23
HETATM   23  C   UNL     1       8.338  20.929  56.397  1.00  0.00     0.417 C 
HETATM   24  F   UNL     1       8.325  21.605  57.577  1.00  0.00    -0.166 F 
HETATM   25  F   UNL     1       7.363  19.983  56.496  1.00  0.00    -0.166 F 
HETATM   26  F   UNL     1       9.516  20.242  56.375  1.00  0.00    -0.166 F 
ENDBRANCH  19  23
ENDBRANCH  14  17
ENDBRANCH  12  13
ENDBRANCH  11  12
ENDBRANCH   4  11
BRANCH   8  27
HETATM   27  C   UNL     1       8.446  29.588  57.456  1.00  0.00    -0.042 A 
HETATM   28  C   UNL     1       9.576  29.840  58.252  1.00  0.00     0.027 A 
HETATM   29  C   UNL     1      10.820  29.922  57.648  1.00  0.00     0.116 A 
HETATM   30  N   UNL     1      11.020  29.785  56.322  1.00  0.00    -0.273 NA
HETATM   31  C   UNL     1       9.926  29.539  55.570  1.00  0.00     0.116 A 
HETATM   32  C   UNL     1       8.639  29.436  56.079  1.00  0.00     0.027 A 
ENDBRANCH   8  27
BRANCH   9  33
HETATM   33  C   UNL     1       6.982  31.760  59.292  1.00  0.00     0.255 C 
HETATM   34  N   UNL     1       6.389  31.562  60.520  1.00  0.00    -0.323 N 
HETATM   35  H   UNL     1       5.637  30.888  60.572  1.00  0.00     0.169 HD
HETATM   36  O   UNL     1       7.954  32.470  59.064  1.00  0.00    -0.268 OA
BRANCH  34  37
HETATM   37  C   UNL     1       6.703  32.222  61.730  1.00  0.00     0.035 A 
HETATM   38  C   UNL     1       7.793  31.896  62.540  1.00  0.00     0.029 A 
HETATM   39  C   UNL     1       8.040  32.605  63.721  1.00  0.00     0.002 A 
HETATM   40  C   UNL     1       7.206  33.651  64.099  1.00  0.00     0.000 A 
HETATM   41  C   UNL     1       6.116  33.987  63.300  1.00  0.00     0.002 A 
HETATM   42  C   UNL     1       5.863  33.273  62.124  1.00  0.00     0.029 A 
ENDBRANCH  34  37
ENDBRANCH   9  33
TORSDOF 8
ENDMDL
MODEL 2
REMARK VINA RESULT:     -11.1      1.333      1.830
REMARK  8 active torsions:
REMARK  status: ('A' for Active; 'I' for Inactive)
REMARK    1  A    between atoms: C_4  and  S_5 
REMARK    2  A    between atoms: S_5  and  C_6 
REMARK    3  A    between atoms: C_6  and  C_7 
REMARK       I    between atoms: C_7  and  N_8 
REMARK    4  A    between atoms: N_8  and  C_9 
REMARK    5  A    between atoms: C_11  and  C_12 
REMARK    6  A    between atoms: C_23  and  C_24 
REMARK    7  A    between atoms: C_30  and  C_31 
REMARK       I    between atoms: C_31  and  N_32 
REMARK    8  A    between atoms: N_32  and  C_33 
ROOT
HETATM    1  C   UNL     1       4.556  32.494  55.535  1.00  0.00     0.069 C 
HETATM    2  C   UNL     1       5.279  31.305  56.111  1.00  0.00     0.019 C 
HETATM    3  N   UNL     1       5.551  30.277  55.221  1.00  0.00    -0.353 N 
HETATM    4  C   UNL     1       6.120  29.055  55.542  1.00  0.00     0.087 C 
HETATM    5  C   UNL     1       6.554  28.860  56.808  1.00  0.00     0.055 C 
HETATM    6  C   UNL     1       7.039  27.524  57.348  1.00  0.00     0.019 C 
HETATM    7  N   UNL     1       7.442  26.417  57.797  1.00  0.00    -0.096 N 
HETATM    8  C   UNL     1       6.626  30.035  57.787  1.00  0.00     0.104 C 
HETATM    9  C   UNL     1       5.729  31.208  57.385  1.00  0.00     0.046 C 
HETATM   10  H   UNL     1       5.283  30.392  54.246  1.00  0.00     0.166 HD
ENDROOT
BRANCH   4  11
HETATM   11  S   UNL     1       6.472  27.933  54.251  1.00  0.00    -0.102 SA
BRANCH  11  12
HETATM   12  C   UNL     1       4.970  26.925  54.067  1.00  0.00     0.184 C 
BRANCH  12  13
HETATM   13  C   UNL     1       5.322  25.466  53.741  1.00  0.00     0.231 C 
HETATM   14  N   UNL     1       6.493  25.018  54.330  1.00  0.00    -0.327 N 
HETATM   15  H   UNL     1       7.014  25.729  54.835  1.00  0.00     0.169 HD
HETATM   16  O   UNL     1       4.564  24.790  53.048  1.00  0.00    -0.272 OA
BRANCH  14  17
HETATM   17  C   UNL     1       7.113  23.760  54.229  1.00  0.00     0.035 A 
HETATM   18  C   UNL     1       7.285  22.882  55.299  1.00  0.00     0.045 A 
HETATM   19  C   UNL     1       7.912  21.635  55.111  1.00  0.00     0.050 A 
HETATM   20  C   UNL     1       8.353  21.275  53.828  1.00  0.00     0.016 A 
HETATM   21  C   UNL     1       8.185  22.147  52.757  1.00  0.00     0.003 A 
HETATM   22  C   UNL     1       7.574  23.384  52.960  1.00  0.00     0.029 A 
BRANCH  19  23
HETATM   23  C   UNL     1       8.102  20.677  56.261  1.00  0.00     0.417 C 
HETATM   24  F   UNL     1       7.014  19.901  56.520  1.00  0.00    -0.166 F 
HETATM   25  F   UNL     1       9.135  19.815  56.049  1.00  0.00    -0.166 F 
HETATM   26  F   UNL     1       8.389  21.316  57.430  1.00  0.00    -0.166 F 
ENDBRANCH  19  23
ENDBRANCH  14  17
ENDBRANCH  12  13
ENDBRANCH  11  12
ENDBRANCH   4  11
BRANCH   8  27
HETATM   27  C   UNL     1       8.102  30.452  57.912  1.00  0.00    -0.042 A 
HETATM   28  C   UNL     1       8.531  31.350  58.903  1.00  0.00     0.027 A 
HETATM   29  C   UNL     1       9.865  31.725  58.938  1.00  0.00     0.116 A 
HETATM   30  N   UNL     1      10.790  31.288  58.062  1.00  0.00    -0.273 NA
HETATM   31  C   UNL     1      10.363  30.422  57.117  1.00  0.00     0.116 A 
HETATM   32  C   UNL     1       9.052  29.983  56.999  1.00  0.00     0.027 A 
ENDBRANCH   8  27
BRANCH   9  33
HETATM   33  C   UNL     1       5.484  32.202  58.479  1.00  0.00     0.255 C 
HETATM   34  N   UNL     1       5.036  31.649  59.660  1.00  0.00    -0.323 N 
HETATM   35  H   UNL     1       4.915  30.646  59.690  1.00  0.00     0.169 HD
HETATM   36  O   UNL     1       5.766  33.379  58.292  1.00  0.00    -0.268 OA
BRANCH  34  37
HETATM   37  C   UNL     1       4.700  32.341  60.846  1.00  0.00     0.035 A 
HETATM   38  C   UNL     1       3.443  32.897  61.101  1.00  0.00     0.029 A 
HETATM   39  C   UNL     1       3.189  33.560  62.306  1.00  0.00     0.002 A 
HETATM   40  C   UNL     1       4.185  33.668  63.271  1.00  0.00     0.000 A 
HETATM   41  C   UNL     1       5.441  33.117  63.030  1.00  0.00     0.002 A 
HETATM   42  C   UNL     1       5.699  32.462  61.822  1.00  0.00     0.029 A 
ENDBRANCH  34  37
ENDBRANCH   9  33
TORSDOF 8
ENDMDL
MODEL 3
REMARK VINA RESULT:     -10.5      4.982     10.758
REMARK  8 active torsions:
REMARK  status: ('A' for Active; 'I' for Inactive)
REMARK    1  A    between atoms: C_4  and  S_5 
REMARK    2  A    between atoms: S_5  and  C_6 
REMARK    3  A    between atoms: C_6  and  C_7 
REMARK       I    between atoms: C_7  and  N_8 
REMARK    4  A    between atoms: N_8  and  C_9 
REMARK    5  A    between atoms: C_11  and  C_12 
REMARK    6  A    between atoms: C_23  and  C_24 
REMARK    7  A    between atoms: C_30  and  C_31 
REMARK       I    between atoms: C_31  and  N_32 
REMARK    8  A    between atoms: N_32  and  C_33 
ROOT
HETATM    1  C   UNL     1       8.736  26.290  57.345  1.00  0.00     0.069 C 
HETATM    2  C   UNL     1       7.457  27.040  57.077  1.00  0.00     0.019 C 
HETATM    3  N   UNL     1       7.430  28.357  57.509  1.00  0.00    -0.353 N 
HETATM    4  C   UNL     1       6.336  29.207  57.455  1.00  0.00     0.087 C 
HETATM    5  C   UNL     1       5.215  28.773  56.835  1.00  0.00     0.055 C 
HETATM    6  C   UNL     1       3.891  29.520  56.844  1.00  0.00     0.019 C 
HETATM    7  N   UNL     1       2.792  30.139  56.851  1.00  0.00    -0.096 N 
HETATM    8  C   UNL     1       5.238  27.478  56.018  1.00  0.00     0.104 C 
HETATM    9  C   UNL     1       6.393  26.548  56.400  1.00  0.00     0.046 C 
HETATM   10  H   UNL     1       8.264  28.745  57.944  1.00  0.00     0.166 HD
ENDROOT
BRANCH   4  11
HETATM   11  S   UNL     1       6.542  30.866  57.961  1.00  0.00    -0.102 SA
BRANCH  11  12
HETATM   12  C   UNL     1       8.271  30.990  58.509  1.00  0.00     0.184 C 
BRANCH  12  13
HETATM   13  C   UNL     1       8.408  31.975  59.679  1.00  0.00     0.231 C 
HETATM   14  N   UNL     1       7.412  31.866  60.634  1.00  0.00    -0.327 N 
HETATM   15  H   UNL     1       6.672  31.209  60.404  1.00  0.00     0.169 HD
HETATM   16  O   UNL     1       9.370  32.739  59.730  1.00  0.00    -0.272 OA
BRANCH  14  17
HETATM   17  C   UNL     1       7.223  32.615  61.809  1.00  0.00     0.035 A 
HETATM   18  C   UNL     1       6.381  33.724  61.907  1.00  0.00     0.045 A 
HETATM   19  C   UNL     1       6.244  34.416  63.125  1.00  0.00     0.050 A 
HETATM   20  C   UNL     1       6.954  33.970  64.252  1.00  0.00     0.016 A 
HETATM   21  C   UNL     1       7.795  32.866  64.160  1.00  0.00     0.003 A 
HETATM   22  C   UNL     1       7.932  32.197  62.944  1.00  0.00     0.029 A 
BRANCH  19  23
HETATM   23  C   UNL     1       5.335  35.614  63.243  1.00  0.00     0.417 C 
HETATM   24  F   UNL     1       4.247  35.408  64.034  1.00  0.00    -0.166 F 
HETATM   25  F   UNL     1       5.976  36.698  63.762  1.00  0.00    -0.166 F 
HETATM   26  F   UNL     1       4.847  36.017  62.036  1.00  0.00    -0.166 F 
ENDBRANCH  19  23
ENDBRANCH  14  17
ENDBRANCH  12  13
ENDBRANCH  11  12
ENDBRANCH   4  11
BRANCH   8  27
HETATM   27  C   UNL     1       5.273  27.862  54.529  1.00  0.00    -0.042 A 
HETATM   28  C   UNL     1       4.104  27.907  53.753  1.00  0.00     0.027 A 
HETATM   29  C   UNL     1       4.203  28.215  52.405  1.00  0.00     0.116 A 
HETATM   30  N   UNL     1       5.367  28.466  51.777  1.00  0.00    -0.273 NA
HETATM   31  C   UNL     1       6.483  28.422  52.536  1.00  0.00     0.116 A 
HETATM   32  C   UNL     1       6.490  28.127  53.892  1.00  0.00     0.027 A 
ENDBRANCH   8  27
BRANCH   9  33
HETATM   33  C   UNL     1       6.241  25.141  55.906  1.00  0.00     0.255 C 
HETATM   34  N   UNL     1       7.386  24.604  55.358  1.00  0.00    -0.323 N 
HETATM   35  H   UNL     1       8.212  25.187  55.337  1.00  0.00     0.169 HD
HETATM   36  O   UNL     1       5.182  24.554  56.088  1.00  0.00    -0.268 OA
BRANCH  34  37
HETATM   37  C   UNL     1       7.532  23.316  54.792  1.00  0.00     0.035 A 
HETATM   38  C   UNL     1       7.600  23.066  53.419  1.00  0.00     0.029 A 
HETATM   39  C   UNL     1       7.753  21.761  52.940  1.00  0.00     0.002 A 
HETATM   40  C   UNL     1       7.848  20.694  53.828  1.00  0.00     0.000 A 
HETATM   41  C   UNL     1       7.783  20.930  55.199  1.00  0.00     0.002 A 
HETATM   42  C   UNL     1       7.621  22.234  55.678  1.00  0.00     0.029 A 
ENDBRANCH  34  37
ENDBRANCH   9  33
TORSDOF 8
ENDMDL
MODEL 4
REMARK VINA RESULT:     -10.4      1.987      3.927
REMARK  8 active torsions:
REMARK  status: ('A' for Active; 'I' for Inactive)
REMARK    1  A    between atoms: C_4  and  S_5 
REMARK    2  A    between atoms: S_5  and  C_6 
REMARK    3  A    between atoms: C_6  and  C_7 
REMARK       I    between atoms: C_7  and  N_8 
REMARK    4  A    between atoms: N_8  and  C_9 
REMARK    5  A    between atoms: C_11  and  C_12 
REMARK    6  A    between atoms: C_23  and  C_24 
REMARK    7  A    between atoms: C_30  and  C_31 
REMARK       I    between atoms: C_31  and  N_32 
REMARK    8  A    between atoms: N_32  and  C_33 
ROOT
HETATM    1  C   UNL     1       7.538  26.579  57.646  1.00  0.00     0.069 C 
HETATM    2  C   UNL     1       7.020  27.389  56.487  1.00  0.00     0.019 C 
HETATM    3  N   UNL     1       6.320  26.679  55.522  1.00  0.00    -0.353 N 
HETATM    4  C   UNL     1       5.834  27.193  54.330  1.00  0.00     0.087 C 
HETATM    5  C   UNL     1       5.946  28.523  54.110  1.00  0.00     0.055 C 
HETATM    6  C   UNL     1       5.616  29.200  52.789  1.00  0.00     0.019 C 
HETATM    7  N   UNL     1       5.342  29.763  51.694  1.00  0.00    -0.096 N 
HETATM    8  C   UNL     1       6.382  29.458  55.241  1.00  0.00     0.104 C 
HETATM    9  C   UNL     1       7.128  28.733  56.365  1.00  0.00     0.046 C 
HETATM   10  H   UNL     1       6.171  25.683  55.662  1.00  0.00     0.166 HD
ENDROOT
BRANCH   4  11
HETATM   11  S   UNL     1       4.888  26.151  53.296  1.00  0.00    -0.102 SA
BRANCH  11  12
HETATM   12  C   UNL     1       5.969  25.763  51.888  1.00  0.00     0.184 C 
BRANCH  12  13
HETATM   13  C   UNL     1       7.076  24.780  52.297  1.00  0.00     0.231 C 
HETATM   14  N   UNL     1       6.615  23.627  52.910  1.00  0.00    -0.327 N 
HETATM   15  H   UNL     1       5.615  23.610  53.086  1.00  0.00     0.169 HD
HETATM   16  O   UNL     1       8.250  25.032  52.033  1.00  0.00    -0.272 OA
BRANCH  14  17
HETATM   17  C   UNL     1       7.346  22.541  53.422  1.00  0.00     0.035 A 
HETATM   18  C   UNL     1       7.562  22.311  54.781  1.00  0.00     0.045 A 
HETATM   19  C   UNL     1       8.303  21.193  55.210  1.00  0.00     0.050 A 
HETATM   20  C   UNL     1       8.813  20.298  54.256  1.00  0.00     0.016 A 
HETATM   21  C   UNL     1       8.601  20.523  52.899  1.00  0.00     0.003 A 
HETATM   22  C   UNL     1       7.877  21.641  52.487  1.00  0.00     0.029 A 
BRANCH  19  23
HETATM   23  C   UNL     1       8.540  20.932  56.677  1.00  0.00     0.417 C 
HETATM   24  F   UNL     1       7.525  20.268  57.294  1.00  0.00    -0.166 F 
HETATM   25  F   UNL     1       9.661  20.189  56.894  1.00  0.00    -0.166 F 
HETATM   26  F   UNL     1       8.718  22.082  57.387  1.00  0.00    -0.166 F 
ENDBRANCH  19  23
ENDBRANCH  14  17
ENDBRANCH  12  13
ENDBRANCH  11  12
ENDBRANCH   4  11
BRANCH   8  27
HETATM   27  C   UNL     1       5.130  30.188  55.757  1.00  0.00    -0.042 A 
HETATM   28  C   UNL     1       5.040  31.589  55.749  1.00  0.00     0.027 A 
HETATM   29  C   UNL     1       3.906  32.193  56.268  1.00  0.00     0.116 A 
HETATM   30  N   UNL     1       2.872  31.514  56.802  1.00  0.00    -0.273 NA
HETATM   31  C   UNL     1       2.971  30.167  56.800  1.00  0.00     0.116 A 
HETATM   32  C   UNL     1       4.061  29.468  56.301  1.00  0.00     0.027 A 
ENDBRANCH   8  27
BRANCH   9  33
HETATM   33  C   UNL     1       7.885  29.639  57.287  1.00  0.00     0.255 C 
HETATM   34  N   UNL     1       7.230  29.928  58.465  1.00  0.00    -0.323 N 
HETATM   35  H   UNL     1       6.319  29.514  58.607  1.00  0.00     0.169 HD
HETATM   36  O   UNL     1       9.022  29.983  56.988  1.00  0.00    -0.268 OA
BRANCH  34  37
HETATM   37  C   UNL     1       7.688  30.769  59.506  1.00  0.00     0.035 A 
HETATM   38  C   UNL     1       7.080  31.976  59.862  1.00  0.00     0.029 A 
HETATM   39  C   UNL     1       7.591  32.748  60.911  1.00  0.00     0.002 A 
HETATM   40  C   UNL     1       8.708  32.317  61.619  1.00  0.00     0.000 A 
HETATM   41  C   UNL     1       9.322  31.116  61.275  1.00  0.00     0.002 A 
HETATM   42  C   UNL     1       8.817  30.348  60.220  1.00  0.00     0.029 A 
ENDBRANCH  34  37
ENDBRANCH   9  33
TORSDOF 8
ENDMDL
MODEL 5
REMARK VINA RESULT:     -10.1      5.026     10.641
REMARK  8 active torsions:
REMARK  status: ('A' for Active; 'I' for Inactive)
REMARK    1  A    between atoms: C_4  and  S_5 
REMARK    2  A    between atoms: S_5  and  C_6 
REMARK    3  A    between atoms: C_6  and  C_7 
REMARK       I    between atoms: C_7  and  N_8 
REMARK    4  A    between atoms: N_8  and  C_9 
REMARK    5  A    between atoms: C_11  and  C_12 
REMARK    6  A    between atoms: C_23  and  C_24 
REMARK    7  A    between atoms: C_30  and  C_31 
REMARK       I    between atoms: C_31  and  N_32 
REMARK    8  A    between atoms: N_32  and  C_33 
ROOT
HETATM    1  C   UNL     1       3.956  30.066  56.977  1.00  0.00     0.069 C 
HETATM    2  C   UNL     1       5.423  29.753  56.844  1.00  0.00     0.019 C 
HETATM    3  N   UNL     1       6.213  30.101  57.930  1.00  0.00    -0.353 N 
HETATM    4  C   UNL     1       7.593  29.995  57.996  1.00  0.00     0.087 C 
HETATM    5  C   UNL     1       8.243  29.405  56.967  1.00  0.00     0.055 C 
HETATM    6  C   UNL     1       9.756  29.368  56.821  1.00  0.00     0.019 C 
HETATM    7  N   UNL     1      11.011  29.337  56.699  1.00  0.00    -0.096 N 
HETATM    8  C   UNL     1       7.456  28.671  55.878  1.00  0.00     0.104 C 
HETATM    9  C   UNL     1       5.991  29.108  55.798  1.00  0.00     0.046 C 
HETATM   10  H   UNL     1       5.766  30.510  58.747  1.00  0.00     0.166 HD
ENDROOT
BRANCH   4  11
HETATM   11  S   UNL     1       8.391  30.395  59.497  1.00  0.00    -0.102 SA
BRANCH  11  12
HETATM   12  C   UNL     1       8.131  32.181  59.717  1.00  0.00     0.184 C 
BRANCH  12  13
HETATM   13  C   UNL     1       7.068  32.456  60.791  1.00  0.00     0.231 C 
HETATM   14  N   UNL     1       7.561  33.050  61.940  1.00  0.00    -0.327 N 
HETATM   15  H   UNL     1       8.571  33.156  61.965  1.00  0.00     0.169 HD
HETATM   16  O   UNL     1       5.888  32.190  60.570  1.00  0.00    -0.272 OA
BRANCH  14  17
HETATM   17  C   UNL     1       6.878  33.417  63.113  1.00  0.00     0.035 A 
HETATM   18  C   UNL     1       5.570  33.902  63.141  1.00  0.00     0.045 A 
HETATM   19  C   UNL     1       4.956  34.241  64.362  1.00  0.00     0.050 A 
HETATM   20  C   UNL     1       5.669  34.073  65.559  1.00  0.00     0.016 A 
HETATM   21  C   UNL     1       6.974  33.591  65.538  1.00  0.00     0.003 A 
HETATM   22  C   UNL     1       7.575  33.271  64.321  1.00  0.00     0.029 A 
BRANCH  19  23
HETATM   23  C   UNL     1       3.541  34.763  64.404  1.00  0.00     0.417 C 
HETATM   24  F   UNL     1       3.381  35.979  63.813  1.00  0.00    -0.166 F 
HETATM   25  F   UNL     1       2.663  33.926  63.783  1.00  0.00    -0.166 F 
HETATM   26  F   UNL     1       3.077  34.906  65.678  1.00  0.00    -0.166 F 
ENDBRANCH  19  23
ENDBRANCH  14  17
ENDBRANCH  12  13
ENDBRANCH  11  12
ENDBRANCH   4  11
BRANCH   8  27
HETATM   27  C   UNL     1       7.594  27.160  56.135  1.00  0.00    -0.042 A 
HETATM   28  C   UNL     1       7.838  26.652  57.421  1.00  0.00     0.027 A 
HETATM   29  C   UNL     1       7.999  25.285  57.584  1.00  0.00     0.116 A 
HETATM   30  N   UNL     1       7.949  24.398  56.572  1.00  0.00    -0.273 NA
HETATM   31  C   UNL     1       7.711  24.901  55.341  1.00  0.00     0.116 A 
HETATM   32  C   UNL     1       7.532  26.250  55.074  1.00  0.00     0.027 A 
ENDBRANCH   8  27
BRANCH   9  33
HETATM   33  C   UNL     1       5.295  28.704  54.534  1.00  0.00     0.255 C 
HETATM   34  N   UNL     1       6.055  28.848  53.394  1.00  0.00    -0.323 N 
HETATM   35  H   UNL     1       6.995  29.202  53.501  1.00  0.00     0.169 HD
HETATM   36  O   UNL     1       4.174  28.214  54.600  1.00  0.00    -0.268 OA
BRANCH  34  37
HETATM   37  C   UNL     1       5.654  28.571  52.067  1.00  0.00     0.035 A 
HETATM   38  C   UNL     1       5.522  27.283  51.540  1.00  0.00     0.029 A 
HETATM   39  C   UNL     1       5.111  27.094  50.216  1.00  0.00     0.002 A 
HETATM   40  C   UNL     1       4.821  28.188  49.408  1.00  0.00     0.000 A 
HETATM   41  C   UNL     1       4.948  29.477  49.921  1.00  0.00     0.002 A 
HETATM   42  C   UNL     1       5.367  29.667  51.242  1.00  0.00     0.029 A 
ENDBRANCH  34  37
ENDBRANCH   9  33
TORSDOF 8
ENDMDL
MODEL 6
REMARK VINA RESULT:     -10.1      5.987      9.918
REMARK  8 active torsions:
REMARK  status: ('A' for Active; 'I' for Inactive)
REMARK    1  A    between atoms: C_4  and  S_5 
REMARK    2  A    between atoms: S_5  and  C_6 
REMARK    3  A    between atoms: C_6  and  C_7 
REMARK       I    between atoms: C_7  and  N_8 
REMARK    4  A    between atoms: N_8  and  C_9 
REMARK    5  A    between atoms: C_11  and  C_12 
REMARK    6  A    between atoms: C_23  and  C_24 
REMARK    7  A    between atoms: C_30  and  C_31 
REMARK       I    between atoms: C_31  and  N_32 
REMARK    8  A    between atoms: N_32  and  C_33 
ROOT
HETATM    1  C   UNL     1       5.059  26.782  48.007  1.00  0.00     0.069 C 
HETATM    2  C   UNL     1       4.675  27.743  49.101  1.00  0.00     0.019 C 
HETATM    3  N   UNL     1       5.357  27.593  50.300  1.00  0.00    -0.353 N 
HETATM    4  C   UNL     1       5.110  28.297  51.468  1.00  0.00     0.087 C 
HETATM    5  C   UNL     1       4.201  29.298  51.436  1.00  0.00     0.055 C 
HETATM    6  C   UNL     1       3.704  30.040  52.665  1.00  0.00     0.019 C 
HETATM    7  N   UNL     1       3.291  30.657  53.686  1.00  0.00    -0.096 N 
HETATM    8  C   UNL     1       3.638  29.786  50.097  1.00  0.00     0.104 C 
HETATM    9  C   UNL     1       3.787  28.757  48.973  1.00  0.00     0.046 C 
HETATM   10  H   UNL     1       6.083  26.882  50.363  1.00  0.00     0.166 HD
ENDROOT
BRANCH   4  11
HETATM   11  S   UNL     1       6.154  28.028  52.842  1.00  0.00    -0.102 SA
BRANCH  11  12
HETATM   12  C   UNL     1       5.177  27.018  53.995  1.00  0.00     0.184 C 
BRANCH  12  13
HETATM   13  C   UNL     1       5.441  25.521  53.776  1.00  0.00     0.231 C 
HETATM   14  N   UNL     1       6.661  25.081  54.263  1.00  0.00    -0.327 N 
HETATM   15  H   UNL     1       7.262  25.814  54.628  1.00  0.00     0.169 HD
HETATM   16  O   UNL     1       4.583  24.816  53.249  1.00  0.00    -0.272 OA
BRANCH  14  17
HETATM   17  C   UNL     1       7.224  23.794  54.214  1.00  0.00     0.035 A 
HETATM   18  C   UNL     1       7.414  22.978  55.330  1.00  0.00     0.045 A 
HETATM   19  C   UNL     1       7.981  21.696  55.193  1.00  0.00     0.050 A 
HETATM   20  C   UNL     1       8.342  21.238  53.916  1.00  0.00     0.016 A 
HETATM   21  C   UNL     1       8.156  22.047  52.801  1.00  0.00     0.003 A 
HETATM   22  C   UNL     1       7.605  23.319  52.951  1.00  0.00     0.029 A 
BRANCH  19  23
HETATM   23  C   UNL     1       8.189  20.804  56.392  1.00  0.00     0.417 C 
HETATM   24  F   UNL     1       7.198  19.891  56.582  1.00  0.00    -0.166 F 
HETATM   25  F   UNL     1       9.346  20.089  56.309  1.00  0.00    -0.166 F 
HETATM   26  F   UNL     1       8.274  21.508  57.556  1.00  0.00    -0.166 F 
ENDBRANCH  19  23
ENDBRANCH  14  17
ENDBRANCH  12  13
ENDBRANCH  11  12
ENDBRANCH   4  11
BRANCH   8  27
HETATM   27  C   UNL     1       4.327  31.118  49.755  1.00  0.00    -0.042 A 
HETATM   28  C   UNL     1       3.609  32.323  49.691  1.00  0.00     0.027 A 
HETATM   29  C   UNL     1       4.275  33.484  49.333  1.00  0.00     0.116 A 
HETATM   30  N   UNL     1       5.585  33.533  49.025  1.00  0.00    -0.273 NA
HETATM   31  C   UNL     1       6.264  32.368  49.095  1.00  0.00     0.116 A 
HETATM   32  C   UNL     1       5.691  31.153  49.446  1.00  0.00     0.027 A 
ENDBRANCH   8  27
BRANCH   9  33
HETATM   33  C   UNL     1       2.937  29.031  47.770  1.00  0.00     0.255 C 
HETATM   34  N   UNL     1       1.602  28.729  47.935  1.00  0.00    -0.323 N 
HETATM   35  H   UNL     1       1.314  28.360  48.831  1.00  0.00     0.169 HD
HETATM   36  O   UNL     1       3.442  29.561  46.788  1.00  0.00    -0.268 OA
BRANCH  34  37
HETATM   37  C   UNL     1       0.577  28.859  46.970  1.00  0.00     0.035 A 
HETATM   38  C   UNL     1      -0.165  30.025  46.767  1.00  0.00     0.029 A 
HETATM   39  C   UNL     1      -1.158  30.075  45.783  1.00  0.00     0.002 A 
HETATM   40  C   UNL     1      -1.415  28.963  44.988  1.00  0.00     0.000 A 
HETATM   41  C   UNL     1      -0.682  27.795  45.179  1.00  0.00     0.002 A 
HETATM   42  C   UNL     1       0.306  27.741  46.169  1.00  0.00     0.029 A 
ENDBRANCH  34  37
ENDBRANCH   9  33
TORSDOF 8
ENDMDL
MODEL 7
REMARK VINA RESULT:      -9.9      4.188      5.103
REMARK  8 active torsions:
REMARK  status: ('A' for Active; 'I' for Inactive)
REMARK    1  A    between atoms: C_4  and  S_5 
REMARK    2  A    between atoms: S_5  and  C_6 
REMARK    3  A    between atoms: C_6  and  C_7 
REMARK       I    between atoms: C_7  and  N_8 
REMARK    4  A    between atoms: N_8  and  C_9 
REMARK    5  A    between atoms: C_11  and  C_12 
REMARK    6  A    between atoms: C_23  and  C_24 
REMARK    7  A    between atoms: C_30  and  C_31 
REMARK       I    between atoms: C_31  and  N_32 
REMARK    8  A    between atoms: N_32  and  C_33 
ROOT
HETATM    1  C   UNL     1       4.933  32.904  57.133  1.00  0.00     0.069 C 
HETATM    2  C   UNL     1       5.434  31.486  57.214  1.00  0.00     0.019 C 
HETATM    3  N   UNL     1       4.961  30.624  56.236  1.00  0.00    -0.353 N 
HETATM    4  C   UNL     1       5.210  29.262  56.165  1.00  0.00     0.087 C 
HETATM    5  C   UNL     1       6.072  28.719  57.055  1.00  0.00     0.055 C 
HETATM    6  C   UNL     1       6.313  27.226  57.209  1.00  0.00     0.019 C 
HETATM    7  N   UNL     1       6.513  25.987  57.337  1.00  0.00    -0.096 N 
HETATM    8  C   UNL     1       6.921  29.621  57.956  1.00  0.00     0.104 C 
HETATM    9  C   UNL     1       6.343  31.031  58.109  1.00  0.00     0.046 C 
HETATM   10  H   UNL     1       4.343  30.993  55.518  1.00  0.00     0.166 HD
ENDROOT
BRANCH   4  11
HETATM   11  S   UNL     1       4.602  28.372  54.792  1.00  0.00    -0.102 SA
BRANCH  11  12
HETATM   12  C   UNL     1       4.642  29.545  53.404  1.00  0.00     0.184 C 
BRANCH  12  13
HETATM   13  C   UNL     1       4.083  28.904  52.124  1.00  0.00     0.231 C 
HETATM   14  N   UNL     1       5.041  28.621  51.165  1.00  0.00    -0.327 N 
HETATM   15  H   UNL     1       5.977  28.945  51.390  1.00  0.00     0.169 HD
HETATM   16  O   UNL     1       2.884  28.646  52.039  1.00  0.00    -0.272 OA
BRANCH  14  17
HETATM   17  C   UNL     1       4.877  28.059  49.887  1.00  0.00     0.035 A 
HETATM   18  C   UNL     1       4.030  26.988  49.603  1.00  0.00     0.045 A 
HETATM   19  C   UNL     1       3.920  26.488  48.291  1.00  0.00     0.050 A 
HETATM   20  C   UNL     1       4.664  27.088  47.262  1.00  0.00     0.016 A 
HETATM   21  C   UNL     1       5.510  28.156  47.540  1.00  0.00     0.003 A 
HETATM   22  C   UNL     1       5.620  28.634  48.846  1.00  0.00     0.029 A 
BRANCH  19  23
HETATM   23  C   UNL     1       3.005  25.331  47.972  1.00  0.00     0.417 C 
HETATM   24  F   UNL     1       3.079  24.304  48.862  1.00  0.00    -0.166 F 
HETATM   25  F   UNL     1       1.695  25.704  47.937  1.00  0.00    -0.166 F 
HETATM   26  F   UNL     1       3.265  24.784  46.751  1.00  0.00    -0.166 F 
ENDBRANCH  19  23
ENDBRANCH  14  17
ENDBRANCH  12  13
ENDBRANCH  11  12
ENDBRANCH   4  11
BRANCH   8  27
HETATM   27  C   UNL     1       8.351  29.641  57.389  1.00  0.00    -0.042 A 
HETATM   28  C   UNL     1       9.461  29.919  58.202  1.00  0.00     0.027 A 
HETATM   29  C   UNL     1      10.721  29.969  57.626  1.00  0.00     0.116 A 
HETATM   30  N   UNL     1      10.953  29.778  56.313  1.00  0.00    -0.273 NA
HETATM   31  C   UNL     1       9.876  29.508  55.544  1.00  0.00     0.116 A 
HETATM   32  C   UNL     1       8.576  29.433  56.024  1.00  0.00     0.027 A 
ENDBRANCH   8  27
BRANCH   9  33
HETATM   33  C   UNL     1       6.918  31.813  59.250  1.00  0.00     0.255 C 
HETATM   34  N   UNL     1       6.246  31.655  60.444  1.00  0.00    -0.323 N 
HETATM   35  H   UNL     1       5.445  31.039  60.451  1.00  0.00     0.169 HD
HETATM   36  O   UNL     1       7.951  32.448  59.080  1.00  0.00    -0.268 OA
BRANCH  34  37
HETATM   37  C   UNL     1       6.545  32.284  61.674  1.00  0.00     0.035 A 
HETATM   38  C   UNL     1       5.752  33.274  62.261  1.00  0.00     0.029 A 
HETATM   39  C   UNL     1       6.113  33.841  63.488  1.00  0.00     0.002 A 
HETATM   40  C   UNL     1       7.266  33.421  64.143  1.00  0.00     0.000 A 
HETATM   41  C   UNL     1       8.064  32.435  63.569  1.00  0.00     0.002 A 
HETATM   42  C   UNL     1       7.708  31.873  62.339  1.00  0.00     0.029 A 
ENDBRANCH  34  37
ENDBRANCH   9  33
TORSDOF 8
ENDMDL
MODEL 8
REMARK VINA RESULT:      -9.8      5.942      9.012
REMARK  8 active torsions:
REMARK  status: ('A' for Active; 'I' for Inactive)
REMARK    1  A    between atoms: C_4  and  S_5 
REMARK    2  A    between atoms: S_5  and  C_6 
REMARK    3  A    between atoms: C_6  and  C_7 
REMARK       I    between atoms: C_7  and  N_8 
REMARK    4  A    between atoms: N_8  and  C_9 
REMARK    5  A    between atoms: C_11  and  C_12 
REMARK    6  A    between atoms: C_23  and  C_24 
REMARK    7  A    between atoms: C_30  and  C_31 
REMARK       I    between atoms: C_31  and  N_32 
REMARK    8  A    between atoms: N_32  and  C_33 
ROOT
HETATM    1  C   UNL     1       4.537  33.215  52.264  1.00  0.00     0.069 C 
HETATM    2  C   UNL     1       4.604  31.853  51.624  1.00  0.00     0.019 C 
HETATM    3  N   UNL     1       4.351  30.780  52.466  1.00  0.00    -0.353 N 
HETATM    4  C   UNL     1       4.447  29.441  52.125  1.00  0.00     0.087 C 
HETATM    5  C   UNL     1       4.705  29.122  50.836  1.00  0.00     0.055 C 
HETATM    6  C   UNL     1       5.004  27.714  50.347  1.00  0.00     0.019 C 
HETATM    7  N   UNL     1       5.253  26.546  49.941  1.00  0.00    -0.096 N 
HETATM    8  C   UNL     1       4.658  30.202  49.751  1.00  0.00     0.104 C 
HETATM    9  C   UNL     1       4.817  31.619  50.308  1.00  0.00     0.046 C 
HETATM   10  H   UNL     1       4.110  30.968  53.437  1.00  0.00     0.166 HD
ENDROOT
BRANCH   4  11
HETATM   11  S   UNL     1       3.987  28.242  53.308  1.00  0.00    -0.102 SA
BRANCH  11  12
HETATM   12  C   UNL     1       5.550  27.630  54.005  1.00  0.00     0.184 C 
BRANCH  12  13
HETATM   13  C   UNL     1       5.698  26.118  53.783  1.00  0.00     0.231 C 
HETATM   14  N   UNL     1       6.899  25.592  54.230  1.00  0.00    -0.327 N 
HETATM   15  H   UNL     1       7.563  26.280  54.574  1.00  0.00     0.169 HD
HETATM   16  O   UNL     1       4.775  25.476  53.287  1.00  0.00    -0.272 OA
BRANCH  14  17
HETATM   17  C   UNL     1       7.366  24.267  54.168  1.00  0.00     0.035 A 
HETATM   18  C   UNL     1       7.553  23.448  55.281  1.00  0.00     0.045 A 
HETATM   19  C   UNL     1       8.020  22.128  55.130  1.00  0.00     0.050 A 
HETATM   20  C   UNL     1       8.285  21.636  53.842  1.00  0.00     0.016 A 
HETATM   21  C   UNL     1       8.101  22.449  52.728  1.00  0.00     0.003 A 
HETATM   22  C   UNL     1       7.650  23.759  52.893  1.00  0.00     0.029 A 
BRANCH  19  23
HETATM   23  C   UNL     1       8.224  21.232  56.326  1.00  0.00     0.417 C 
HETATM   24  F   UNL     1       7.259  20.283  56.478  1.00  0.00    -0.166 F 
HETATM   25  F   UNL     1       9.407  20.558  56.271  1.00  0.00    -0.166 F 
HETATM   26  F   UNL     1       8.249  21.927  57.499  1.00  0.00    -0.166 F 
ENDBRANCH  19  23
ENDBRANCH  14  17
ENDBRANCH  12  13
ENDBRANCH  11  12
ENDBRANCH   4  11
BRANCH   8  27
HETATM   27  C   UNL     1       3.342  30.031  48.973  1.00  0.00    -0.042 A 
HETATM   28  C   UNL     1       3.329  29.628  47.628  1.00  0.00     0.027 A 
HETATM   29  C   UNL     1       2.115  29.535  46.966  1.00  0.00     0.116 A 
HETATM   30  N   UNL     1       0.927  29.824  47.533  1.00  0.00    -0.273 NA
HETATM   31  C   UNL     1       0.955  30.207  48.828  1.00  0.00     0.116 A 
HETATM   32  C   UNL     1       2.116  30.328  49.579  1.00  0.00     0.027 A 
ENDBRANCH   8  27
BRANCH   9  33
HETATM   33  C   UNL     1       5.148  32.654  49.276  1.00  0.00     0.255 C 
HETATM   34  N   UNL     1       6.443  32.599  48.808  1.00  0.00    -0.323 N 
HETATM   35  H   UNL     1       7.046  31.882  49.188  1.00  0.00     0.169 HD
HETATM   36  O   UNL     1       4.263  33.397  48.869  1.00  0.00    -0.268 OA
BRANCH  34  37
HETATM   37  C   UNL     1       7.039  33.458  47.857  1.00  0.00     0.035 A 
HETATM   38  C   UNL     1       6.927  33.295  46.474  1.00  0.00     0.029 A 
HETATM   39  C   UNL     1       7.542  34.197  45.599  1.00  0.00     0.002 A 
HETATM   40  C   UNL     1       8.268  35.274  46.096  1.00  0.00     0.000 A 
HETATM   41  C   UNL     1       8.386  35.449  47.473  1.00  0.00     0.002 A 
HETATM   42  C   UNL     1       7.779  34.542  48.349  1.00  0.00     0.029 A 
ENDBRANCH  34  37
ENDBRANCH   9  33
TORSDOF 8
ENDMDL
MODEL 9
REMARK VINA RESULT:      -9.7      5.080      6.046
REMARK  8 active torsions:
REMARK  status: ('A' for Active; 'I' for Inactive)
REMARK    1  A    between atoms: C_4  and  S_5 
REMARK    2  A    between atoms: S_5  and  C_6 
REMARK    3  A    between atoms: C_6  and  C_7 
REMARK       I    between atoms: C_7  and  N_8 
REMARK    4  A    between atoms: N_8  and  C_9 
REMARK    5  A    between atoms: C_11  and  C_12 
REMARK    6  A    between atoms: C_23  and  C_24 
REMARK    7  A    between atoms: C_30  and  C_31 
REMARK       I    between atoms: C_31  and  N_32 
REMARK    8  A    between atoms: N_32  and  C_33 
ROOT
HETATM    1  C   UNL     1       4.227  31.243  55.262  1.00  0.00     0.069 C 
HETATM    2  C   UNL     1       5.056  30.159  55.899  1.00  0.00     0.019 C 
HETATM    3  N   UNL     1       5.084  28.948  55.223  1.00  0.00    -0.353 N 
HETATM    4  C   UNL     1       5.699  27.787  55.663  1.00  0.00     0.087 C 
HETATM    5  C   UNL     1       6.433  27.838  56.798  1.00  0.00     0.055 C 
HETATM    6  C   UNL     1       7.022  26.620  57.491  1.00  0.00     0.019 C 
HETATM    7  N   UNL     1       7.510  25.610  58.066  1.00  0.00    -0.096 N 
HETATM    8  C   UNL     1       6.763  29.189  57.442  1.00  0.00     0.104 C 
HETATM    9  C   UNL     1       5.808  30.306  57.015  1.00  0.00     0.046 C 
HETATM   10  H   UNL     1       4.582  28.869  54.341  1.00  0.00     0.166 HD
ENDROOT
BRANCH   4  11
HETATM   11  S   UNL     1       5.704  26.393  54.611  1.00  0.00    -0.102 SA
BRANCH  11  12
HETATM   12  C   UNL     1       6.442  26.971  53.053  1.00  0.00     0.184 C 
BRANCH  12  13
HETATM   13  C   UNL     1       5.355  27.354  52.037  1.00  0.00     0.231 C 
HETATM   14  N   UNL     1       5.652  27.007  50.730  1.00  0.00    -0.327 N 
HETATM   15  H   UNL     1       6.580  26.619  50.593  1.00  0.00     0.169 HD
HETATM   16  O   UNL     1       4.313  27.880  52.421  1.00  0.00    -0.272 OA
BRANCH  14  17
HETATM   17  C   UNL     1       4.899  27.223  49.562  1.00  0.00     0.035 A 
HETATM   18  C   UNL     1       4.782  28.457  48.920  1.00  0.00     0.045 A 
HETATM   19  C   UNL     1       4.012  28.587  47.749  1.00  0.00     0.050 A 
HETATM   20  C   UNL     1       3.370  27.455  47.221  1.00  0.00     0.016 A 
HETATM   21  C   UNL     1       3.482  26.223  47.856  1.00  0.00     0.003 A 
HETATM   22  C   UNL     1       4.237  26.111  49.023  1.00  0.00     0.029 A 
BRANCH  19  23
HETATM   23  C   UNL     1       3.881  29.915  47.045  1.00  0.00     0.417 C 
HETATM   24  F   UNL     1       2.749  30.038  46.301  1.00  0.00    -0.166 F 
HETATM   25  F   UNL     1       3.872  30.962  47.917  1.00  0.00    -0.166 F 
HETATM   26  F   UNL     1       4.916  30.155  46.191  1.00  0.00    -0.166 F 
ENDBRANCH  19  23
ENDBRANCH  14  17
ENDBRANCH  12  13
ENDBRANCH  11  12
ENDBRANCH   4  11
BRANCH   8  27
HETATM   27  C   UNL     1       8.228  29.522  57.111  1.00  0.00    -0.042 A 
HETATM   28  C   UNL     1       8.766  29.287  55.835  1.00  0.00     0.027 A 
HETATM   29  C   UNL     1      10.105  29.564  55.609  1.00  0.00     0.116 A 
HETATM   30  N   UNL     1      10.942  30.040  56.551  1.00  0.00    -0.273 NA
HETATM   31  C   UNL     1      10.409  30.264  57.772  1.00  0.00     0.116 A 
HETATM   32  C   UNL     1       9.083  30.023  58.099  1.00  0.00     0.027 A 
ENDBRANCH   8  27
BRANCH   9  33
HETATM   33  C   UNL     1       5.857  31.526  57.884  1.00  0.00     0.255 C 
HETATM   34  N   UNL     1       5.883  31.260  59.236  1.00  0.00    -0.323 N 
HETATM   35  H   UNL     1       5.871  30.290  59.522  1.00  0.00     0.169 HD
HETATM   36  O   UNL     1       5.952  32.629  57.362  1.00  0.00    -0.268 OA
BRANCH  34  37
HETATM   37  C   UNL     1       5.905  32.206  60.287  1.00  0.00     0.035 A 
HETATM   38  C   UNL     1       4.788  32.928  60.715  1.00  0.00     0.029 A 
HETATM   39  C   UNL     1       4.892  33.842  61.769  1.00  0.00     0.002 A 
HETATM   40  C   UNL     1       6.110  34.037  62.410  1.00  0.00     0.000 A 
HETATM   41  C   UNL     1       7.231  33.323  61.994  1.00  0.00     0.002 A 
HETATM   42  C   UNL     1       7.130  32.416  60.934  1.00  0.00     0.029 A 
ENDBRANCH  34  37
ENDBRANCH   9  33
TORSDOF 8
ENDMDL
MODEL 10
REMARK VINA RESULT:      -9.5      5.663      9.141
REMARK  8 active torsions:
REMARK  status: ('A' for Active; 'I' for Inactive)
REMARK    1  A    between atoms: C_4  and  S_5 
REMARK    2  A    between atoms: S_5  and  C_6 
REMARK    3  A    between atoms: C_6  and  C_7 
REMARK       I    between atoms: C_7  and  N_8 
REMARK    4  A    between atoms: N_8  and  C_9 
REMARK    5  A    between atoms: C_11  and  C_12 
REMARK    6  A    between atoms: C_23  and  C_24 
REMARK    7  A    between atoms: C_30  and  C_31 
REMARK       I    between atoms: C_31  and  N_32 
REMARK    8  A    between atoms: N_32  and  C_33 
ROOT
HETATM    1  C   UNL     1       4.530  32.674  51.905  1.00  0.00     0.069 C 
HETATM    2  C   UNL     1       4.774  31.222  51.585  1.00  0.00     0.019 C 
HETATM    3  N   UNL     1       4.585  30.335  52.634  1.00  0.00    -0.353 N 
HETATM    4  C   UNL     1       4.838  28.973  52.601  1.00  0.00     0.087 C 
HETATM    5  C   UNL     1       5.203  28.415  51.425  1.00  0.00     0.055 C 
HETATM    6  C   UNL     1       5.674  26.978  51.270  1.00  0.00     0.019 C 
HETATM    7  N   UNL     1       6.065  25.785  51.142  1.00  0.00    -0.096 N 
HETATM    8  C   UNL     1       5.109  29.222  50.127  1.00  0.00     0.104 C 
HETATM    9  C   UNL     1       5.088  30.735  50.361  1.00  0.00     0.046 C 
HETATM   10  H   UNL     1       4.269  30.699  53.530  1.00  0.00     0.166 HD
ENDROOT
BRANCH   4  11
HETATM   11  S   UNL     1       4.435  28.014  54.004  1.00  0.00    -0.102 SA
BRANCH  11  12
HETATM   12  C   UNL     1       6.030  27.495  54.705  1.00  0.00     0.184 C 
BRANCH  12  13
HETATM   13  C   UNL     1       6.091  25.968  54.863  1.00  0.00     0.231 C 
HETATM   14  N   UNL     1       7.225  25.386  54.321  1.00  0.00    -0.327 N 
HETATM   15  H   UNL     1       7.832  26.025  53.817  1.00  0.00     0.169 HD
HETATM   16  O   UNL     1       5.202  25.376  55.471  1.00  0.00    -0.272 OA
BRANCH  14  17
HETATM   17  C   UNL     1       7.588  24.028  54.272  1.00  0.00     0.035 A 
HETATM   18  C   UNL     1       7.771  23.223  55.396  1.00  0.00     0.045 A 
HETATM   19  C   UNL     1       8.130  21.868  55.259  1.00  0.00     0.050 A 
HETATM   20  C   UNL     1       8.289  21.327  53.973  1.00  0.00     0.016 A 
HETATM   21  C   UNL     1       8.109  22.125  52.848  1.00  0.00     0.003 A 
HETATM   22  C   UNL     1       7.767  23.469  52.998  1.00  0.00     0.029 A 
BRANCH  19  23
HETATM   23  C   UNL     1       8.327  20.988  56.468  1.00  0.00     0.417 C 
HETATM   24  F   UNL     1       7.407  19.992  56.584  1.00  0.00    -0.166 F 
HETATM   25  F   UNL     1       9.544  20.375  56.467  1.00  0.00    -0.166 F 
HETATM   26  F   UNL     1       8.268  21.687  57.636  1.00  0.00    -0.166 F 
ENDBRANCH  19  23
ENDBRANCH  14  17
ENDBRANCH  12  13
ENDBRANCH  11  12
ENDBRANCH   4  11
BRANCH   8  27
HETATM   27  C   UNL     1       3.865  28.739  49.361  1.00  0.00    -0.042 A 
HETATM   28  C   UNL     1       2.574  28.869  49.898  1.00  0.00     0.027 A 
HETATM   29  C   UNL     1       1.496  28.373  49.183  1.00  0.00     0.116 A 
HETATM   30  N   UNL     1       1.606  27.753  47.992  1.00  0.00    -0.273 NA
HETATM   31  C   UNL     1       2.854  27.638  47.487  1.00  0.00     0.116 A 
HETATM   32  C   UNL     1       3.996  28.103  48.122  1.00  0.00     0.027 A 
ENDBRANCH   8  27
BRANCH   9  33
HETATM   33  C   UNL     1       5.370  31.553  49.138  1.00  0.00     0.255 C 
HETATM   34  N   UNL     1       4.286  31.722  48.304  1.00  0.00    -0.323 N 
HETATM   35  H   UNL     1       3.413  31.294  48.580  1.00  0.00     0.169 HD
HETATM   36  O   UNL     1       6.473  32.068  49.004  1.00  0.00    -0.268 OA
BRANCH  34  37
HETATM   37  C   UNL     1       4.263  32.421  47.074  1.00  0.00     0.035 A 
HETATM   38  C   UNL     1       4.527  31.834  45.834  1.00  0.00     0.029 A 
HETATM   39  C   UNL     1       4.476  32.594  44.661  1.00  0.00     0.002 A 
HETATM   40  C   UNL     1       4.151  33.945  44.715  1.00  0.00     0.000 A 
HETATM   41  C   UNL     1       3.884  34.542  45.944  1.00  0.00     0.002 A 
HETATM   42  C   UNL     1       3.944  33.785  47.119  1.00  0.00     0.029 A 
ENDBRANCH  34  37
ENDBRANCH   9  33
TORSDOF 8
ENDMDL
