MODEL 1
REMARK VINA RESULT:      -9.2      0.000      0.000
REMARK  10 active torsions:
REMARK  status: ('A' for Active; 'I' for Inactive)
REMARK    1  A    between atoms: C_2  and  N_3 
REMARK    2  A    between atoms: N_3  and  C_4 
REMARK    3  A    between atoms: N_3  and  C_37 
REMARK    4  A    between atoms: C_7  and  C_8 
REMARK    5  A    between atoms: N_9  and  C_11 
REMARK    6  A    between atoms: C_11  and  C_12 
REMARK       I    between atoms: C_12  and  N_13 
REMARK    7  A    between atoms: N_13  and  C_14 
REMARK    8  A    between atoms: C_20  and  C_21 
REMARK    9  A    between atoms: C_21  and  O_22 
REMARK   10  A    between atoms: C_28  and  O_29 
ROOT
HETATM    1  C   UNL     1       5.547  27.401  51.331  1.00  0.00     0.228 C 
HETATM    2  N   UNL     1       5.220  28.478  52.359  1.00  0.00    -0.054 N 
HETATM    3  H   UNL     1       6.124  28.702  52.811  1.00  0.00     0.281 HD
HETATM    4  C   UNL     1       4.813  29.787  51.726  1.00  0.00     0.239 C 
HETATM    5  C   UNL     1       3.609  29.590  50.820  1.00  0.00     0.066 C 
HETATM    6  C   UNL     1       3.912  28.557  49.738  1.00  0.00     0.065 C 
HETATM    7  C   UNL     1       4.342  27.206  50.367  1.00  0.00     0.055 C 
HETATM    8  C   UNL     1       2.699  28.360  48.812  1.00  0.00     0.038 C 
HETATM    9  C   UNL     1       2.978  27.334  47.715  1.00  0.00     0.003 C 
HETATM   10  C   UNL     1       3.471  26.014  48.293  1.00  0.00     0.001 C 
HETATM   11  C   UNL     1       4.664  26.205  49.230  1.00  0.00     0.010 C 
ENDROOT
BRANCH   2  12
HETATM   12  C   UNL     1       4.364  28.087  53.575  1.00  0.00     0.338 C 
BRANCH  12  13
HETATM   13  C   UNL     1       5.244  28.100  54.833  1.00  0.00     0.248 C 
HETATM   14  N   UNL     1       5.880  29.296  55.078  1.00  0.00    -0.319 N 
HETATM   15  H   UNL     1       5.445  30.169  54.774  1.00  0.00     0.169 HD
HETATM   16  O   UNL     1       5.343  27.051  55.470  1.00  0.00    -0.271 OA
BRANCH  14  17
HETATM   17  C   UNL     1       6.984  29.463  55.908  1.00  0.00     0.094 A 
HETATM   18  S   UNL     1       8.502  28.878  55.437  1.00  0.00    -0.076 SA
HETATM   19  C   UNL     1       9.271  29.529  56.809  1.00  0.00    -0.012 A 
HETATM   20  C   UNL     1      10.747  29.340  56.979  1.00  0.00     0.057 C 
HETATM   21  C   UNL     1       8.382  30.194  57.644  1.00  0.00    -0.030 A 
HETATM   22  C   UNL     1       8.785  30.857  58.928  1.00  0.00     0.050 C 
HETATM   23  C   UNL     1       7.027  30.170  57.103  1.00  0.00     0.080 A 
BRANCH  23  24
HETATM   24  C   UNL     1       5.811  30.771  57.667  1.00  0.00     0.296 C 
HETATM   25  O   UNL     1       5.775  31.949  58.020  1.00  0.00    -0.259 OA
BRANCH  24  26
HETATM   26  O   UNL     1       4.759  29.915  57.741  1.00  0.00    -0.322 OA
HETATM   27  C   UNL     1       3.484  30.504  57.486  1.00  0.00     0.213 C 
ENDBRANCH  24  26
ENDBRANCH  23  24
ENDBRANCH  14  17
ENDBRANCH  12  13
ENDBRANCH   2  12
BRANCH   1  28
HETATM   28  C   UNL     1       6.121  26.157  51.994  1.00  0.00    -0.027 A 
HETATM   29  C   UNL     1       7.495  25.948  52.181  1.00  0.00     0.011 A 
HETATM   30  C   UNL     1       7.965  24.825  52.874  1.00  0.00     0.030 A 
HETATM   31  C   UNL     1       7.088  23.854  53.366  1.00  0.00     0.030 A 
HETATM   32  C   UNL     1       5.724  24.024  53.105  1.00  0.00     0.030 A 
HETATM   33  C   UNL     1       5.242  25.158  52.440  1.00  0.00     0.011 A 
BRANCH  31  34
HETATM   34  N   UNL     1       7.503  22.760  54.121  1.00  0.00    -0.382 N 
BRANCH  34  35
HETATM   35  C   UNL     1       7.401  22.813  55.587  1.00  0.00     0.118 C 
HETATM   36  C   UNL     1       8.589  23.551  56.193  1.00  0.00     0.026 C 
ENDBRANCH  34  35
BRANCH  34  37
HETATM   37  C   UNL     1       8.627  21.992  53.564  1.00  0.00     0.118 C 
HETATM   38  C   UNL     1       8.171  20.700  52.899  1.00  0.00     0.026 C 
ENDBRANCH  34  37
ENDBRANCH  31  34
ENDBRANCH   1  28
BRANCH   6  39
HETATM   39  O   UNL     1       5.013  29.068  48.977  1.00  0.00    -0.389 OA
HETATM   40  H   UNL     1       5.793  28.495  49.110  1.00  0.00     0.210 HD
ENDBRANCH   6  39
TORSDOF 10
ENDMDL
MODEL 2
REMARK VINA RESULT:      -9.0      2.366      8.071
REMARK  10 active torsions:
REMARK  status: ('A' for Active; 'I' for Inactive)
REMARK    1  A    between atoms: C_2  and  N_3 
REMARK    2  A    between atoms: N_3  and  C_4 
REMARK    3  A    between atoms: N_3  and  C_37 
REMARK    4  A    between atoms: C_7  and  C_8 
REMARK    5  A    between atoms: N_9  and  C_11 
REMARK    6  A    between atoms: C_11  and  C_12 
REMARK       I    between atoms: C_12  and  N_13 
REMARK    7  A    between atoms: N_13  and  C_14 
REMARK    8  A    between atoms: C_20  and  C_21 
REMARK    9  A    between atoms: C_21  and  O_22 
REMARK   10  A    between atoms: C_28  and  O_29 
ROOT
HETATM    1  C   UNL     1       7.530  24.774  54.577  1.00  0.00     0.228 C 
HETATM    2  N   UNL     1       6.843  24.652  53.222  1.00  0.00    -0.054 N 
HETATM    3  H   UNL     1       7.089  25.522  52.717  1.00  0.00     0.281 HD
HETATM    4  C   UNL     1       7.439  23.567  52.359  1.00  0.00     0.239 C 
HETATM    5  C   UNL     1       7.371  22.225  53.067  1.00  0.00     0.066 C 
HETATM    6  C   UNL     1       8.098  22.286  54.408  1.00  0.00     0.065 C 
HETATM    7  C   UNL     1       7.507  23.402  55.308  1.00  0.00     0.055 C 
HETATM    8  C   UNL     1       8.041  20.925  55.126  1.00  0.00     0.038 C 
HETATM    9  C   UNL     1       8.767  20.958  56.470  1.00  0.00     0.003 C 
HETATM   10  C   UNL     1       8.260  22.089  57.355  1.00  0.00     0.001 C 
HETATM   11  C   UNL     1       8.296  23.439  56.640  1.00  0.00     0.010 C 
ENDROOT
BRANCH   2  12
HETATM   12  C   UNL     1       5.307  24.703  53.179  1.00  0.00     0.338 C 
BRANCH  12  13
HETATM   13  C   UNL     1       4.864  26.067  52.632  1.00  0.00     0.248 C 
HETATM   14  N   UNL     1       5.080  26.243  51.284  1.00  0.00    -0.319 N 
HETATM   15  H   UNL     1       5.060  25.434  50.660  1.00  0.00     0.169 HD
HETATM   16  O   UNL     1       4.413  26.884  53.435  1.00  0.00    -0.271 OA
BRANCH  14  17
HETATM   17  C   UNL     1       5.115  27.471  50.630  1.00  0.00     0.094 A 
HETATM   18  S   UNL     1       5.532  28.878  51.476  1.00  0.00    -0.076 SA
HETATM   19  C   UNL     1       5.469  29.840  50.073  1.00  0.00    -0.012 A 
HETATM   20  C   UNL     1       5.775  31.302  50.176  1.00  0.00     0.057 C 
HETATM   21  C   UNL     1       5.125  29.105  48.947  1.00  0.00    -0.030 A 
HETATM   22  C   UNL     1       4.989  29.699  47.576  1.00  0.00     0.050 C 
HETATM   23  C   UNL     1       4.930  27.695  49.272  1.00  0.00     0.080 A 
BRANCH  23  24
HETATM   24  C   UNL     1       4.580  26.593  48.366  1.00  0.00     0.296 C 
HETATM   25  O   UNL     1       5.226  26.363  47.345  1.00  0.00    -0.259 OA
BRANCH  24  26
HETATM   26  O   UNL     1       3.506  25.867  48.774  1.00  0.00    -0.322 OA
HETATM   27  C   UNL     1       2.707  25.330  47.720  1.00  0.00     0.213 C 
ENDBRANCH  24  26
ENDBRANCH  23  24
ENDBRANCH  14  17
ENDBRANCH  12  13
ENDBRANCH   2  12
BRANCH   1  28
HETATM   28  C   UNL     1       7.027  25.986  55.348  1.00  0.00    -0.027 A 
HETATM   29  C   UNL     1       6.101  25.901  56.398  1.00  0.00     0.011 A 
HETATM   30  C   UNL     1       5.736  27.038  57.131  1.00  0.00     0.030 A 
HETATM   31  C   UNL     1       6.248  28.300  56.818  1.00  0.00     0.030 A 
HETATM   32  C   UNL     1       7.108  28.394  55.717  1.00  0.00     0.030 A 
HETATM   33  C   UNL     1       7.501  27.259  54.998  1.00  0.00     0.011 A 
BRANCH  31  34
HETATM   34  N   UNL     1       5.971  29.445  57.562  1.00  0.00    -0.382 N 
BRANCH  34  35
HETATM   35  C   UNL     1       4.643  30.068  57.463  1.00  0.00     0.118 C 
HETATM   36  C   UNL     1       4.695  31.337  56.620  1.00  0.00     0.026 C 
ENDBRANCH  34  35
BRANCH  34  37
HETATM   37  C   UNL     1       7.110  30.347  57.788  1.00  0.00     0.118 C 
HETATM   38  C   UNL     1       8.060  29.822  58.857  1.00  0.00     0.026 C 
ENDBRANCH  34  37
ENDBRANCH  31  34
ENDBRANCH   1  28
BRANCH   6  39
HETATM   39  O   UNL     1       9.463  22.614  54.122  1.00  0.00    -0.389 OA
HETATM   40  H   UNL     1       9.493  23.282  53.409  1.00  0.00     0.210 HD
ENDBRANCH   6  39
TORSDOF 10
ENDMDL
MODEL 3
REMARK VINA RESULT:      -8.9      1.479      2.359
REMARK  10 active torsions:
REMARK  status: ('A' for Active; 'I' for Inactive)
REMARK    1  A    between atoms: C_2  and  N_3 
REMARK    2  A    between atoms: N_3  and  C_4 
REMARK    3  A    between atoms: N_3  and  C_37 
REMARK    4  A    between atoms: C_7  and  C_8 
REMARK    5  A    between atoms: N_9  and  C_11 
REMARK    6  A    between atoms: C_11  and  C_12 
REMARK       I    between atoms: C_12  and  N_13 
REMARK    7  A    between atoms: N_13  and  C_14 
REMARK    8  A    between atoms: C_20  and  C_21 
REMARK    9  A    between atoms: C_21  and  O_22 
REMARK   10  A    between atoms: C_28  and  O_29 
ROOT
HETATM    1  C   UNL     1       5.717  27.199  51.401  1.00  0.00     0.228 C 
HETATM    2  N   UNL     1       5.489  28.320  52.408  1.00  0.00    -0.054 N 
HETATM    3  H   UNL     1       6.419  28.502  52.823  1.00  0.00     0.281 HD
HETATM    4  C   UNL     1       5.137  29.633  51.752  1.00  0.00     0.239 C 
HETATM    5  C   UNL     1       3.894  29.484  50.892  1.00  0.00     0.066 C 
HETATM    6  C   UNL     1       4.099  28.407  49.830  1.00  0.00     0.065 C 
HETATM    7  C   UNL     1       4.471  27.050  50.483  1.00  0.00     0.055 C 
HETATM    8  C   UNL     1       2.845  28.258  48.950  1.00  0.00     0.038 C 
HETATM    9  C   UNL     1       3.026  27.188  47.874  1.00  0.00     0.003 C 
HETATM   10  C   UNL     1       3.461  25.857  48.472  1.00  0.00     0.001 C 
HETATM   11  C   UNL     1       4.694  26.003  49.364  1.00  0.00     0.010 C 
ENDROOT
BRANCH   2  12
HETATM   12  C   UNL     1       4.654  28.012  53.662  1.00  0.00     0.338 C 
BRANCH  12  13
HETATM   13  C   UNL     1       4.782  29.180  54.649  1.00  0.00     0.248 C 
HETATM   14  N   UNL     1       6.035  29.335  55.198  1.00  0.00    -0.319 N 
HETATM   15  H   UNL     1       6.858  29.052  54.662  1.00  0.00     0.169 HD
HETATM   16  O   UNL     1       3.767  29.831  54.899  1.00  0.00    -0.271 OA
BRANCH  14  17
HETATM   17  C   UNL     1       6.323  30.051  56.356  1.00  0.00     0.094 A 
HETATM   18  S   UNL     1       5.288  31.288  56.873  1.00  0.00    -0.076 SA
HETATM   19  C   UNL     1       6.187  31.560  58.293  1.00  0.00    -0.012 A 
HETATM   20  C   UNL     1       5.735  32.617  59.253  1.00  0.00     0.057 C 
HETATM   21  C   UNL     1       7.288  30.718  58.387  1.00  0.00    -0.030 A 
HETATM   22  C   UNL     1       8.259  30.744  59.531  1.00  0.00     0.050 C 
HETATM   23  C   UNL     1       7.361  29.810  57.247  1.00  0.00     0.080 A 
BRANCH  23  24
HETATM   24  C   UNL     1       8.354  28.762  56.981  1.00  0.00     0.296 C 
HETATM   25  O   UNL     1       8.419  27.742  57.666  1.00  0.00    -0.259 OA
BRANCH  24  26
HETATM   26  O   UNL     1       9.160  29.024  55.919  1.00  0.00    -0.322 OA
HETATM   27  C   UNL     1      10.342  29.762  56.227  1.00  0.00     0.213 C 
ENDBRANCH  24  26
ENDBRANCH  23  24
ENDBRANCH  14  17
ENDBRANCH  12  13
ENDBRANCH   2  12
BRANCH   1  28
HETATM   28  C   UNL     1       6.240  25.941  52.079  1.00  0.00    -0.027 A 
HETATM   29  C   UNL     1       7.551  25.469  51.922  1.00  0.00     0.011 A 
HETATM   30  C   UNL     1       8.006  24.353  52.637  1.00  0.00     0.030 A 
HETATM   31  C   UNL     1       7.162  23.648  53.498  1.00  0.00     0.030 A 
HETATM   32  C   UNL     1       5.831  24.072  53.589  1.00  0.00     0.030 A 
HETATM   33  C   UNL     1       5.376  25.203  52.902  1.00  0.00     0.011 A 
BRANCH  31  34
HETATM   34  N   UNL     1       7.589  22.579  54.283  1.00  0.00    -0.382 N 
BRANCH  34  35
HETATM   35  C   UNL     1       7.564  22.702  55.748  1.00  0.00     0.118 C 
HETATM   36  C   UNL     1       8.305  21.545  56.408  1.00  0.00     0.026 C 
ENDBRANCH  34  35
BRANCH  34  37
HETATM   37  C   UNL     1       8.663  21.757  53.707  1.00  0.00     0.118 C 
HETATM   38  C   UNL     1       8.122  20.594  52.884  1.00  0.00     0.026 C 
ENDBRANCH  34  37
ENDBRANCH  31  34
ENDBRANCH   1  28
BRANCH   6  39
HETATM   39  O   UNL     1       5.200  28.832  49.020  1.00  0.00    -0.389 OA
HETATM   40  H   UNL     1       6.007  28.884  49.569  1.00  0.00     0.210 HD
ENDBRANCH   6  39
TORSDOF 10
ENDMDL
MODEL 4
REMARK VINA RESULT:      -8.6      2.204      6.205
REMARK  10 active torsions:
REMARK  status: ('A' for Active; 'I' for Inactive)
REMARK    1  A    between atoms: C_2  and  N_3 
REMARK    2  A    between atoms: N_3  and  C_4 
REMARK    3  A    between atoms: N_3  and  C_37 
REMARK    4  A    between atoms: C_7  and  C_8 
REMARK    5  A    between atoms: N_9  and  C_11 
REMARK    6  A    between atoms: C_11  and  C_12 
REMARK       I    between atoms: C_12  and  N_13 
REMARK    7  A    between atoms: N_13  and  C_14 
REMARK    8  A    between atoms: C_20  and  C_21 
REMARK    9  A    between atoms: C_21  and  O_22 
REMARK   10  A    between atoms: C_28  and  O_29 
ROOT
HETATM    1  C   UNL     1       6.218  25.622  54.474  1.00  0.00     0.228 C 
HETATM    2  N   UNL     1       6.559  26.703  55.492  1.00  0.00    -0.054 N 
HETATM    3  H   UNL     1       5.653  27.145  55.729  1.00  0.00     0.281 HD
HETATM    4  C   UNL     1       7.026  26.138  56.811  1.00  0.00     0.239 C 
HETATM    5  C   UNL     1       8.243  25.249  56.610  1.00  0.00     0.066 C 
HETATM    6  C   UNL     1       7.928  24.117  55.637  1.00  0.00     0.065 C 
HETATM    7  C   UNL     1       7.436  24.676  54.277  1.00  0.00     0.055 C 
HETATM    8  C   UNL     1       9.154  23.208  55.437  1.00  0.00     0.038 C 
HETATM    9  C   UNL     1       8.863  22.061  54.470  1.00  0.00     0.003 C 
HETATM   10  C   UNL     1       8.310  22.569  53.145  1.00  0.00     0.001 C 
HETATM   11  C   UNL     1       7.105  23.488  53.339  1.00  0.00     0.010 C 
ENDROOT
BRANCH   2  12
HETATM   12  C   UNL     1       7.372  27.918  55.018  1.00  0.00     0.338 C 
BRANCH  12  13
HETATM   13  C   UNL     1       6.876  29.172  55.751  1.00  0.00     0.248 C 
HETATM   14  N   UNL     1       7.763  29.689  56.669  1.00  0.00    -0.319 N 
HETATM   15  H   UNL     1       8.767  29.571  56.522  1.00  0.00     0.169 HD
HETATM   16  O   UNL     1       5.738  29.568  55.499  1.00  0.00    -0.271 OA
BRANCH  14  17
HETATM   17  C   UNL     1       7.433  30.565  57.699  1.00  0.00     0.094 A 
HETATM   18  S   UNL     1       5.810  30.844  58.095  1.00  0.00    -0.076 SA
HETATM   19  C   UNL     1       6.217  31.844  59.412  1.00  0.00    -0.012 A 
HETATM   20  C   UNL     1       5.122  32.444  60.239  1.00  0.00     0.057 C 
HETATM   21  C   UNL     1       7.590  31.982  59.561  1.00  0.00    -0.030 A 
HETATM   22  C   UNL     1       8.230  32.812  60.635  1.00  0.00     0.050 C 
HETATM   23  C   UNL     1       8.314  31.211  58.556  1.00  0.00     0.080 A 
BRANCH  23  24
HETATM   24  C   UNL     1       9.767  31.077  58.384  1.00  0.00     0.296 C 
HETATM   25  O   UNL     1      10.523  32.042  58.487  1.00  0.00    -0.259 OA
BRANCH  24  26
HETATM   26  O   UNL     1      10.175  29.807  58.122  1.00  0.00    -0.322 OA
HETATM   27  C   UNL     1      11.214  29.697  57.149  1.00  0.00     0.213 C 
ENDBRANCH  24  26
ENDBRANCH  23  24
ENDBRANCH  14  17
ENDBRANCH  12  13
ENDBRANCH   2  12
BRANCH   1  28
HETATM   28  C   UNL     1       5.584  26.216  53.224  1.00  0.00    -0.027 A 
HETATM   29  C   UNL     1       4.594  27.208  53.259  1.00  0.00     0.011 A 
HETATM   30  C   UNL     1       4.106  27.782  52.077  1.00  0.00     0.030 A 
HETATM   31  C   UNL     1       4.557  27.359  50.824  1.00  0.00     0.030 A 
HETATM   32  C   UNL     1       5.485  26.312  50.791  1.00  0.00     0.030 A 
HETATM   33  C   UNL     1       6.000  25.753  51.966  1.00  0.00     0.011 A 
BRANCH  31  34
HETATM   34  N   UNL     1       4.155  27.948  49.628  1.00  0.00    -0.382 N 
BRANCH  34  35
HETATM   35  C   UNL     1       2.972  28.822  49.613  1.00  0.00     0.118 C 
HETATM   36  C   UNL     1       1.808  28.156  48.891  1.00  0.00     0.026 C 
ENDBRANCH  34  35
BRANCH  34  37
HETATM   37  C   UNL     1       4.409  27.159  48.413  1.00  0.00     0.118 C 
HETATM   38  C   UNL     1       5.299  27.897  47.420  1.00  0.00     0.026 C 
ENDBRANCH  34  37
ENDBRANCH  31  34
ENDBRANCH   1  28
BRANCH   6  39
HETATM   39  O   UNL     1       6.864  23.356  56.221  1.00  0.00    -0.389 OA
HETATM   40  H   UNL     1       6.112  23.317  55.598  1.00  0.00     0.210 HD
ENDBRANCH   6  39
TORSDOF 10
ENDMDL
MODEL 5
REMARK VINA RESULT:      -8.4      2.291      8.074
REMARK  10 active torsions:
REMARK  status: ('A' for Active; 'I' for Inactive)
REMARK    1  A    between atoms: C_2  and  N_3 
REMARK    2  A    between atoms: N_3  and  C_4 
REMARK    3  A    between atoms: N_3  and  C_37 
REMARK    4  A    between atoms: C_7  and  C_8 
REMARK    5  A    between atoms: N_9  and  C_11 
REMARK    6  A    between atoms: C_11  and  C_12 
REMARK       I    between atoms: C_12  and  N_13 
REMARK    7  A    between atoms: N_13  and  C_14 
REMARK    8  A    between atoms: C_20  and  C_21 
REMARK    9  A    between atoms: C_21  and  O_22 
REMARK   10  A    between atoms: C_28  and  O_29 
ROOT
HETATM    1  C   UNL     1       7.557  25.443  54.555  1.00  0.00     0.228 C 
HETATM    2  N   UNL     1       6.644  25.433  53.335  1.00  0.00    -0.054 N 
HETATM    3  H   UNL     1       6.905  26.278  52.797  1.00  0.00     0.281 HD
HETATM    4  C   UNL     1       6.952  24.304  52.382  1.00  0.00     0.239 C 
HETATM    5  C   UNL     1       6.842  22.964  53.090  1.00  0.00     0.066 C 
HETATM    6  C   UNL     1       7.784  22.909  54.289  1.00  0.00     0.065 C 
HETATM    7  C   UNL     1       7.490  24.068  55.277  1.00  0.00     0.055 C 
HETATM    8  C   UNL     1       7.683  21.550  55.005  1.00  0.00     0.038 C 
HETATM    9  C   UNL     1       8.621  21.466  56.208  1.00  0.00     0.003 C 
HETATM   10  C   UNL     1       8.410  22.630  57.167  1.00  0.00     0.001 C 
HETATM   11  C   UNL     1       8.489  23.982  56.458  1.00  0.00     0.010 C 
ENDROOT
BRANCH   2  12
HETATM   12  C   UNL     1       5.139  25.667  53.551  1.00  0.00     0.338 C 
BRANCH  12  13
HETATM   13  C   UNL     1       4.729  26.973  52.857  1.00  0.00     0.248 C 
HETATM   14  N   UNL     1       4.676  26.902  51.483  1.00  0.00    -0.319 N 
HETATM   15  H   UNL     1       4.446  26.014  51.033  1.00  0.00     0.169 HD
HETATM   16  O   UNL     1       4.538  27.961  53.567  1.00  0.00    -0.271 OA
BRANCH  14  17
HETATM   17  C   UNL     1       4.694  27.995  50.621  1.00  0.00     0.094 A 
HETATM   18  S   UNL     1       5.598  29.373  51.009  1.00  0.00    -0.076 SA
HETATM   19  C   UNL     1       5.232  30.132  49.530  1.00  0.00    -0.012 A 
HETATM   20  C   UNL     1       5.794  31.491  49.246  1.00  0.00     0.057 C 
HETATM   21  C   UNL     1       4.413  29.349  48.727  1.00  0.00    -0.030 A 
HETATM   22  C   UNL     1       3.928  29.772  47.371  1.00  0.00     0.050 C 
HETATM   23  C   UNL     1       4.106  28.073  49.365  1.00  0.00     0.080 A 
BRANCH  23  24
HETATM   24  C   UNL     1       3.295  26.966  48.842  1.00  0.00     0.296 C 
HETATM   25  O   UNL     1       3.771  25.848  48.651  1.00  0.00    -0.259 OA
BRANCH  24  26
HETATM   26  O   UNL     1       1.997  27.295  48.614  1.00  0.00    -0.322 OA
HETATM   27  C   UNL     1       1.496  26.918  47.332  1.00  0.00     0.213 C 
ENDBRANCH  24  26
ENDBRANCH  23  24
ENDBRANCH  14  17
ENDBRANCH  12  13
ENDBRANCH   2  12
BRANCH   1  28
HETATM   28  C   UNL     1       7.339  26.689  55.402  1.00  0.00    -0.027 A 
HETATM   29  C   UNL     1       6.645  26.681  56.620  1.00  0.00     0.011 A 
HETATM   30  C   UNL     1       6.548  27.840  57.402  1.00  0.00     0.030 A 
HETATM   31  C   UNL     1       7.101  29.052  56.977  1.00  0.00     0.030 A 
HETATM   32  C   UNL     1       7.721  29.074  55.723  1.00  0.00     0.030 A 
HETATM   33  C   UNL     1       7.850  27.915  54.949  1.00  0.00     0.011 A 
BRANCH  31  34
HETATM   34  N   UNL     1       7.092  30.209  57.751  1.00  0.00    -0.382 N 
BRANCH  34  35
HETATM   35  C   UNL     1       7.906  30.268  58.975  1.00  0.00     0.118 C 
HETATM   36  C   UNL     1       9.314  30.766  58.673  1.00  0.00     0.026 C 
ENDBRANCH  34  35
BRANCH  34  37
HETATM   37  C   UNL     1       5.825  30.956  57.764  1.00  0.00     0.118 C 
HETATM   38  C   UNL     1       5.833  32.090  58.782  1.00  0.00     0.026 C 
ENDBRANCH  34  37
ENDBRANCH  31  34
ENDBRANCH   1  28
BRANCH   6  39
HETATM   39  O   UNL     1       9.111  23.079  53.778  1.00  0.00    -0.389 OA
HETATM   40  H   UNL     1       9.708  23.342  54.506  1.00  0.00     0.210 HD
ENDBRANCH   6  39
TORSDOF 10
ENDMDL
MODEL 6
REMARK VINA RESULT:      -8.4      2.423      6.427
REMARK  10 active torsions:
REMARK  status: ('A' for Active; 'I' for Inactive)
REMARK    1  A    between atoms: C_2  and  N_3 
REMARK    2  A    between atoms: N_3  and  C_4 
REMARK    3  A    between atoms: N_3  and  C_37 
REMARK    4  A    between atoms: C_7  and  C_8 
REMARK    5  A    between atoms: N_9  and  C_11 
REMARK    6  A    between atoms: C_11  and  C_12 
REMARK       I    between atoms: C_12  and  N_13 
REMARK    7  A    between atoms: N_13  and  C_14 
REMARK    8  A    between atoms: C_20  and  C_21 
REMARK    9  A    between atoms: C_21  and  O_22 
REMARK   10  A    between atoms: C_28  and  O_29 
ROOT
HETATM    1  C   UNL     1       6.076  26.229  54.718  1.00  0.00     0.228 C 
HETATM    2  N   UNL     1       6.481  27.135  55.875  1.00  0.00    -0.054 N 
HETATM    3  H   UNL     1       5.603  27.594  56.176  1.00  0.00     0.281 HD
HETATM    4  C   UNL     1       6.908  26.364  57.100  1.00  0.00     0.239 C 
HETATM    5  C   UNL     1       8.069  25.439  56.770  1.00  0.00     0.066 C 
HETATM    6  C   UNL     1       7.687  24.475  55.650  1.00  0.00     0.065 C 
HETATM    7  C   UNL     1       7.234  25.247  54.384  1.00  0.00     0.055 C 
HETATM    8  C   UNL     1       8.855  23.529  55.317  1.00  0.00     0.038 C 
HETATM    9  C   UNL     1       8.497  22.548  54.202  1.00  0.00     0.003 C 
HETATM   10  C   UNL     1       7.980  23.269  52.964  1.00  0.00     0.001 C 
HETATM   11  C   UNL     1       6.833  24.224  53.292  1.00  0.00     0.010 C 
ENDROOT
BRANCH   2  12
HETATM   12  C   UNL     1       7.368  28.352  55.569  1.00  0.00     0.338 C 
BRANCH  12  13
HETATM   13  C   UNL     1       6.710  29.612  56.149  1.00  0.00     0.248 C 
HETATM   14  N   UNL     1       7.252  30.049  57.337  1.00  0.00    -0.319 N 
HETATM   15  H   UNL     1       8.240  29.876  57.534  1.00  0.00     0.169 HD
HETATM   16  O   UNL     1       5.746  30.082  55.544  1.00  0.00    -0.271 OA
BRANCH  14  17
HETATM   17  C   UNL     1       6.631  30.914  58.233  1.00  0.00     0.094 A 
HETATM   18  S   UNL     1       4.955  31.149  58.170  1.00  0.00    -0.076 SA
HETATM   19  C   UNL     1       4.961  32.156  59.543  1.00  0.00    -0.012 A 
HETATM   20  C   UNL     1       3.668  32.725  60.038  1.00  0.00     0.057 C 
HETATM   21  C   UNL     1       6.238  32.330  60.061  1.00  0.00    -0.030 A 
HETATM   22  C   UNL     1       6.539  33.174  61.264  1.00  0.00     0.050 C 
HETATM   23  C   UNL     1       7.229  31.581  59.295  1.00  0.00     0.080 A 
BRANCH  23  24
HETATM   24  C   UNL     1       8.676  31.485  59.526  1.00  0.00     0.296 C 
HETATM   25  O   UNL     1       9.448  32.376  59.174  1.00  0.00    -0.259 OA
BRANCH  24  26
HETATM   26  O   UNL     1       9.057  30.349  60.165  1.00  0.00    -0.322 OA
HETATM   27  C   UNL     1       9.229  30.480  61.577  1.00  0.00     0.213 C 
ENDBRANCH  24  26
ENDBRANCH  23  24
ENDBRANCH  14  17
ENDBRANCH  12  13
ENDBRANCH   2  12
BRANCH   1  28
HETATM   28  C   UNL     1       5.484  27.030  53.567  1.00  0.00    -0.027 A 
HETATM   29  C   UNL     1       6.156  27.251  52.356  1.00  0.00     0.011 A 
HETATM   30  C   UNL     1       5.530  27.922  51.297  1.00  0.00     0.030 A 
HETATM   31  C   UNL     1       4.235  28.431  51.422  1.00  0.00     0.030 A 
HETATM   32  C   UNL     1       3.599  28.281  52.660  1.00  0.00     0.030 A 
HETATM   33  C   UNL     1       4.204  27.585  53.713  1.00  0.00     0.011 A 
BRANCH  31  34
HETATM   34  N   UNL     1       3.548  29.040  50.375  1.00  0.00    -0.382 N 
BRANCH  34  35
HETATM   35  C   UNL     1       2.954  28.208  49.318  1.00  0.00     0.118 C 
HETATM   36  C   UNL     1       1.493  28.575  49.087  1.00  0.00     0.026 C 
ENDBRANCH  34  35
BRANCH  34  37
HETATM   37  C   UNL     1       4.046  30.364  49.973  1.00  0.00     0.118 C 
HETATM   38  C   UNL     1       3.468  31.484  50.830  1.00  0.00     0.026 C 
ENDBRANCH  34  37
ENDBRANCH  31  34
ENDBRANCH   1  28
BRANCH   6  39
HETATM   39  O   UNL     1       6.577  23.707  56.129  1.00  0.00    -0.389 OA
HETATM   40  H   UNL     1       6.058  24.244  56.759  1.00  0.00     0.210 HD
ENDBRANCH   6  39
TORSDOF 10
ENDMDL
MODEL 7
REMARK VINA RESULT:      -8.2      1.327      1.831
REMARK  10 active torsions:
REMARK  status: ('A' for Active; 'I' for Inactive)
REMARK    1  A    between atoms: C_2  and  N_3 
REMARK    2  A    between atoms: N_3  and  C_4 
REMARK    3  A    between atoms: N_3  and  C_37 
REMARK    4  A    between atoms: C_7  and  C_8 
REMARK    5  A    between atoms: N_9  and  C_11 
REMARK    6  A    between atoms: C_11  and  C_12 
REMARK       I    between atoms: C_12  and  N_13 
REMARK    7  A    between atoms: N_13  and  C_14 
REMARK    8  A    between atoms: C_20  and  C_21 
REMARK    9  A    between atoms: C_21  and  O_22 
REMARK   10  A    between atoms: C_28  and  O_29 
ROOT
HETATM    1  C   UNL     1       5.627  27.346  51.127  1.00  0.00     0.228 C 
HETATM    2  N   UNL     1       5.443  28.584  51.996  1.00  0.00    -0.054 N 
HETATM    3  H   UNL     1       6.387  28.798  52.362  1.00  0.00     0.281 HD
HETATM    4  C   UNL     1       5.092  29.814  51.195  1.00  0.00     0.239 C 
HETATM    5  C   UNL     1       3.823  29.584  50.392  1.00  0.00     0.066 C 
HETATM    6  C   UNL     1       3.983  28.382  49.464  1.00  0.00     0.065 C 
HETATM    7  C   UNL     1       4.354  27.108  50.267  1.00  0.00     0.055 C 
HETATM    8  C   UNL     1       2.704  28.150  48.641  1.00  0.00     0.038 C 
HETATM    9  C   UNL     1       2.840  26.955  47.699  1.00  0.00     0.003 C 
HETATM   10  C   UNL     1       3.273  25.698  48.443  1.00  0.00     0.001 C 
HETATM   11  C   UNL     1       4.532  25.929  49.278  1.00  0.00     0.010 C 
ENDROOT
BRANCH   2  12
HETATM   12  C   UNL     1       4.639  28.445  53.299  1.00  0.00     0.338 C 
BRANCH  12  13
HETATM   13  C   UNL     1       5.572  28.689  54.493  1.00  0.00     0.248 C 
HETATM   14  N   UNL     1       4.935  29.078  55.651  1.00  0.00    -0.319 N 
HETATM   15  H   UNL     1       3.979  28.764  55.830  1.00  0.00     0.169 HD
HETATM   16  O   UNL     1       6.783  28.569  54.306  1.00  0.00    -0.271 OA
BRANCH  14  17
HETATM   17  C   UNL     1       5.547  29.701  56.734  1.00  0.00     0.094 A 
HETATM   18  S   UNL     1       6.954  29.045  57.412  1.00  0.00    -0.076 SA
HETATM   19  C   UNL     1       7.129  30.338  58.506  1.00  0.00    -0.012 A 
HETATM   20  C   UNL     1       8.290  30.343  59.452  1.00  0.00     0.057 C 
HETATM   21  C   UNL     1       6.117  31.279  58.373  1.00  0.00    -0.030 A 
HETATM   22  C   UNL     1       6.019  32.518  59.213  1.00  0.00     0.050 C 
HETATM   23  C   UNL     1       5.187  30.912  57.310  1.00  0.00     0.080 A 
BRANCH  23  24
HETATM   24  C   UNL     1       4.001  31.644  56.845  1.00  0.00     0.296 C 
HETATM   25  O   UNL     1       3.044  31.864  57.586  1.00  0.00    -0.259 OA
BRANCH  24  26
HETATM   26  O   UNL     1       4.081  32.054  55.552  1.00  0.00    -0.322 OA
HETATM   27  C   UNL     1       4.866  33.227  55.339  1.00  0.00     0.213 C 
ENDBRANCH  24  26
ENDBRANCH  23  24
ENDBRANCH  14  17
ENDBRANCH  12  13
ENDBRANCH   2  12
BRANCH   1  28
HETATM   28  C   UNL     1       6.151  26.170  51.940  1.00  0.00    -0.027 A 
HETATM   29  C   UNL     1       5.321  25.189  52.500  1.00  0.00     0.011 A 
HETATM   30  C   UNL     1       5.862  24.081  53.166  1.00  0.00     0.030 A 
HETATM   31  C   UNL     1       7.241  23.935  53.332  1.00  0.00     0.030 A 
HETATM   32  C   UNL     1       8.063  24.958  52.844  1.00  0.00     0.030 A 
HETATM   33  C   UNL     1       7.533  26.053  52.151  1.00  0.00     0.011 A 
BRANCH  31  34
HETATM   34  N   UNL     1       7.827  22.818  53.922  1.00  0.00    -0.382 N 
BRANCH  34  35
HETATM   35  C   UNL     1       8.595  22.976  55.166  1.00  0.00     0.118 C 
HETATM   36  C   UNL     1       7.709  23.484  56.297  1.00  0.00     0.026 C 
ENDBRANCH  34  35
BRANCH  34  37
HETATM   37  C   UNL     1       8.281  21.772  52.993  1.00  0.00     0.118 C 
HETATM   38  C   UNL     1       7.748  20.395  53.368  1.00  0.00     0.026 C 
ENDBRANCH  34  37
ENDBRANCH  31  34
ENDBRANCH   1  28
BRANCH   6  39
HETATM   39  O   UNL     1       5.068  28.687  48.579  1.00  0.00    -0.389 OA
HETATM   40  H   UNL     1       5.871  28.217  48.876  1.00  0.00     0.210 HD
ENDBRANCH   6  39
TORSDOF 10
ENDMDL
MODEL 8
REMARK VINA RESULT:      -8.2      2.258      6.057
REMARK  10 active torsions:
REMARK  status: ('A' for Active; 'I' for Inactive)
REMARK    1  A    between atoms: C_2  and  N_3 
REMARK    2  A    between atoms: N_3  and  C_4 
REMARK    3  A    between atoms: N_3  and  C_37 
REMARK    4  A    between atoms: C_7  and  C_8 
REMARK    5  A    between atoms: N_9  and  C_11 
REMARK    6  A    between atoms: C_11  and  C_12 
REMARK       I    between atoms: C_12  and  N_13 
REMARK    7  A    between atoms: N_13  and  C_14 
REMARK    8  A    between atoms: C_20  and  C_21 
REMARK    9  A    between atoms: C_21  and  O_22 
REMARK   10  A    between atoms: C_28  and  O_29 
ROOT
HETATM    1  C   UNL     1       6.322  25.856  54.519  1.00  0.00     0.228 C 
HETATM    2  N   UNL     1       6.836  26.863  55.542  1.00  0.00    -0.054 N 
HETATM    3  H   UNL     1       5.993  27.370  55.866  1.00  0.00     0.281 HD
HETATM    4  C   UNL     1       7.354  26.208  56.798  1.00  0.00     0.239 C 
HETATM    5  C   UNL     1       8.469  25.229  56.468  1.00  0.00     0.066 C 
HETATM    6  C   UNL     1       7.981  24.167  55.487  1.00  0.00     0.065 C 
HETATM    7  C   UNL     1       7.434  24.820  54.191  1.00  0.00     0.055 C 
HETATM    8  C   UNL     1       9.103  23.167  55.156  1.00  0.00     0.038 C 
HETATM    9  C   UNL     1       8.639  22.089  54.179  1.00  0.00     0.003 C 
HETATM   10  C   UNL     1       8.030  22.695  52.921  1.00  0.00     0.001 C 
HETATM   11  C   UNL     1       6.928  23.703  53.244  1.00  0.00     0.010 C 
ENDROOT
BRANCH   2  12
HETATM   12  C   UNL     1       7.712  28.023  55.043  1.00  0.00     0.338 C 
BRANCH  12  13
HETATM   13  C   UNL     1       8.044  28.946  56.224  1.00  0.00     0.248 C 
HETATM   14  N   UNL     1       7.020  29.112  57.129  1.00  0.00    -0.319 N 
HETATM   15  H   UNL     1       6.344  28.358  57.269  1.00  0.00     0.169 HD
HETATM   16  O   UNL     1       9.151  29.485  56.234  1.00  0.00    -0.271 OA
BRANCH  14  17
HETATM   17  C   UNL     1       6.926  30.146  58.056  1.00  0.00     0.094 A 
HETATM   18  S   UNL     1       8.165  30.397  59.183  1.00  0.00    -0.076 SA
HETATM   19  C   UNL     1       7.423  31.794  59.812  1.00  0.00    -0.012 A 
HETATM   20  C   UNL     1       8.094  32.540  60.924  1.00  0.00     0.057 C 
HETATM   21  C   UNL     1       6.223  32.082  59.177  1.00  0.00    -0.030 A 
HETATM   22  C   UNL     1       5.354  33.252  59.534  1.00  0.00     0.050 C 
HETATM   23  C   UNL     1       5.934  31.115  58.123  1.00  0.00     0.080 A 
BRANCH  23  24
HETATM   24  C   UNL     1       4.781  31.078  57.213  1.00  0.00     0.296 C 
HETATM   25  O   UNL     1       3.663  30.739  57.598  1.00  0.00    -0.259 OA
BRANCH  24  26
HETATM   26  O   UNL     1       5.071  31.462  55.942  1.00  0.00    -0.322 OA
HETATM   27  C   UNL     1       4.278  30.841  54.930  1.00  0.00     0.213 C 
ENDBRANCH  24  26
ENDBRANCH  23  24
ENDBRANCH  14  17
ENDBRANCH  12  13
ENDBRANCH   2  12
BRANCH   1  28
HETATM   28  C   UNL     1       5.646  26.552  53.346  1.00  0.00    -0.027 A 
HETATM   29  C   UNL     1       4.532  27.392  53.485  1.00  0.00     0.011 A 
HETATM   30  C   UNL     1       4.002  28.075  52.383  1.00  0.00     0.030 A 
HETATM   31  C   UNL     1       4.536  27.914  51.102  1.00  0.00     0.030 A 
HETATM   32  C   UNL     1       5.596  27.011  50.953  1.00  0.00     0.030 A 
HETATM   33  C   UNL     1       6.151  26.348  52.053  1.00  0.00     0.011 A 
BRANCH  31  34
HETATM   34  N   UNL     1       4.089  28.626  49.991  1.00  0.00    -0.382 N 
BRANCH  34  35
HETATM   35  C   UNL     1       2.943  28.120  49.221  1.00  0.00     0.118 C 
HETATM   36  C   UNL     1       1.687  28.932  49.511  1.00  0.00     0.026 C 
ENDBRANCH  34  35
BRANCH  34  37
HETATM   37  C   UNL     1       5.127  29.345  49.237  1.00  0.00     0.118 C 
HETATM   38  C   UNL     1       5.449  30.702  49.850  1.00  0.00     0.026 C 
ENDBRANCH  34  37
ENDBRANCH  31  34
ENDBRANCH   1  28
BRANCH   6  39
HETATM   39  O   UNL     1       6.904  23.475  56.131  1.00  0.00    -0.389 OA
HETATM   40  H   UNL     1       6.610  23.987  56.910  1.00  0.00     0.210 HD
ENDBRANCH   6  39
TORSDOF 10
ENDMDL
MODEL 9
REMARK VINA RESULT:      -8.1      2.085      7.186
REMARK  10 active torsions:
REMARK  status: ('A' for Active; 'I' for Inactive)
REMARK    1  A    between atoms: C_2  and  N_3 
REMARK    2  A    between atoms: N_3  and  C_4 
REMARK    3  A    between atoms: N_3  and  C_37 
REMARK    4  A    between atoms: C_7  and  C_8 
REMARK    5  A    between atoms: N_9  and  C_11 
REMARK    6  A    between atoms: C_11  and  C_12 
REMARK       I    between atoms: C_12  and  N_13 
REMARK    7  A    between atoms: N_13  and  C_14 
REMARK    8  A    between atoms: C_20  and  C_21 
REMARK    9  A    between atoms: C_21  and  O_22 
REMARK   10  A    between atoms: C_28  and  O_29 
ROOT
HETATM    1  C   UNL     1       5.544  27.932  56.065  1.00  0.00     0.228 C 
HETATM    2  N   UNL     1       4.739  28.535  54.920  1.00  0.00    -0.054 N 
HETATM    3  H   UNL     1       4.030  27.819  54.683  1.00  0.00     0.281 HD
HETATM    4  C   UNL     1       3.909  29.720  55.348  1.00  0.00     0.239 C 
HETATM    5  C   UNL     1       4.792  30.800  55.951  1.00  0.00     0.066 C 
HETATM    6  C   UNL     1       5.577  30.252  57.140  1.00  0.00     0.065 C 
HETATM    7  C   UNL     1       6.430  29.026  56.724  1.00  0.00     0.055 C 
HETATM    8  C   UNL     1       6.466  31.344  57.761  1.00  0.00     0.038 C 
HETATM    9  C   UNL     1       7.259  30.823  58.959  1.00  0.00     0.003 C 
HETATM   10  C   UNL     1       8.056  29.575  58.605  1.00  0.00     0.001 C 
HETATM   11  C   UNL     1       7.181  28.495  57.970  1.00  0.00     0.010 C 
ENDROOT
BRANCH   2  12
HETATM   12  C   UNL     1       5.437  28.726  53.563  1.00  0.00     0.338 C 
BRANCH  12  13
HETATM   13  C   UNL     1       4.775  27.812  52.523  1.00  0.00     0.248 C 
HETATM   14  N   UNL     1       5.067  28.125  51.214  1.00  0.00    -0.319 N 
HETATM   15  H   UNL     1       5.964  28.556  50.988  1.00  0.00     0.169 HD
HETATM   16  O   UNL     1       4.018  26.933  52.936  1.00  0.00    -0.271 OA
BRANCH  14  17
HETATM   17  C   UNL     1       4.333  27.709  50.107  1.00  0.00     0.094 A 
HETATM   18  S   UNL     1       4.522  26.140  49.498  1.00  0.00    -0.076 SA
HETATM   19  C   UNL     1       3.301  26.357  48.331  1.00  0.00    -0.012 A 
HETATM   20  C   UNL     1       2.962  25.226  47.409  1.00  0.00     0.057 C 
HETATM   21  C   UNL     1       2.741  27.626  48.387  1.00  0.00    -0.030 A 
HETATM   22  C   UNL     1       1.649  28.093  47.470  1.00  0.00     0.050 C 
HETATM   23  C   UNL     1       3.340  28.425  49.451  1.00  0.00     0.080 A 
BRANCH  23  24
HETATM   24  C   UNL     1       3.017  29.802  49.847  1.00  0.00     0.296 C 
HETATM   25  O   UNL     1       3.225  30.757  49.100  1.00  0.00    -0.259 OA
BRANCH  24  26
HETATM   26  O   UNL     1       2.465  29.903  51.085  1.00  0.00    -0.322 OA
HETATM   27  C   UNL     1       2.928  31.007  51.862  1.00  0.00     0.213 C 
ENDBRANCH  24  26
ENDBRANCH  23  24
ENDBRANCH  14  17
ENDBRANCH  12  13
ENDBRANCH   2  12
BRANCH   1  28
HETATM   28  C   UNL     1       6.227  26.638  55.643  1.00  0.00    -0.027 A 
HETATM   29  C   UNL     1       5.605  25.383  55.702  1.00  0.00     0.011 A 
HETATM   30  C   UNL     1       6.250  24.236  55.220  1.00  0.00     0.030 A 
HETATM   31  C   UNL     1       7.548  24.293  54.706  1.00  0.00     0.030 A 
HETATM   32  C   UNL     1       8.196  25.534  54.725  1.00  0.00     0.030 A 
HETATM   33  C   UNL     1       7.549  26.690  55.176  1.00  0.00     0.011 A 
BRANCH  31  34
HETATM   34  N   UNL     1       8.200  23.195  54.151  1.00  0.00    -0.382 N 
BRANCH  34  35
HETATM   35  C   UNL     1       7.508  22.374  53.146  1.00  0.00     0.118 C 
HETATM   36  C   UNL     1       8.153  20.999  53.023  1.00  0.00     0.026 C 
ENDBRANCH  34  35
BRANCH  34  37
HETATM   37  C   UNL     1       9.140  22.497  55.041  1.00  0.00     0.118 C 
HETATM   38  C   UNL     1       8.518  22.167  56.393  1.00  0.00     0.026 C 
ENDBRANCH  34  37
ENDBRANCH  31  34
ENDBRANCH   1  28
BRANCH   6  39
HETATM   39  O   UNL     1       4.611  29.820  58.106  1.00  0.00    -0.389 OA
HETATM   40  H   UNL     1       4.768  30.285  58.952  1.00  0.00     0.210 HD
ENDBRANCH   6  39
TORSDOF 10
ENDMDL
MODEL 10
REMARK VINA RESULT:      -7.7      2.630      7.081
REMARK  10 active torsions:
REMARK  status: ('A' for Active; 'I' for Inactive)
REMARK    1  A    between atoms: C_2  and  N_3 
REMARK    2  A    between atoms: N_3  and  C_4 
REMARK    3  A    between atoms: N_3  and  C_37 
REMARK    4  A    between atoms: C_7  and  C_8 
REMARK    5  A    between atoms: N_9  and  C_11 
REMARK    6  A    between atoms: C_11  and  C_12 
REMARK       I    between atoms: C_12  and  N_13 
REMARK    7  A    between atoms: N_13  and  C_14 
REMARK    8  A    between atoms: C_20  and  C_21 
REMARK    9  A    between atoms: C_21  and  O_22 
REMARK   10  A    between atoms: C_28  and  O_29 
ROOT
HETATM    1  C   UNL     1       4.376  30.841  53.207  1.00  0.00     0.228 C 
HETATM    2  N   UNL     1       5.022  29.972  54.279  1.00  0.00    -0.054 N 
HETATM    3  H   UNL     1       5.965  29.750  53.913  1.00  0.00     0.281 HD
HETATM    4  C   UNL     1       5.312  30.732  55.551  1.00  0.00     0.239 C 
HETATM    5  C   UNL     1       4.037  31.340  56.112  1.00  0.00     0.066 C 
HETATM    6  C   UNL     1       3.384  32.263  55.087  1.00  0.00     0.065 C 
HETATM    7  C   UNL     1       3.087  31.504  53.768  1.00  0.00     0.055 C 
HETATM    8  C   UNL     1       2.097  32.889  55.653  1.00  0.00     0.038 C 
HETATM    9  C   UNL     1       1.426  33.823  54.648  1.00  0.00     0.003 C 
HETATM   10  C   UNL     1       1.182  33.132  53.314  1.00  0.00     0.001 C 
HETATM   11  C   UNL     1       2.452  32.491  52.757  1.00  0.00     0.010 C 
ENDROOT
BRANCH   2  12
HETATM   12  C   UNL     1       4.451  28.565  54.517  1.00  0.00     0.338 C 
BRANCH  12  13
HETATM   13  C   UNL     1       5.553  27.526  54.260  1.00  0.00     0.248 C 
HETATM   14  N   UNL     1       5.251  26.252  54.686  1.00  0.00    -0.319 N 
HETATM   15  H   UNL     1       4.278  25.942  54.700  1.00  0.00     0.169 HD
HETATM   16  O   UNL     1       6.604  27.922  53.755  1.00  0.00    -0.271 OA
BRANCH  14  17
HETATM   17  C   UNL     1       6.179  25.238  54.906  1.00  0.00     0.094 A 
HETATM   18  S   UNL     1       6.553  24.751  56.484  1.00  0.00    -0.076 SA
HETATM   19  C   UNL     1       7.577  23.503  55.945  1.00  0.00    -0.012 A 
HETATM   20  C   UNL     1       8.260  22.631  56.954  1.00  0.00     0.057 C 
HETATM   21  C   UNL     1       7.652  23.446  54.560  1.00  0.00    -0.030 A 
HETATM   22  C   UNL     1       8.487  22.448  53.813  1.00  0.00     0.050 C 
HETATM   23  C   UNL     1       6.810  24.465  53.941  1.00  0.00     0.080 A 
BRANCH  23  24
HETATM   24  C   UNL     1       6.597  24.723  52.510  1.00  0.00     0.296 C 
HETATM   25  O   UNL     1       7.538  24.900  51.737  1.00  0.00    -0.259 OA
BRANCH  24  26
HETATM   26  O   UNL     1       5.290  24.731  52.141  1.00  0.00    -0.322 OA
HETATM   27  C   UNL     1       4.958  25.671  51.120  1.00  0.00     0.213 C 
ENDBRANCH  24  26
ENDBRANCH  23  24
ENDBRANCH  14  17
ENDBRANCH  12  13
ENDBRANCH   2  12
BRANCH   1  28
HETATM   28  C   UNL     1       4.260  30.096  51.884  1.00  0.00    -0.027 A 
HETATM   29  C   UNL     1       3.116  29.383  51.499  1.00  0.00     0.011 A 
HETATM   30  C   UNL     1       3.030  28.787  50.233  1.00  0.00     0.030 A 
HETATM   31  C   UNL     1       4.093  28.845  49.329  1.00  0.00     0.030 A 
HETATM   32  C   UNL     1       5.265  29.486  49.749  1.00  0.00     0.030 A 
HETATM   33  C   UNL     1       5.348  30.111  50.999  1.00  0.00     0.011 A 
BRANCH  31  34
HETATM   34  N   UNL     1       4.027  28.331  48.036  1.00  0.00    -0.382 N 
BRANCH  34  35
HETATM   35  C   UNL     1       2.869  28.651  47.189  1.00  0.00     0.118 C 
HETATM   36  C   UNL     1       2.917  30.101  46.722  1.00  0.00     0.026 C 
ENDBRANCH  34  35
BRANCH  34  37
HETATM   37  C   UNL     1       4.639  27.007  47.846  1.00  0.00     0.118 C 
HETATM   38  C   UNL     1       3.599  25.916  47.625  1.00  0.00     0.026 C 
ENDBRANCH  34  37
ENDBRANCH  31  34
ENDBRANCH   1  28
BRANCH   6  39
HETATM   39  O   UNL     1       4.332  33.300  54.805  1.00  0.00    -0.389 OA
HETATM   40  H   UNL     1       4.594  33.253  53.865  1.00  0.00     0.210 HD
ENDBRANCH   6  39
TORSDOF 10
ENDMDL
