MODEL 1
REMARK VINA RESULT:      -7.7      0.000      0.000
REMARK  5 active torsions:
REMARK  status: ('A' for Active; 'I' for Inactive)
REMARK    1  A    between atoms: C_2  and  O_3 
REMARK    2  A    between atoms: C_4  and  C_5 
REMARK    3  A    between atoms: C_5  and  O_6 
REMARK    4  A    between atoms: C_9  and  C_10 
REMARK    5  A    between atoms: C_22  and  O_23 
ROOT
HETATM    1  C   UNL     1       4.122  28.272  56.174  1.00  0.00     0.047 C 
HETATM    2  C   UNL     1       4.781  27.887  54.834  1.00  0.00     0.073 C 
HETATM    3  C   UNL     1       4.984  26.329  54.772  1.00  0.00     0.133 C 
HETATM    4  C   UNL     1       6.161  25.774  55.645  1.00  0.00     0.074 C 
HETATM    5  C   UNL     1       7.175  26.816  55.992  1.00  0.00     0.030 A 
HETATM    6  C   UNL     1       7.142  28.111  55.523  1.00  0.00     0.042 A 
HETATM    7  N   UNL     1       8.201  28.768  56.081  1.00  0.00    -0.279 N 
HETATM    8  H   UNL     1       8.487  29.735  55.958  1.00  0.00     0.189 HD
HETATM    9  N   UNL     1       8.898  27.993  56.939  1.00  0.00    -0.149 NA
HETATM   10  C   UNL     1       8.257  26.833  56.875  1.00  0.00     0.190 A 
HETATM   11  C   UNL     1       6.105  28.687  54.643  1.00  0.00     0.097 C 
ENDROOT
BRANCH   4  12
HETATM   12  C   UNL     1       6.953  24.611  55.054  1.00  0.00    -0.047 A 
HETATM   13  C   UNL     1       6.987  23.336  55.656  1.00  0.00     0.027 A 
HETATM   14  C   UNL     1       7.748  22.308  55.102  1.00  0.00     0.011 A 
HETATM   15 BR   UNL     1       7.780  20.612  55.938  1.00  0.00    -0.051 Br
HETATM   16  C   UNL     1       8.491  22.523  53.946  1.00  0.00     0.019 A 
HETATM   17  C   UNL     1       8.471  23.777  53.339  1.00  0.00     0.002 A 
HETATM   18  C   UNL     1       7.711  24.813  53.889  1.00  0.00     0.008 A 
ENDBRANCH   4  12
BRANCH   3  19
HETATM   19  C   UNL     1       5.048  25.872  53.328  1.00  0.00     0.266 C 
HETATM   20  O   UNL     1       4.552  24.834  52.905  1.00  0.00    -0.265 OA
BRANCH  19  21
HETATM   21  O   UNL     1       5.774  26.754  52.584  1.00  0.00    -0.326 OA
HETATM   22  C   UNL     1       5.587  26.634  51.174  1.00  0.00     0.213 C 
ENDBRANCH  19  21
ENDBRANCH   3  19
BRANCH   2  23
HETATM   23  O   UNL     1       3.839  28.315  53.835  1.00  0.00    -0.389 OA
HETATM   24  H   UNL     1       3.173  27.606  53.728  1.00  0.00     0.210 HD
ENDBRANCH   2  23
BRANCH  10  25
HETATM   25  O   UNL     1       8.719  25.881  57.677  1.00  0.00    -0.343 OA
HETATM   26  H   UNL     1       7.933  25.360  57.915  1.00  0.00     0.219 HD
ENDBRANCH  10  25
TORSDOF 5
ENDMDL
MODEL 2
REMARK VINA RESULT:      -7.1      3.078      4.814
REMARK  5 active torsions:
REMARK  status: ('A' for Active; 'I' for Inactive)
REMARK    1  A    between atoms: C_2  and  O_3 
REMARK    2  A    between atoms: C_4  and  C_5 
REMARK    3  A    between atoms: C_5  and  O_6 
REMARK    4  A    between atoms: C_9  and  C_10 
REMARK    5  A    between atoms: C_22  and  O_23 
ROOT
HETATM    1  C   UNL     1       8.060  24.684  51.911  1.00  0.00     0.047 C 
HETATM    2  C   UNL     1       6.763  25.250  52.523  1.00  0.00     0.073 C 
HETATM    3  C   UNL     1       7.075  26.599  53.268  1.00  0.00     0.133 C 
HETATM    4  C   UNL     1       7.799  26.448  54.650  1.00  0.00     0.074 C 
HETATM    5  C   UNL     1       7.639  25.087  55.248  1.00  0.00     0.030 A 
HETATM    6  C   UNL     1       6.861  24.090  54.701  1.00  0.00     0.042 A 
HETATM    7  N   UNL     1       6.993  22.992  55.502  1.00  0.00    -0.279 N 
HETATM    8  H   UNL     1       6.561  22.078  55.405  1.00  0.00     0.189 HD
HETATM    9  N   UNL     1       7.861  23.191  56.516  1.00  0.00    -0.149 NA
HETATM   10  C   UNL     1       8.241  24.450  56.335  1.00  0.00     0.190 A 
HETATM   11  C   UNL     1       6.096  24.182  53.441  1.00  0.00     0.097 C 
ENDROOT
BRANCH   4  12
HETATM   12  C   UNL     1       7.386  27.428  55.743  1.00  0.00    -0.047 A 
HETATM   13  C   UNL     1       8.282  28.368  56.293  1.00  0.00     0.027 A 
HETATM   14  C   UNL     1       7.874  29.227  57.314  1.00  0.00     0.011 A 
HETATM   15 BR   UNL     1       9.102  30.470  58.037  1.00  0.00    -0.051 Br
HETATM   16  C   UNL     1       6.576  29.169  57.810  1.00  0.00     0.019 A 
HETATM   17  C   UNL     1       5.678  28.244  57.279  1.00  0.00     0.002 A 
HETATM   18  C   UNL     1       6.080  27.379  56.256  1.00  0.00     0.008 A 
ENDBRANCH   4  12
BRANCH   3  19
HETATM   19  C   UNL     1       5.823  27.451  53.344  1.00  0.00     0.266 C 
HETATM   20  O   UNL     1       4.720  27.037  53.681  1.00  0.00    -0.265 OA
BRANCH  19  21
HETATM   21  O   UNL     1       6.091  28.724  52.936  1.00  0.00    -0.326 OA
HETATM   22  C   UNL     1       5.521  29.074  51.675  1.00  0.00     0.213 C 
ENDBRANCH  19  21
ENDBRANCH   3  19
BRANCH   2  23
HETATM   23  O   UNL     1       5.905  25.483  51.393  1.00  0.00    -0.389 OA
HETATM   24  H   UNL     1       6.075  26.391  51.070  1.00  0.00     0.210 HD
ENDBRANCH   2  23
BRANCH  10  25
HETATM   25  O   UNL     1       9.152  24.899  57.190  1.00  0.00    -0.343 OA
HETATM   26  H   UNL     1       9.245  25.843  56.974  1.00  0.00     0.219 HD
ENDBRANCH  10  25
TORSDOF 5
ENDMDL
MODEL 3
REMARK VINA RESULT:      -7.0      3.119      5.911
REMARK  5 active torsions:
REMARK  status: ('A' for Active; 'I' for Inactive)
REMARK    1  A    between atoms: C_2  and  O_3 
REMARK    2  A    between atoms: C_4  and  C_5 
REMARK    3  A    between atoms: C_5  and  O_6 
REMARK    4  A    between atoms: C_9  and  C_10 
REMARK    5  A    between atoms: C_22  and  O_23 
ROOT
HETATM    1  C   UNL     1       7.397  21.301  53.263  1.00  0.00     0.047 C 
HETATM    2  C   UNL     1       8.290  22.385  53.900  1.00  0.00     0.073 C 
HETATM    3  C   UNL     1       7.533  23.052  55.106  1.00  0.00     0.133 C 
HETATM    4  C   UNL     1       6.398  24.056  54.709  1.00  0.00     0.074 C 
HETATM    5  C   UNL     1       6.538  24.578  53.315  1.00  0.00     0.030 A 
HETATM    6  C   UNL     1       7.602  24.290  52.487  1.00  0.00     0.042 A 
HETATM    7  N   UNL     1       7.362  24.909  51.294  1.00  0.00    -0.279 N 
HETATM    8  H   UNL     1       7.933  24.917  50.454  1.00  0.00     0.189 HD
HETATM    9  N   UNL     1       6.171  25.544  51.269  1.00  0.00    -0.149 NA
HETATM   10  C   UNL     1       5.694  25.321  52.488  1.00  0.00     0.190 A 
HETATM   11  C   UNL     1       8.741  23.409  52.816  1.00  0.00     0.097 C 
ENDROOT
BRANCH   4  12
HETATM   12  C   UNL     1       6.241  25.288  55.594  1.00  0.00    -0.047 A 
HETATM   13  C   UNL     1       7.059  26.429  55.455  1.00  0.00     0.027 A 
HETATM   14  C   UNL     1       6.905  27.524  56.305  1.00  0.00     0.011 A 
HETATM   15 BR   UNL     1       8.025  29.034  56.098  1.00  0.00    -0.051 Br
HETATM   16  C   UNL     1       5.942  27.509  57.308  1.00  0.00     0.019 A 
HETATM   17  C   UNL     1       5.126  26.389  57.462  1.00  0.00     0.002 A 
HETATM   18  C   UNL     1       5.276  25.288  56.614  1.00  0.00     0.008 A 
ENDBRANCH   4  12
BRANCH   3  19
HETATM   19  C   UNL     1       8.532  23.640  56.082  1.00  0.00     0.266 C 
HETATM   20  O   UNL     1       9.603  24.143  55.763  1.00  0.00    -0.265 OA
BRANCH  19  21
HETATM   21  O   UNL     1       8.091  23.484  57.363  1.00  0.00    -0.326 OA
HETATM   22  C   UNL     1       8.672  24.387  58.304  1.00  0.00     0.213 C 
ENDBRANCH  19  21
ENDBRANCH   3  19
BRANCH   2  23
HETATM   23  O   UNL     1       9.447  21.668  54.363  1.00  0.00    -0.389 OA
HETATM   24  H   UNL     1      10.093  22.325  54.695  1.00  0.00     0.210 HD
ENDBRANCH   2  23
BRANCH  10  25
HETATM   25  O   UNL     1       4.482  25.809  52.724  1.00  0.00    -0.343 OA
HETATM   26  H   UNL     1       4.562  26.761  52.539  1.00  0.00     0.219 HD
ENDBRANCH  10  25
TORSDOF 5
ENDMDL
MODEL 4
REMARK VINA RESULT:      -7.0     12.419     13.848
REMARK  5 active torsions:
REMARK  status: ('A' for Active; 'I' for Inactive)
REMARK    1  A    between atoms: C_2  and  O_3 
REMARK    2  A    between atoms: C_4  and  C_5 
REMARK    3  A    between atoms: C_5  and  O_6 
REMARK    4  A    between atoms: C_9  and  C_10 
REMARK    5  A    between atoms: C_22  and  O_23 
ROOT
HETATM    1  C   UNL     1       2.897  39.187  61.032  1.00  0.00     0.047 C 
HETATM    2  C   UNL     1       3.650  37.855  60.844  1.00  0.00     0.073 C 
HETATM    3  C   UNL     1       3.322  36.889  62.041  1.00  0.00     0.133 C 
HETATM    4  C   UNL     1       4.034  37.235  63.393  1.00  0.00     0.074 C 
HETATM    5  C   UNL     1       5.245  38.093  63.214  1.00  0.00     0.030 A 
HETATM    6  C   UNL     1       5.750  38.469  61.989  1.00  0.00     0.042 A 
HETATM    7  N   UNL     1       6.828  39.272  62.228  1.00  0.00    -0.279 N 
HETATM    8  H   UNL     1       7.444  39.727  61.560  1.00  0.00     0.189 HD
HETATM    9  N   UNL     1       7.028  39.494  63.544  1.00  0.00    -0.149 NA
HETATM   10  C   UNL     1       6.061  38.785  64.112  1.00  0.00     0.190 A 
HETATM   11  C   UNL     1       5.176  38.124  60.673  1.00  0.00     0.097 C 
ENDROOT
BRANCH   4  12
HETATM   12  C   UNL     1       4.490  36.053  64.242  1.00  0.00    -0.047 A 
HETATM   13  C   UNL     1       5.650  35.309  63.941  1.00  0.00     0.027 A 
HETATM   14  C   UNL     1       6.016  34.214  64.725  1.00  0.00     0.011 A 
HETATM   15 BR   UNL     1       7.572  33.231  64.290  1.00  0.00    -0.051 Br
HETATM   16  C   UNL     1       5.241  33.836  65.816  1.00  0.00     0.019 A 
HETATM   17  C   UNL     1       4.091  34.559  66.127  1.00  0.00     0.002 A 
HETATM   18  C   UNL     1       3.717  35.656  65.345  1.00  0.00     0.008 A 
ENDBRANCH   4  12
BRANCH   3  19
HETATM   19  C   UNL     1       3.525  35.449  61.614  1.00  0.00     0.266 C 
HETATM   20  O   UNL     1       4.452  35.055  60.915  1.00  0.00    -0.265 OA
BRANCH  19  21
HETATM   21  O   UNL     1       2.506  34.670  62.076  1.00  0.00    -0.326 OA
HETATM   22  C   UNL     1       1.317  34.721  61.287  1.00  0.00     0.213 C 
ENDBRANCH  19  21
ENDBRANCH   3  19
BRANCH   2  23
HETATM   23  O   UNL     1       3.137  37.324  59.610  1.00  0.00    -0.389 OA
HETATM   24  H   UNL     1       2.401  37.900  59.319  1.00  0.00     0.210 HD
ENDBRANCH   2  23
BRANCH  10  25
HETATM   25  O   UNL     1       5.997  38.866  65.436  1.00  0.00    -0.343 OA
HETATM   26  H   UNL     1       6.921  38.977  65.718  1.00  0.00     0.219 HD
ENDBRANCH  10  25
TORSDOF 5
ENDMDL
MODEL 5
REMARK VINA RESULT:      -7.0      7.218      9.656
REMARK  5 active torsions:
REMARK  status: ('A' for Active; 'I' for Inactive)
REMARK    1  A    between atoms: C_2  and  O_3 
REMARK    2  A    between atoms: C_4  and  C_5 
REMARK    3  A    between atoms: C_5  and  O_6 
REMARK    4  A    between atoms: C_9  and  C_10 
REMARK    5  A    between atoms: C_22  and  O_23 
ROOT
HETATM    1  C   UNL     1       4.081  34.658  62.567  1.00  0.00     0.047 C 
HETATM    2  C   UNL     1       4.573  33.201  62.685  1.00  0.00     0.073 C 
HETATM    3  C   UNL     1       6.071  33.109  62.216  1.00  0.00     0.133 C 
HETATM    4  C   UNL     1       6.292  33.181  60.666  1.00  0.00     0.074 C 
HETATM    5  C   UNL     1       5.064  32.839  59.884  1.00  0.00     0.030 A 
HETATM    6  C   UNL     1       3.883  32.411  60.449  1.00  0.00     0.042 A 
HETATM    7  N   UNL     1       2.991  32.234  59.432  1.00  0.00    -0.279 N 
HETATM    8  H   UNL     1       2.025  31.924  59.478  1.00  0.00     0.189 HD
HETATM    9  N   UNL     1       3.500  32.579  58.230  1.00  0.00    -0.149 NA
HETATM   10  C   UNL     1       4.739  32.946  58.530  1.00  0.00     0.190 A 
HETATM   11  C   UNL     1       3.623  32.252  61.895  1.00  0.00     0.097 C 
ENDROOT
BRANCH   4  12
HETATM   12  C   UNL     1       7.400  32.301  60.097  1.00  0.00    -0.047 A 
HETATM   13  C   UNL     1       7.132  31.121  59.374  1.00  0.00     0.027 A 
HETATM   14  C   UNL     1       8.174  30.326  58.896  1.00  0.00     0.011 A 
HETATM   15 BR   UNL     1       7.782  28.744  57.938  1.00  0.00    -0.051 Br
HETATM   16  C   UNL     1       9.499  30.685  59.128  1.00  0.00     0.019 A 
HETATM   17  C   UNL     1       9.782  31.847  59.842  1.00  0.00     0.002 A 
HETATM   18  C   UNL     1       8.742  32.648  60.325  1.00  0.00     0.008 A 
ENDBRANCH   4  12
BRANCH   3  19
HETATM   19  C   UNL     1       6.741  31.910  62.857  1.00  0.00     0.266 C 
HETATM   20  O   UNL     1       6.268  30.779  62.881  1.00  0.00    -0.265 OA
BRANCH  19  21
HETATM   21  O   UNL     1       7.916  32.281  63.442  1.00  0.00    -0.326 OA
HETATM   22  C   UNL     1       7.794  33.329  64.403  1.00  0.00     0.213 C 
ENDBRANCH  19  21
ENDBRANCH   3  19
BRANCH   2  23
HETATM   23  O   UNL     1       4.462  32.898  64.086  1.00  0.00    -0.389 OA
HETATM   24  H   UNL     1       5.040  33.519  64.574  1.00  0.00     0.210 HD
ENDBRANCH   2  23
BRANCH  10  25
HETATM   25  O   UNL     1       5.467  33.386  57.510  1.00  0.00    -0.343 OA
HETATM   26  H   UNL     1       6.190  32.741  57.431  1.00  0.00     0.219 HD
ENDBRANCH  10  25
TORSDOF 5
ENDMDL
MODEL 6
REMARK VINA RESULT:      -6.9      9.703     12.227
REMARK  5 active torsions:
REMARK  status: ('A' for Active; 'I' for Inactive)
REMARK    1  A    between atoms: C_2  and  O_3 
REMARK    2  A    between atoms: C_4  and  C_5 
REMARK    3  A    between atoms: C_5  and  O_6 
REMARK    4  A    between atoms: C_9  and  C_10 
REMARK    5  A    between atoms: C_22  and  O_23 
ROOT
HETATM    1  C   UNL     1       4.703  32.808  58.751  1.00  0.00     0.047 C 
HETATM    2  C   UNL     1       3.634  33.496  59.624  1.00  0.00     0.073 C 
HETATM    3  C   UNL     1       4.260  34.750  60.337  1.00  0.00     0.133 C 
HETATM    4  C   UNL     1       5.207  34.430  61.543  1.00  0.00     0.074 C 
HETATM    5  C   UNL     1       4.984  33.067  62.117  1.00  0.00     0.030 A 
HETATM    6  C   UNL     1       3.990  32.209  61.702  1.00  0.00     0.042 A 
HETATM    7  N   UNL     1       4.124  31.058  62.425  1.00  0.00    -0.279 N 
HETATM    8  H   UNL     1       3.564  30.213  62.386  1.00  0.00     0.189 HD
HETATM    9  N   UNL     1       5.189  31.089  63.255  1.00  0.00    -0.149 NA
HETATM   10  C   UNL     1       5.692  32.299  63.043  1.00  0.00     0.190 A 
HETATM   11  C   UNL     1       3.018  32.468  60.621  1.00  0.00     0.097 C 
ENDROOT
BRANCH   4  12
HETATM   12  C   UNL     1       5.146  35.389  62.727  1.00  0.00    -0.047 A 
HETATM   13  C   UNL     1       4.433  35.090  63.906  1.00  0.00     0.027 A 
HETATM   14  C   UNL     1       4.375  36.008  64.955  1.00  0.00     0.011 A 
HETATM   15 BR   UNL     1       3.402  35.581  66.519  1.00  0.00    -0.051 Br
HETATM   16  C   UNL     1       5.019  37.237  64.855  1.00  0.00     0.019 A 
HETATM   17  C   UNL     1       5.727  37.550  63.696  1.00  0.00     0.002 A 
HETATM   18  C   UNL     1       5.788  36.635  62.640  1.00  0.00     0.008 A 
ENDBRANCH   4  12
BRANCH   3  19
HETATM   19  C   UNL     1       3.171  35.745  60.684  1.00  0.00     0.266 C 
HETATM   20  O   UNL     1       2.144  35.468  61.293  1.00  0.00    -0.265 OA
BRANCH  19  21
HETATM   21  O   UNL     1       3.475  36.975  60.180  1.00  0.00    -0.326 OA
HETATM   22  C   UNL     1       4.239  36.949  58.974  1.00  0.00     0.213 C 
ENDBRANCH  19  21
ENDBRANCH   3  19
BRANCH   2  23
HETATM   23  O   UNL     1       2.615  33.898  58.693  1.00  0.00    -0.389 OA
HETATM   24  H   UNL     1       1.785  34.030  59.195  1.00  0.00     0.210 HD
ENDBRANCH   2  23
BRANCH  10  25
HETATM   25  O   UNL     1       6.801  32.580  63.716  1.00  0.00    -0.343 OA
HETATM   26  H   UNL     1       6.765  32.002  64.497  1.00  0.00     0.219 HD
ENDBRANCH  10  25
TORSDOF 5
ENDMDL
MODEL 7
REMARK VINA RESULT:      -6.9      3.256      5.934
REMARK  5 active torsions:
REMARK  status: ('A' for Active; 'I' for Inactive)
REMARK    1  A    between atoms: C_2  and  O_3 
REMARK    2  A    between atoms: C_4  and  C_5 
REMARK    3  A    between atoms: C_5  and  O_6 
REMARK    4  A    between atoms: C_9  and  C_10 
REMARK    5  A    between atoms: C_22  and  O_23 
ROOT
HETATM    1  C   UNL     1       7.370  23.324  56.926  1.00  0.00     0.047 C 
HETATM    2  C   UNL     1       8.001  24.645  56.445  1.00  0.00     0.073 C 
HETATM    3  C   UNL     1       7.025  25.840  56.749  1.00  0.00     0.133 C 
HETATM    4  C   UNL     1       5.786  25.950  55.796  1.00  0.00     0.074 C 
HETATM    5  C   UNL     1       5.981  25.234  54.498  1.00  0.00     0.030 A 
HETATM    6  C   UNL     1       7.156  24.619  54.124  1.00  0.00     0.042 A 
HETATM    7  N   UNL     1       6.941  24.049  52.903  1.00  0.00    -0.279 N 
HETATM    8  H   UNL     1       7.586  23.517  52.326  1.00  0.00     0.189 HD
HETATM    9  N   UNL     1       5.670  24.203  52.475  1.00  0.00    -0.149 NA
HETATM   10  C   UNL     1       5.115  24.908  53.453  1.00  0.00     0.190 A 
HETATM   11  C   UNL     1       8.386  24.535  54.938  1.00  0.00     0.097 C 
ENDROOT
BRANCH   4  12
HETATM   12  C   UNL     1       5.338  27.359  55.425  1.00  0.00    -0.047 A 
HETATM   13  C   UNL     1       4.629  28.188  56.318  1.00  0.00     0.027 A 
HETATM   14  C   UNL     1       4.210  29.460  55.930  1.00  0.00     0.011 A 
HETATM   15 BR   UNL     1       3.252  30.543  57.149  1.00  0.00    -0.051 Br
HETATM   16  C   UNL     1       4.483  29.934  54.651  1.00  0.00     0.019 A 
HETATM   17  C   UNL     1       5.182  29.128  53.754  1.00  0.00     0.002 A 
HETATM   18  C   UNL     1       5.604  27.851  54.136  1.00  0.00     0.008 A 
ENDBRANCH   4  12
BRANCH   3  19
HETATM   19  C   UNL     1       7.807  27.133  56.857  1.00  0.00     0.266 C 
HETATM   20  O   UNL     1       8.459  27.631  55.946  1.00  0.00    -0.265 OA
BRANCH  19  21
HETATM   21  O   UNL     1       7.723  27.633  58.123  1.00  0.00    -0.326 OA
HETATM   22  C   UNL     1       7.778  29.058  58.202  1.00  0.00     0.213 C 
ENDBRANCH  19  21
ENDBRANCH   3  19
BRANCH   2  23
HETATM   23  O   UNL     1       9.208  24.768  57.217  1.00  0.00    -0.389 OA
HETATM   24  H   UNL     1       9.003  25.308  58.008  1.00  0.00     0.210 HD
ENDBRANCH   2  23
BRANCH  10  25
HETATM   25  O   UNL     1       3.820  25.167  53.304  1.00  0.00    -0.343 OA
HETATM   26  H   UNL     1       3.384  24.307  53.433  1.00  0.00     0.219 HD
ENDBRANCH  10  25
TORSDOF 5
ENDMDL
MODEL 8
REMARK VINA RESULT:      -6.9      3.121      5.199
REMARK  5 active torsions:
REMARK  status: ('A' for Active; 'I' for Inactive)
REMARK    1  A    between atoms: C_2  and  O_3 
REMARK    2  A    between atoms: C_4  and  C_5 
REMARK    3  A    between atoms: C_5  and  O_6 
REMARK    4  A    between atoms: C_9  and  C_10 
REMARK    5  A    between atoms: C_22  and  O_23 
ROOT
HETATM    1  C   UNL     1       8.467  27.283  56.883  1.00  0.00     0.047 C 
HETATM    2  C   UNL     1       7.242  26.535  56.319  1.00  0.00     0.073 C 
HETATM    3  C   UNL     1       7.039  26.917  54.807  1.00  0.00     0.133 C 
HETATM    4  C   UNL     1       6.434  28.339  54.552  1.00  0.00     0.074 C 
HETATM    5  C   UNL     1       5.712  28.890  55.740  1.00  0.00     0.030 A 
HETATM    6  C   UNL     1       5.509  28.192  56.911  1.00  0.00     0.042 A 
HETATM    7  N   UNL     1       4.852  29.027  57.768  1.00  0.00    -0.279 N 
HETATM    8  H   UNL     1       4.539  28.847  58.717  1.00  0.00     0.189 HD
HETATM    9  N   UNL     1       4.660  30.258  57.248  1.00  0.00    -0.149 NA
HETATM   10  C   UNL     1       5.193  30.151  56.037  1.00  0.00     0.190 A 
HETATM   11  C   UNL     1       5.989  26.825  57.198  1.00  0.00     0.097 C 
ENDROOT
BRANCH   4  12
HETATM   12  C   UNL     1       5.459  28.463  53.386  1.00  0.00    -0.047 A 
HETATM   13  C   UNL     1       5.886  28.719  52.067  1.00  0.00     0.027 A 
HETATM   14  C   UNL     1       4.961  28.857  51.032  1.00  0.00     0.011 A 
HETATM   15 BR   UNL     1       5.565  29.210  49.276  1.00  0.00    -0.051 Br
HETATM   16  C   UNL     1       3.597  28.745  51.285  1.00  0.00     0.019 A 
HETATM   17  C   UNL     1       3.157  28.493  52.584  1.00  0.00     0.002 A 
HETATM   18  C   UNL     1       4.079  28.356  53.625  1.00  0.00     0.008 A 
ENDBRANCH   4  12
BRANCH   3  19
HETATM   19  C   UNL     1       6.286  25.813  54.091  1.00  0.00     0.266 C 
HETATM   20  O   UNL     1       5.276  25.268  54.522  1.00  0.00    -0.265 OA
BRANCH  19  21
HETATM   21  O   UNL     1       6.919  25.483  52.929  1.00  0.00    -0.326 OA
HETATM   22  C   UNL     1       7.512  24.185  52.926  1.00  0.00     0.213 C 
ENDBRANCH  19  21
ENDBRANCH   3  19
BRANCH   2  23
HETATM   23  O   UNL     1       7.581  25.143  56.448  1.00  0.00    -0.389 OA
HETATM   24  H   UNL     1       6.918  24.727  57.036  1.00  0.00     0.210 HD
ENDBRANCH   2  23
BRANCH  10  25
HETATM   25  O   UNL     1       5.181  31.262  55.309  1.00  0.00    -0.343 OA
HETATM   26  H   UNL     1       6.086  31.335  54.961  1.00  0.00     0.219 HD
ENDBRANCH  10  25
TORSDOF 5
ENDMDL
MODEL 9
REMARK VINA RESULT:      -6.9      3.416      5.889
REMARK  5 active torsions:
REMARK  status: ('A' for Active; 'I' for Inactive)
REMARK    1  A    between atoms: C_2  and  O_3 
REMARK    2  A    between atoms: C_4  and  C_5 
REMARK    3  A    between atoms: C_5  and  O_6 
REMARK    4  A    between atoms: C_9  and  C_10 
REMARK    5  A    between atoms: C_22  and  O_23 
ROOT
HETATM    1  C   UNL     1       7.008  25.497  57.600  1.00  0.00     0.047 C 
HETATM    2  C   UNL     1       7.598  26.568  56.662  1.00  0.00     0.073 C 
HETATM    3  C   UNL     1       6.505  27.655  56.346  1.00  0.00     0.133 C 
HETATM    4  C   UNL     1       5.395  27.211  55.333  1.00  0.00     0.074 C 
HETATM    5  C   UNL     1       5.808  26.054  54.482  1.00  0.00     0.030 A 
HETATM    6  C   UNL     1       7.064  25.487  54.506  1.00  0.00     0.042 A 
HETATM    7  N   UNL     1       7.051  24.442  53.628  1.00  0.00    -0.279 N 
HETATM    8  H   UNL     1       7.802  23.803  53.388  1.00  0.00     0.189 HD
HETATM    9  N   UNL     1       5.838  24.252  53.066  1.00  0.00    -0.149 NA
HETATM   10  C   UNL     1       5.110  25.224  53.602  1.00  0.00     0.190 A 
HETATM   11  C   UNL     1       8.181  25.895  55.383  1.00  0.00     0.097 C 
ENDROOT
BRANCH   4  12
HETATM   12  C   UNL     1       4.897  28.278  54.363  1.00  0.00    -0.047 A 
HETATM   13  C   UNL     1       5.375  28.379  53.040  1.00  0.00     0.027 A 
HETATM   14  C   UNL     1       4.917  29.388  52.193  1.00  0.00     0.011 A 
HETATM   15 BR   UNL     1       5.584  29.503  50.428  1.00  0.00    -0.051 Br
HETATM   16  C   UNL     1       3.980  30.315  52.640  1.00  0.00     0.019 A 
HETATM   17  C   UNL     1       3.499  30.231  53.946  1.00  0.00     0.002 A 
HETATM   18  C   UNL     1       3.955  29.223  54.801  1.00  0.00     0.008 A 
ENDBRANCH   4  12
BRANCH   3  19
HETATM   19  C   UNL     1       7.170  28.962  55.965  1.00  0.00     0.266 C 
HETATM   20  O   UNL     1       8.117  29.061  55.192  1.00  0.00    -0.265 OA
BRANCH  19  21
HETATM   21  O   UNL     1       6.599  29.999  56.641  1.00  0.00    -0.326 OA
HETATM   22  C   UNL     1       6.981  30.094  58.013  1.00  0.00     0.213 C 
ENDBRANCH  19  21
ENDBRANCH   3  19
BRANCH   2  23
HETATM   23  O   UNL     1       8.682  27.144  57.411  1.00  0.00    -0.389 OA
HETATM   24  H   UNL     1       9.113  27.817  56.845  1.00  0.00     0.210 HD
ENDBRANCH   2  23
BRANCH  10  25
HETATM   25  O   UNL     1       3.831  25.240  53.247  1.00  0.00    -0.343 OA
HETATM   26  H   UNL     1       3.598  26.184  53.219  1.00  0.00     0.219 HD
ENDBRANCH  10  25
TORSDOF 5
ENDMDL
MODEL 10
REMARK VINA RESULT:      -6.9      2.964      4.121
REMARK  5 active torsions:
REMARK  status: ('A' for Active; 'I' for Inactive)
REMARK    1  A    between atoms: C_2  and  O_3 
REMARK    2  A    between atoms: C_4  and  C_5 
REMARK    3  A    between atoms: C_5  and  O_6 
REMARK    4  A    between atoms: C_9  and  C_10 
REMARK    5  A    between atoms: C_22  and  O_23 
ROOT
HETATM    1  C   UNL     1       3.553  30.768  58.696  1.00  0.00     0.047 C 
HETATM    2  C   UNL     1       4.157  31.157  57.332  1.00  0.00     0.073 C 
HETATM    3  C   UNL     1       4.149  29.908  56.375  1.00  0.00     0.133 C 
HETATM    4  C   UNL     1       5.239  28.826  56.680  1.00  0.00     0.074 C 
HETATM    5  C   UNL     1       6.383  29.357  57.483  1.00  0.00     0.030 A 
HETATM    6  C   UNL     1       6.526  30.680  57.842  1.00  0.00     0.042 A 
HETATM    7  N   UNL     1       7.662  30.772  58.593  1.00  0.00    -0.279 N 
HETATM    8  H   UNL     1       8.076  31.594  59.023  1.00  0.00     0.189 HD
HETATM    9  N   UNL     1       8.247  29.573  58.799  1.00  0.00    -0.149 NA
HETATM   10  C   UNL     1       7.456  28.742  58.131  1.00  0.00     0.190 A 
HETATM   11  C   UNL     1       5.577  31.768  57.532  1.00  0.00     0.097 C 
ENDROOT
BRANCH   4  12
HETATM   12  C   UNL     1       5.869  28.138  55.474  1.00  0.00    -0.047 A 
HETATM   13  C   UNL     1       5.290  27.007  54.860  1.00  0.00     0.027 A 
HETATM   14  C   UNL     1       5.914  26.388  53.777  1.00  0.00     0.011 A 
HETATM   15 BR   UNL     1       5.117  24.868  52.983  1.00  0.00    -0.051 Br
HETATM   16  C   UNL     1       7.120  26.874  53.284  1.00  0.00     0.019 A 
HETATM   17  C   UNL     1       7.707  27.989  53.879  1.00  0.00     0.002 A 
HETATM   18  C   UNL     1       7.089  28.614  54.966  1.00  0.00     0.008 A 
ENDBRANCH   4  12
BRANCH   3  19
HETATM   19  C   UNL     1       4.153  30.365  54.929  1.00  0.00     0.266 C 
HETATM   20  O   UNL     1       4.812  31.304  54.498  1.00  0.00    -0.265 OA
BRANCH  19  21
HETATM   21  O   UNL     1       3.283  29.615  54.194  1.00  0.00    -0.326 OA
HETATM   22  C   UNL     1       3.577  29.567  52.798  1.00  0.00     0.213 C 
ENDBRANCH  19  21
ENDBRANCH   3  19
BRANCH   2  23
HETATM   23  O   UNL     1       3.282  32.183  56.832  1.00  0.00    -0.389 OA
HETATM   24  H   UNL     1       2.462  31.751  56.518  1.00  0.00     0.210 HD
ENDBRANCH   2  23
BRANCH  10  25
HETATM   25  O   UNL     1       7.786  27.458  58.207  1.00  0.00    -0.343 OA
HETATM   26  H   UNL     1       8.568  27.441  58.785  1.00  0.00     0.219 HD
ENDBRANCH  10  25
TORSDOF 5
ENDMDL
