MODEL 1
REMARK VINA RESULT:      -8.7      0.000      0.000
REMARK  9 active torsions:
REMARK  status: ('A' for Active; 'I' for Inactive)
REMARK    1  A    between atoms: C_2  and  N_3 
REMARK       I    between atoms: N_3  and  C_4 
REMARK    2  A    between atoms: C_4  and  C_5 
REMARK    3  A    between atoms: C_5  and  S_6 
REMARK    4  A    between atoms: S_6  and  C_7 
REMARK    5  A    between atoms: N_8  and  C_9 
REMARK    6  A    between atoms: C_9  and  C_10 
REMARK    7  A    between atoms: C_10  and  C_11 
REMARK    8  A    between atoms: C_17  and  C_18 
REMARK    9  A    between atoms: C_21  and  O_22 
ROOT
HETATM    1  C   UNL     1       7.722  27.946  57.200  1.00  0.00     0.192 A 
HETATM    2  N   UNL     1       7.736  27.284  55.999  1.00  0.00    -0.307 N 
HETATM    3  C   UNL     1       7.846  25.942  56.320  1.00  0.00     0.164 A 
HETATM    4  N   UNL     1       7.943  25.844  57.637  1.00  0.00    -0.128 NA
HETATM    5  N   UNL     1       7.895  27.094  58.180  1.00  0.00    -0.122 NA
ENDROOT
BRANCH   1   6
HETATM    6  S   UNL     1       7.478  29.648  57.383  1.00  0.00    -0.081 SA
BRANCH   6   7
HETATM    7  C   UNL     1       9.186  30.234  57.579  1.00  0.00     0.185 C 
BRANCH   7   8
HETATM    8  C   UNL     1       9.273  31.343  58.614  1.00  0.00     0.227 C 
HETATM    9  N   UNL     1       8.307  31.283  59.598  1.00  0.00    -0.357 N 
HETATM   10  H   UNL     1       7.464  30.750  59.372  1.00  0.00     0.162 HD
HETATM   11  O   UNL     1      10.150  32.203  58.580  1.00  0.00    -0.273 OA
BRANCH   9  12
HETATM   12  C   UNL     1       8.184  32.299  60.631  1.00  0.00     0.076 C 
HETATM   13  C   UNL     1       9.026  31.910  61.841  1.00  0.00     0.032 C 
HETATM   14  C   UNL     1       6.723  32.498  61.032  1.00  0.00     0.032 C 
ENDBRANCH   9  12
ENDBRANCH   7   8
ENDBRANCH   6   7
ENDBRANCH   1   6
BRANCH   2  15
HETATM   15  C   UNL     1       7.611  27.882  54.683  1.00  0.00     0.137 C 
BRANCH  15  16
HETATM   16  C   UNL     1       6.142  28.036  54.270  1.00  0.00     0.059 C 
BRANCH  16  17
HETATM   17  C   UNL     1       5.665  26.951  53.337  1.00  0.00    -0.057 A 
HETATM   18  C   UNL     1       6.004  26.970  51.976  1.00  0.00     0.007 A 
HETATM   19  C   UNL     1       5.585  25.944  51.126  1.00  0.00     0.001 A 
HETATM   20  C   UNL     1       4.833  24.885  51.628  1.00  0.00     0.000 A 
HETATM   21  C   UNL     1       4.498  24.849  52.979  1.00  0.00     0.001 A 
HETATM   22  C   UNL     1       4.911  25.876  53.830  1.00  0.00     0.007 A 
ENDBRANCH  16  17
ENDBRANCH  15  16
ENDBRANCH   2  15
BRANCH   3  23
HETATM   23  C   UNL     1       7.786  24.786  55.423  1.00  0.00     0.012 A 
HETATM   24  C   UNL     1       8.137  24.842  54.071  1.00  0.00     0.018 A 
HETATM   25  C   UNL     1       8.079  23.691  53.276  1.00  0.00     0.037 A 
HETATM   26  C   UNL     1       7.698  22.462  53.818  1.00  0.00     0.068 A 
HETATM   27  C   UNL     1       7.361  22.392  55.167  1.00  0.00     0.037 A 
HETATM   28  C   UNL     1       7.409  23.545  55.961  1.00  0.00     0.018 A 
BRANCH  26  29
HETATM   29  O   UNL     1       7.698  21.418  52.937  1.00  0.00    -0.356 OA
HETATM   30  C   UNL     1       8.696  20.421  53.124  1.00  0.00     0.210 C 
ENDBRANCH  26  29
ENDBRANCH   3  23
TORSDOF 9
ENDMDL
MODEL 2
REMARK VINA RESULT:      -8.5      2.272      4.779
REMARK  9 active torsions:
REMARK  status: ('A' for Active; 'I' for Inactive)
REMARK    1  A    between atoms: C_2  and  N_3 
REMARK       I    between atoms: N_3  and  C_4 
REMARK    2  A    between atoms: C_4  and  C_5 
REMARK    3  A    between atoms: C_5  and  S_6 
REMARK    4  A    between atoms: S_6  and  C_7 
REMARK    5  A    between atoms: N_8  and  C_9 
REMARK    6  A    between atoms: C_9  and  C_10 
REMARK    7  A    between atoms: C_10  and  C_11 
REMARK    8  A    between atoms: C_17  and  C_18 
REMARK    9  A    between atoms: C_21  and  O_22 
ROOT
HETATM    1  C   UNL     1       6.742  27.965  55.368  1.00  0.00     0.192 A 
HETATM    2  N   UNL     1       6.656  27.146  54.271  1.00  0.00    -0.307 N 
HETATM    3  C   UNL     1       5.828  27.809  53.382  1.00  0.00     0.164 A 
HETATM    4  N   UNL     1       5.417  28.926  53.962  1.00  0.00    -0.128 NA
HETATM    5  N   UNL     1       5.964  29.007  55.208  1.00  0.00    -0.122 NA
ENDROOT
BRANCH   1   6
HETATM    6  S   UNL     1       7.756  27.672  56.738  1.00  0.00    -0.081 SA
BRANCH   6   7
HETATM    7  C   UNL     1       7.201  28.973  57.878  1.00  0.00     0.185 C 
BRANCH   7   8
HETATM    8  C   UNL     1       8.381  29.687  58.514  1.00  0.00     0.227 C 
HETATM    9  N   UNL     1       8.168  30.093  59.816  1.00  0.00    -0.357 N 
HETATM   10  H   UNL     1       7.193  30.189  60.106  1.00  0.00     0.162 HD
HETATM   11  O   UNL     1       9.440  29.864  57.916  1.00  0.00    -0.273 OA
BRANCH   9  12
HETATM   12  C   UNL     1       9.153  30.858  60.564  1.00  0.00     0.076 C 
HETATM   13  C   UNL     1       9.112  30.455  62.034  1.00  0.00     0.032 C 
HETATM   14  C   UNL     1       8.915  32.358  60.409  1.00  0.00     0.032 C 
ENDBRANCH   9  12
ENDBRANCH   7   8
ENDBRANCH   6   7
ENDBRANCH   1   6
BRANCH   2  15
HETATM   15  C   UNL     1       7.341  25.880  54.083  1.00  0.00     0.137 C 
BRANCH  15  16
HETATM   16  C   UNL     1       6.540  24.712  54.671  1.00  0.00     0.059 C 
BRANCH  16  17
HETATM   17  C   UNL     1       7.182  23.367  54.437  1.00  0.00    -0.057 A 
HETATM   18  C   UNL     1       7.426  22.491  55.505  1.00  0.00     0.007 A 
HETATM   19  C   UNL     1       7.990  21.234  55.276  1.00  0.00     0.001 A 
HETATM   20  C   UNL     1       8.306  20.836  53.979  1.00  0.00     0.000 A 
HETATM   21  C   UNL     1       8.059  21.694  52.910  1.00  0.00     0.001 A 
HETATM   22  C   UNL     1       7.499  22.952  53.136  1.00  0.00     0.007 A 
ENDBRANCH  16  17
ENDBRANCH  15  16
ENDBRANCH   2  15
BRANCH   3  23
HETATM   23  C   UNL     1       5.494  27.439  52.005  1.00  0.00     0.012 A 
HETATM   24  C   UNL     1       5.104  26.151  51.627  1.00  0.00     0.018 A 
HETATM   25  C   UNL     1       4.775  25.873  50.294  1.00  0.00     0.037 A 
HETATM   26  C   UNL     1       4.802  26.877  49.324  1.00  0.00     0.068 A 
HETATM   27  C   UNL     1       5.174  28.167  49.693  1.00  0.00     0.037 A 
HETATM   28  C   UNL     1       5.512  28.443  51.023  1.00  0.00     0.018 A 
BRANCH  26  29
HETATM   29  O   UNL     1       4.445  26.474  48.067  1.00  0.00    -0.356 OA
HETATM   30  C   UNL     1       3.320  25.609  47.967  1.00  0.00     0.210 C 
ENDBRANCH  26  29
ENDBRANCH   3  23
TORSDOF 9
ENDMDL
MODEL 3
REMARK VINA RESULT:      -8.4      3.771      7.872
REMARK  9 active torsions:
REMARK  status: ('A' for Active; 'I' for Inactive)
REMARK    1  A    between atoms: C_2  and  N_3 
REMARK       I    between atoms: N_3  and  C_4 
REMARK    2  A    between atoms: C_4  and  C_5 
REMARK    3  A    between atoms: C_5  and  S_6 
REMARK    4  A    between atoms: S_6  and  C_7 
REMARK    5  A    between atoms: N_8  and  C_9 
REMARK    6  A    between atoms: C_9  and  C_10 
REMARK    7  A    between atoms: C_10  and  C_11 
REMARK    8  A    between atoms: C_17  and  C_18 
REMARK    9  A    between atoms: C_21  and  O_22 
ROOT
HETATM    1  C   UNL     1       5.506  27.149  51.867  1.00  0.00     0.192 A 
HETATM    2  N   UNL     1       6.360  26.696  52.841  1.00  0.00    -0.307 N 
HETATM    3  C   UNL     1       6.225  25.319  52.837  1.00  0.00     0.164 A 
HETATM    4  N   UNL     1       5.302  25.002  51.941  1.00  0.00    -0.128 NA
HETATM    5  N   UNL     1       4.836  26.144  51.361  1.00  0.00    -0.122 NA
ENDROOT
BRANCH   1   6
HETATM    6  S   UNL     1       5.369  28.798  51.369  1.00  0.00    -0.081 SA
BRANCH   6   7
HETATM    7  C   UNL     1       3.608  28.895  50.933  1.00  0.00     0.185 C 
BRANCH   7   8
HETATM    8  C   UNL     1       3.382  28.543  49.472  1.00  0.00     0.227 C 
HETATM    9  N   UNL     1       2.897  27.269  49.260  1.00  0.00    -0.357 N 
HETATM   10  H   UNL     1       3.052  26.595  50.013  1.00  0.00     0.162 HD
HETATM   11  O   UNL     1       3.597  29.344  48.565  1.00  0.00    -0.273 OA
BRANCH   9  12
HETATM   12  C   UNL     1       2.690  26.727  47.927  1.00  0.00     0.076 C 
HETATM   13  C   UNL     1       1.251  26.976  47.486  1.00  0.00     0.032 C 
HETATM   14  C   UNL     1       3.015  25.235  47.885  1.00  0.00     0.032 C 
ENDBRANCH   9  12
ENDBRANCH   7   8
ENDBRANCH   6   7
ENDBRANCH   1   6
BRANCH   2  15
HETATM   15  C   UNL     1       7.245  27.506  53.657  1.00  0.00     0.137 C 
BRANCH  15  16
HETATM   16  C   UNL     1       6.604  27.866  55.002  1.00  0.00     0.059 C 
BRANCH  16  17
HETATM   17  C   UNL     1       7.558  28.533  55.962  1.00  0.00    -0.057 A 
HETATM   18  C   UNL     1       7.249  28.639  57.326  1.00  0.00     0.007 A 
HETATM   19  C   UNL     1       8.152  29.229  58.214  1.00  0.00     0.001 A 
HETATM   20  C   UNL     1       9.375  29.708  57.750  1.00  0.00     0.000 A 
HETATM   21  C   UNL     1       9.697  29.599  56.400  1.00  0.00     0.001 A 
HETATM   22  C   UNL     1       8.794  29.014  55.509  1.00  0.00     0.007 A 
ENDBRANCH  16  17
ENDBRANCH  15  16
ENDBRANCH   2  15
BRANCH   3  23
HETATM   23  C   UNL     1       6.993  24.329  53.595  1.00  0.00     0.012 A 
HETATM   24  C   UNL     1       6.876  24.160  54.978  1.00  0.00     0.018 A 
HETATM   25  C   UNL     1       7.623  23.176  55.637  1.00  0.00     0.037 A 
HETATM   26  C   UNL     1       8.478  22.329  54.928  1.00  0.00     0.068 A 
HETATM   27  C   UNL     1       8.591  22.480  53.549  1.00  0.00     0.037 A 
HETATM   28  C   UNL     1       7.851  23.469  52.890  1.00  0.00     0.018 A 
BRANCH  26  29
HETATM   29  O   UNL     1       9.137  21.405  55.690  1.00  0.00    -0.356 OA
HETATM   30  C   UNL     1       8.403  20.810  56.753  1.00  0.00     0.210 C 
ENDBRANCH  26  29
ENDBRANCH   3  23
TORSDOF 9
ENDMDL
MODEL 4
REMARK VINA RESULT:      -8.1      4.691      8.953
REMARK  9 active torsions:
REMARK  status: ('A' for Active; 'I' for Inactive)
REMARK    1  A    between atoms: C_2  and  N_3 
REMARK       I    between atoms: N_3  and  C_4 
REMARK    2  A    between atoms: C_4  and  C_5 
REMARK    3  A    between atoms: C_5  and  S_6 
REMARK    4  A    between atoms: S_6  and  C_7 
REMARK    5  A    between atoms: N_8  and  C_9 
REMARK    6  A    between atoms: C_9  and  C_10 
REMARK    7  A    between atoms: C_10  and  C_11 
REMARK    8  A    between atoms: C_17  and  C_18 
REMARK    9  A    between atoms: C_21  and  O_22 
ROOT
HETATM    1  C   UNL     1       5.205  27.395  50.597  1.00  0.00     0.192 A 
HETATM    2  N   UNL     1       5.693  26.861  51.763  1.00  0.00    -0.307 N 
HETATM    3  C   UNL     1       6.028  27.947  52.552  1.00  0.00     0.164 A 
HETATM    4  N   UNL     1       5.792  29.048  51.854  1.00  0.00    -0.128 NA
HETATM    5  N   UNL     1       5.309  28.700  50.627  1.00  0.00    -0.122 NA
ENDROOT
BRANCH   1   6
HETATM    6  S   UNL     1       4.527  26.472  49.302  1.00  0.00    -0.081 SA
BRANCH   6   7
HETATM    7  C   UNL     1       4.080  27.783  48.126  1.00  0.00     0.185 C 
BRANCH   7   8
HETATM    8  C   UNL     1       2.586  28.056  48.146  1.00  0.00     0.227 C 
HETATM    9  N   UNL     1       2.060  28.446  46.931  1.00  0.00    -0.357 N 
HETATM   10  H   UNL     1       2.722  28.832  46.255  1.00  0.00     0.162 HD
HETATM   11  O   UNL     1       1.909  27.916  49.162  1.00  0.00    -0.273 OA
BRANCH   9  12
HETATM   12  C   UNL     1       0.665  28.822  46.772  1.00  0.00     0.076 C 
HETATM   13  C   UNL     1      -0.099  27.697  46.081  1.00  0.00     0.032 C 
HETATM   14  C   UNL     1       0.535  30.124  45.984  1.00  0.00     0.032 C 
ENDBRANCH   9  12
ENDBRANCH   7   8
ENDBRANCH   6   7
ENDBRANCH   1   6
BRANCH   2  15
HETATM   15  C   UNL     1       5.783  25.451  52.096  1.00  0.00     0.137 C 
BRANCH  15  16
HETATM   16  C   UNL     1       7.235  24.961  52.093  1.00  0.00     0.059 C 
BRANCH  16  17
HETATM   17  C   UNL     1       7.549  24.008  53.220  1.00  0.00    -0.057 A 
HETATM   18  C   UNL     1       7.927  22.683  52.958  1.00  0.00     0.007 A 
HETATM   19  C   UNL     1       8.248  21.818  54.006  1.00  0.00     0.001 A 
HETATM   20  C   UNL     1       8.205  22.269  55.323  1.00  0.00     0.000 A 
HETATM   21  C   UNL     1       7.841  23.586  55.595  1.00  0.00     0.001 A 
HETATM   22  C   UNL     1       7.515  24.452  54.549  1.00  0.00     0.007 A 
ENDBRANCH  16  17
ENDBRANCH  15  16
ENDBRANCH   2  15
BRANCH   3  23
HETATM   23  C   UNL     1       6.482  27.952  53.944  1.00  0.00     0.012 A 
HETATM   24  C   UNL     1       7.804  28.208  54.321  1.00  0.00     0.018 A 
HETATM   25  C   UNL     1       8.165  28.222  55.674  1.00  0.00     0.037 A 
HETATM   26  C   UNL     1       7.214  28.007  56.673  1.00  0.00     0.068 A 
HETATM   27  C   UNL     1       5.891  27.766  56.309  1.00  0.00     0.037 A 
HETATM   28  C   UNL     1       5.531  27.743  54.956  1.00  0.00     0.018 A 
BRANCH  26  29
HETATM   29  O   UNL     1       7.696  28.060  57.951  1.00  0.00    -0.356 OA
HETATM   30  C   UNL     1       8.093  29.339  58.433  1.00  0.00     0.210 C 
ENDBRANCH  26  29
ENDBRANCH   3  23
TORSDOF 9
ENDMDL
MODEL 5
REMARK VINA RESULT:      -8.1      3.118      8.003
REMARK  9 active torsions:
REMARK  status: ('A' for Active; 'I' for Inactive)
REMARK    1  A    between atoms: C_2  and  N_3 
REMARK       I    between atoms: N_3  and  C_4 
REMARK    2  A    between atoms: C_4  and  C_5 
REMARK    3  A    between atoms: C_5  and  S_6 
REMARK    4  A    between atoms: S_6  and  C_7 
REMARK    5  A    between atoms: N_8  and  C_9 
REMARK    6  A    between atoms: C_9  and  C_10 
REMARK    7  A    between atoms: C_10  and  C_11 
REMARK    8  A    between atoms: C_17  and  C_18 
REMARK    9  A    between atoms: C_21  and  O_22 
ROOT
HETATM    1  C   UNL     1       5.279  26.804  53.243  1.00  0.00     0.192 A 
HETATM    2  N   UNL     1       6.408  26.882  54.018  1.00  0.00    -0.307 N 
HETATM    3  C   UNL     1       6.272  28.050  54.748  1.00  0.00     0.164 A 
HETATM    4  N   UNL     1       5.147  28.639  54.372  1.00  0.00    -0.128 NA
HETATM    5  N   UNL     1       4.547  27.877  53.414  1.00  0.00    -0.122 NA
ENDROOT
BRANCH   1   6
HETATM    6  S   UNL     1       4.878  25.469  52.220  1.00  0.00    -0.081 SA
BRANCH   6   7
HETATM    7  C   UNL     1       5.507  26.046  50.617  1.00  0.00     0.185 C 
BRANCH   7   8
HETATM    8  C   UNL     1       4.385  26.585  49.746  1.00  0.00     0.227 C 
HETATM    9  N   UNL     1       3.841  27.774  50.187  1.00  0.00    -0.357 N 
HETATM   10  H   UNL     1       3.982  27.997  51.174  1.00  0.00     0.162 HD
HETATM   11  O   UNL     1       4.015  26.011  48.724  1.00  0.00    -0.273 OA
BRANCH   9  12
HETATM   12  C   UNL     1       2.709  28.404  49.527  1.00  0.00     0.076 C 
HETATM   13  C   UNL     1       3.207  29.388  48.474  1.00  0.00     0.032 C 
HETATM   14  C   UNL     1       1.807  29.109  50.539  1.00  0.00     0.032 C 
ENDBRANCH   9  12
ENDBRANCH   7   8
ENDBRANCH   6   7
ENDBRANCH   1   6
BRANCH   2  15
HETATM   15  C   UNL     1       7.481  25.907  54.081  1.00  0.00     0.137 C 
BRANCH  15  16
HETATM   16  C   UNL     1       7.229  24.858  55.170  1.00  0.00     0.059 C 
BRANCH  16  17
HETATM   17  C   UNL     1       7.480  23.443  54.710  1.00  0.00    -0.057 A 
HETATM   18  C   UNL     1       7.681  23.153  53.353  1.00  0.00     0.007 A 
HETATM   19  C   UNL     1       7.946  21.845  52.939  1.00  0.00     0.001 A 
HETATM   20  C   UNL     1       8.023  20.818  53.877  1.00  0.00     0.000 A 
HETATM   21  C   UNL     1       7.835  21.096  55.229  1.00  0.00     0.001 A 
HETATM   22  C   UNL     1       7.565  22.402  55.644  1.00  0.00     0.007 A 
ENDBRANCH  16  17
ENDBRANCH  15  16
ENDBRANCH   2  15
BRANCH   3  23
HETATM   23  C   UNL     1       7.134  28.557  55.818  1.00  0.00     0.012 A 
HETATM   24  C   UNL     1       6.745  28.609  57.160  1.00  0.00     0.018 A 
HETATM   25  C   UNL     1       7.631  29.084  58.136  1.00  0.00     0.037 A 
HETATM   26  C   UNL     1       8.923  29.489  57.797  1.00  0.00     0.068 A 
HETATM   27  C   UNL     1       9.325  29.428  56.465  1.00  0.00     0.037 A 
HETATM   28  C   UNL     1       8.438  28.962  55.488  1.00  0.00     0.018 A 
BRANCH  26  29
HETATM   29  O   UNL     1       9.687  29.918  58.846  1.00  0.00    -0.356 OA
HETATM   30  C   UNL     1       9.392  31.207  59.369  1.00  0.00     0.210 C 
ENDBRANCH  26  29
ENDBRANCH   3  23
TORSDOF 9
ENDMDL
MODEL 6
REMARK VINA RESULT:      -8.0      1.427      2.067
REMARK  9 active torsions:
REMARK  status: ('A' for Active; 'I' for Inactive)
REMARK    1  A    between atoms: C_2  and  N_3 
REMARK       I    between atoms: N_3  and  C_4 
REMARK    2  A    between atoms: C_4  and  C_5 
REMARK    3  A    between atoms: C_5  and  S_6 
REMARK    4  A    between atoms: S_6  and  C_7 
REMARK    5  A    between atoms: N_8  and  C_9 
REMARK    6  A    between atoms: C_9  and  C_10 
REMARK    7  A    between atoms: C_10  and  C_11 
REMARK    8  A    between atoms: C_17  and  C_18 
REMARK    9  A    between atoms: C_21  and  O_22 
ROOT
HETATM    1  C   UNL     1       7.263  28.579  57.423  1.00  0.00     0.192 A 
HETATM    2  N   UNL     1       6.776  27.491  56.743  1.00  0.00    -0.307 N 
HETATM    3  C   UNL     1       7.840  26.610  56.651  1.00  0.00     0.164 A 
HETATM    4  N   UNL     1       8.896  27.186  57.204  1.00  0.00    -0.128 NA
HETATM    5  N   UNL     1       8.542  28.422  57.657  1.00  0.00    -0.122 NA
ENDROOT
BRANCH   1   6
HETATM    6  S   UNL     1       6.311  29.934  57.920  1.00  0.00    -0.081 SA
BRANCH   6   7
HETATM    7  C   UNL     1       7.592  31.064  58.536  1.00  0.00     0.185 C 
BRANCH   7   8
HETATM    8  C   UNL     1       7.833  30.867  60.023  1.00  0.00     0.227 C 
HETATM    9  N   UNL     1       6.914  31.494  60.838  1.00  0.00    -0.357 N 
HETATM   10  H   UNL     1       6.395  32.270  60.422  1.00  0.00     0.162 HD
HETATM   11  O   UNL     1       8.762  30.185  60.450  1.00  0.00    -0.273 OA
BRANCH   9  12
HETATM   12  C   UNL     1       7.024  31.482  62.288  1.00  0.00     0.076 C 
HETATM   13  C   UNL     1       5.660  31.758  62.912  1.00  0.00     0.032 C 
HETATM   14  C   UNL     1       8.053  32.504  62.769  1.00  0.00     0.032 C 
ENDBRANCH   9  12
ENDBRANCH   7   8
ENDBRANCH   6   7
ENDBRANCH   1   6
BRANCH   2  15
HETATM   15  C   UNL     1       5.416  27.304  56.273  1.00  0.00     0.137 C 
BRANCH  15  16
HETATM   16  C   UNL     1       5.180  28.004  54.930  1.00  0.00     0.059 C 
BRANCH  16  17
HETATM   17  C   UNL     1       5.234  27.068  53.748  1.00  0.00    -0.057 A 
HETATM   18  C   UNL     1       4.626  25.806  53.802  1.00  0.00     0.007 A 
HETATM   19  C   UNL     1       4.652  24.959  52.692  1.00  0.00     0.001 A 
HETATM   20  C   UNL     1       5.275  25.368  51.515  1.00  0.00     0.000 A 
HETATM   21  C   UNL     1       5.874  26.624  51.447  1.00  0.00     0.001 A 
HETATM   22  C   UNL     1       5.853  27.471  52.557  1.00  0.00     0.007 A 
ENDBRANCH  16  17
ENDBRANCH  15  16
ENDBRANCH   2  15
BRANCH   3  23
HETATM   23  C   UNL     1       7.843  25.243  56.128  1.00  0.00     0.012 A 
HETATM   24  C   UNL     1       7.817  24.107  56.942  1.00  0.00     0.018 A 
HETATM   25  C   UNL     1       7.797  22.828  56.373  1.00  0.00     0.037 A 
HETATM   26  C   UNL     1       7.776  22.658  54.987  1.00  0.00     0.068 A 
HETATM   27  C   UNL     1       7.786  23.783  54.167  1.00  0.00     0.037 A 
HETATM   28  C   UNL     1       7.816  25.063  54.735  1.00  0.00     0.018 A 
BRANCH  26  29
HETATM   29  O   UNL     1       7.743  21.359  54.565  1.00  0.00    -0.356 OA
HETATM   30  C   UNL     1       8.062  20.363  55.529  1.00  0.00     0.210 C 
ENDBRANCH  26  29
ENDBRANCH   3  23
TORSDOF 9
ENDMDL
MODEL 7
REMARK VINA RESULT:      -7.7      7.747     13.005
REMARK  9 active torsions:
REMARK  status: ('A' for Active; 'I' for Inactive)
REMARK    1  A    between atoms: C_2  and  N_3 
REMARK       I    between atoms: N_3  and  C_4 
REMARK    2  A    between atoms: C_4  and  C_5 
REMARK    3  A    between atoms: C_5  and  S_6 
REMARK    4  A    between atoms: S_6  and  C_7 
REMARK    5  A    between atoms: N_8  and  C_9 
REMARK    6  A    between atoms: C_9  and  C_10 
REMARK    7  A    between atoms: C_10  and  C_11 
REMARK    8  A    between atoms: C_17  and  C_18 
REMARK    9  A    between atoms: C_21  and  O_22 
ROOT
HETATM    1  C   UNL     1       4.664  32.964  61.591  1.00  0.00     0.192 A 
HETATM    2  N   UNL     1       5.141  33.832  62.540  1.00  0.00    -0.307 N 
HETATM    3  C   UNL     1       5.005  33.169  63.746  1.00  0.00     0.164 A 
HETATM    4  N   UNL     1       4.430  32.000  63.507  1.00  0.00    -0.128 NA
HETATM    5  N   UNL     1       4.192  31.888  62.170  1.00  0.00    -0.122 NA
ENDROOT
BRANCH   1   6
HETATM    6  S   UNL     1       4.713  33.246  59.886  1.00  0.00    -0.081 SA
BRANCH   6   7
HETATM    7  C   UNL     1       5.721  31.844  59.321  1.00  0.00     0.185 C 
BRANCH   7   8
HETATM    8  C   UNL     1       7.147  31.948  59.835  1.00  0.00     0.227 C 
HETATM    9  N   UNL     1       7.351  31.375  61.074  1.00  0.00    -0.357 N 
HETATM   10  H   UNL     1       6.520  31.252  61.657  1.00  0.00     0.162 HD
HETATM   11  O   UNL     1       8.041  32.481  59.181  1.00  0.00    -0.273 OA
BRANCH   9  12
HETATM   12  C   UNL     1       8.631  31.442  61.761  1.00  0.00     0.076 C 
HETATM   13  C   UNL     1       9.019  30.055  62.263  1.00  0.00     0.032 C 
HETATM   14  C   UNL     1       8.581  32.439  62.916  1.00  0.00     0.032 C 
ENDBRANCH   9  12
ENDBRANCH   7   8
ENDBRANCH   6   7
ENDBRANCH   1   6
BRANCH   2  15
HETATM   15  C   UNL     1       5.711  35.145  62.299  1.00  0.00     0.137 C 
BRANCH  15  16
HETATM   16  C   UNL     1       4.920  36.245  63.015  1.00  0.00     0.059 C 
BRANCH  16  17
HETATM   17  C   UNL     1       5.659  37.558  63.099  1.00  0.00    -0.057 A 
HETATM   18  C   UNL     1       6.354  38.064  61.991  1.00  0.00     0.007 A 
HETATM   19  C   UNL     1       7.007  39.297  62.067  1.00  0.00     0.001 A 
HETATM   20  C   UNL     1       6.963  40.039  63.245  1.00  0.00     0.000 A 
HETATM   21  C   UNL     1       6.268  39.551  64.348  1.00  0.00     0.001 A 
HETATM   22  C   UNL     1       5.618  38.317  64.277  1.00  0.00     0.007 A 
ENDBRANCH  16  17
ENDBRANCH  15  16
ENDBRANCH   2  15
BRANCH   3  23
HETATM   23  C   UNL     1       5.469  33.588  65.070  1.00  0.00     0.012 A 
HETATM   24  C   UNL     1       6.818  33.753  65.397  1.00  0.00     0.018 A 
HETATM   25  C   UNL     1       7.190  34.181  66.677  1.00  0.00     0.037 A 
HETATM   26  C   UNL     1       6.227  34.477  67.643  1.00  0.00     0.068 A 
HETATM   27  C   UNL     1       4.879  34.331  67.324  1.00  0.00     0.037 A 
HETATM   28  C   UNL     1       4.507  33.894  66.047  1.00  0.00     0.018 A 
BRANCH  26  29
HETATM   29  O   UNL     1       6.724  34.897  68.845  1.00  0.00    -0.356 OA
HETATM   30  C   UNL     1       5.859  34.790  69.969  1.00  0.00     0.210 C 
ENDBRANCH  26  29
ENDBRANCH   3  23
TORSDOF 9
ENDMDL
MODEL 8
REMARK VINA RESULT:      -7.7      2.696      4.309
REMARK  9 active torsions:
REMARK  status: ('A' for Active; 'I' for Inactive)
REMARK    1  A    between atoms: C_2  and  N_3 
REMARK       I    between atoms: N_3  and  C_4 
REMARK    2  A    between atoms: C_4  and  C_5 
REMARK    3  A    between atoms: C_5  and  S_6 
REMARK    4  A    between atoms: S_6  and  C_7 
REMARK    5  A    between atoms: N_8  and  C_9 
REMARK    6  A    between atoms: C_9  and  C_10 
REMARK    7  A    between atoms: C_10  and  C_11 
REMARK    8  A    between atoms: C_17  and  C_18 
REMARK    9  A    between atoms: C_21  and  O_22 
ROOT
HETATM    1  C   UNL     1       9.507  31.068  58.529  1.00  0.00     0.192 A 
HETATM    2  N   UNL     1       8.496  30.276  58.048  1.00  0.00    -0.307 N 
HETATM    3  C   UNL     1       9.072  29.511  57.049  1.00  0.00     0.164 A 
HETATM    4  N   UNL     1      10.337  29.883  56.928  1.00  0.00    -0.128 NA
HETATM    5  N   UNL     1      10.597  30.873  57.830  1.00  0.00    -0.122 NA
ENDROOT
BRANCH   1   6
HETATM    6  S   UNL     1       9.361  32.138  59.879  1.00  0.00    -0.081 SA
BRANCH   6   7
HETATM    7  C   UNL     1       8.865  30.988  61.195  1.00  0.00     0.185 C 
BRANCH   7   8
HETATM    8  C   UNL     1       7.865  31.630  62.141  1.00  0.00     0.227 C 
HETATM    9  N   UNL     1       6.625  31.867  61.586  1.00  0.00    -0.357 N 
HETATM   10  H   UNL     1       6.587  31.915  60.565  1.00  0.00     0.162 HD
HETATM   11  O   UNL     1       8.144  31.892  63.309  1.00  0.00    -0.273 OA
BRANCH   9  12
HETATM   12  C   UNL     1       5.562  32.543  62.313  1.00  0.00     0.076 C 
HETATM   13  C   UNL     1       4.205  32.095  61.780  1.00  0.00     0.032 C 
HETATM   14  C   UNL     1       5.708  34.060  62.211  1.00  0.00     0.032 C 
ENDBRANCH   9  12
ENDBRANCH   7   8
ENDBRANCH   6   7
ENDBRANCH   1   6
BRANCH   2  15
HETATM   15  C   UNL     1       7.129  30.232  58.534  1.00  0.00     0.137 C 
BRANCH  15  16
HETATM   16  C   UNL     1       6.192  31.080  57.667  1.00  0.00     0.059 C 
BRANCH  16  17
HETATM   17  C   UNL     1       5.406  30.272  56.665  1.00  0.00    -0.057 A 
HETATM   18  C   UNL     1       5.117  30.787  55.393  1.00  0.00     0.007 A 
HETATM   19  C   UNL     1       4.418  30.020  54.459  1.00  0.00     0.001 A 
HETATM   20  C   UNL     1       4.009  28.728  54.783  1.00  0.00     0.000 A 
HETATM   21  C   UNL     1       4.298  28.202  56.039  1.00  0.00     0.001 A 
HETATM   22  C   UNL     1       4.994  28.969  56.976  1.00  0.00     0.007 A 
ENDBRANCH  16  17
ENDBRANCH  15  16
ENDBRANCH   2  15
BRANCH   3  23
HETATM   23  C   UNL     1       8.473  28.415  56.286  1.00  0.00     0.012 A 
HETATM   24  C   UNL     1       8.137  27.180  56.847  1.00  0.00     0.018 A 
HETATM   25  C   UNL     1       7.544  26.183  56.063  1.00  0.00     0.037 A 
HETATM   26  C   UNL     1       7.250  26.408  54.717  1.00  0.00     0.068 A 
HETATM   27  C   UNL     1       7.567  27.640  54.151  1.00  0.00     0.037 A 
HETATM   28  C   UNL     1       8.169  28.634  54.932  1.00  0.00     0.018 A 
BRANCH  26  29
HETATM   29  O   UNL     1       6.660  25.358  54.071  1.00  0.00    -0.356 OA
HETATM   30  C   UNL     1       7.070  24.053  54.461  1.00  0.00     0.210 C 
ENDBRANCH  26  29
ENDBRANCH   3  23
TORSDOF 9
ENDMDL
MODEL 9
REMARK VINA RESULT:      -7.5      1.633      2.134
REMARK  9 active torsions:
REMARK  status: ('A' for Active; 'I' for Inactive)
REMARK    1  A    between atoms: C_2  and  N_3 
REMARK       I    between atoms: N_3  and  C_4 
REMARK    2  A    between atoms: C_4  and  C_5 
REMARK    3  A    between atoms: C_5  and  S_6 
REMARK    4  A    between atoms: S_6  and  C_7 
REMARK    5  A    between atoms: N_8  and  C_9 
REMARK    6  A    between atoms: C_9  and  C_10 
REMARK    7  A    between atoms: C_10  and  C_11 
REMARK    8  A    between atoms: C_17  and  C_18 
REMARK    9  A    between atoms: C_21  and  O_22 
ROOT
HETATM    1  C   UNL     1       6.944  27.417  57.217  1.00  0.00     0.192 A 
HETATM    2  N   UNL     1       6.809  26.451  56.252  1.00  0.00    -0.307 N 
HETATM    3  C   UNL     1       7.707  25.457  56.600  1.00  0.00     0.164 A 
HETATM    4  N   UNL     1       8.361  25.857  57.681  1.00  0.00    -0.128 NA
HETATM    5  N   UNL     1       7.905  27.090  58.044  1.00  0.00    -0.122 NA
ENDROOT
BRANCH   1   6
HETATM    6  S   UNL     1       5.963  28.837  57.331  1.00  0.00    -0.081 SA
BRANCH   6   7
HETATM    7  C   UNL     1       7.207  30.147  57.141  1.00  0.00     0.185 C 
BRANCH   7   8
HETATM    8  C   UNL     1       7.283  31.020  58.382  1.00  0.00     0.227 C 
HETATM    9  N   UNL     1       8.152  30.562  59.351  1.00  0.00    -0.357 N 
HETATM   10  H   UNL     1       8.390  29.569  59.312  1.00  0.00     0.162 HD
HETATM   11  O   UNL     1       6.633  32.057  58.493  1.00  0.00    -0.273 OA
BRANCH   9  12
HETATM   12  C   UNL     1       8.302  31.223  60.637  1.00  0.00     0.076 C 
HETATM   13  C   UNL     1       9.086  32.520  60.464  1.00  0.00     0.032 C 
HETATM   14  C   UNL     1       8.992  30.307  61.647  1.00  0.00     0.032 C 
ENDBRANCH   9  12
ENDBRANCH   7   8
ENDBRANCH   6   7
ENDBRANCH   1   6
BRANCH   2  15
HETATM   15  C   UNL     1       5.878  26.467  55.139  1.00  0.00     0.137 C 
BRANCH  15  16
HETATM   16  C   UNL     1       6.444  27.235  53.940  1.00  0.00     0.059 C 
BRANCH  16  17
HETATM   17  C   UNL     1       5.379  27.824  53.047  1.00  0.00    -0.057 A 
HETATM   18  C   UNL     1       5.425  27.644  51.657  1.00  0.00     0.007 A 
HETATM   19  C   UNL     1       4.418  28.164  50.842  1.00  0.00     0.001 A 
HETATM   20  C   UNL     1       3.351  28.859  51.407  1.00  0.00     0.000 A 
HETATM   21  C   UNL     1       3.289  29.035  52.787  1.00  0.00     0.001 A 
HETATM   22  C   UNL     1       4.297  28.520  53.604  1.00  0.00     0.007 A 
ENDBRANCH  16  17
ENDBRANCH  15  16
ENDBRANCH   2  15
BRANCH   3  23
HETATM   23  C   UNL     1       7.891  24.143  55.982  1.00  0.00     0.012 A 
HETATM   24  C   UNL     1       7.932  22.950  56.709  1.00  0.00     0.018 A 
HETATM   25  C   UNL     1       8.086  21.723  56.049  1.00  0.00     0.037 A 
HETATM   26  C   UNL     1       8.175  21.663  54.657  1.00  0.00     0.068 A 
HETATM   27  C   UNL     1       8.120  22.845  53.923  1.00  0.00     0.037 A 
HETATM   28  C   UNL     1       7.975  24.072  54.582  1.00  0.00     0.018 A 
BRANCH  26  29
HETATM   29  O   UNL     1       8.309  20.405  54.141  1.00  0.00    -0.356 OA
HETATM   30  C   UNL     1       8.445  20.302  52.729  1.00  0.00     0.210 C 
ENDBRANCH  26  29
ENDBRANCH   3  23
TORSDOF 9
ENDMDL
MODEL 10
REMARK VINA RESULT:      -7.4      4.149      7.001
REMARK  9 active torsions:
REMARK  status: ('A' for Active; 'I' for Inactive)
REMARK    1  A    between atoms: C_2  and  N_3 
REMARK       I    between atoms: N_3  and  C_4 
REMARK    2  A    between atoms: C_4  and  C_5 
REMARK    3  A    between atoms: C_5  and  S_6 
REMARK    4  A    between atoms: S_6  and  C_7 
REMARK    5  A    between atoms: N_8  and  C_9 
REMARK    6  A    between atoms: C_9  and  C_10 
REMARK    7  A    between atoms: C_10  and  C_11 
REMARK    8  A    between atoms: C_17  and  C_18 
REMARK    9  A    between atoms: C_21  and  O_22 
ROOT
HETATM    1  C   UNL     1       5.656  27.347  51.802  1.00  0.00     0.192 A 
HETATM    2  N   UNL     1       6.452  26.827  52.790  1.00  0.00    -0.307 N 
HETATM    3  C   UNL     1       6.275  25.456  52.722  1.00  0.00     0.164 A 
HETATM    4  N   UNL     1       5.381  25.207  51.776  1.00  0.00    -0.128 NA
HETATM    5  N   UNL     1       4.976  26.387  51.227  1.00  0.00    -0.122 NA
ENDROOT
BRANCH   1   6
HETATM    6  S   UNL     1       5.591  29.020  51.369  1.00  0.00    -0.081 SA
BRANCH   6   7
HETATM    7  C   UNL     1       5.523  28.917  49.557  1.00  0.00     0.185 C 
BRANCH   7   8
HETATM    8  C   UNL     1       5.147  30.255  48.943  1.00  0.00     0.227 C 
HETATM    9  N   UNL     1       5.893  31.322  49.398  1.00  0.00    -0.357 N 
HETATM   10  H   UNL     1       6.361  31.196  50.298  1.00  0.00     0.162 HD
HETATM   11  O   UNL     1       4.263  30.361  48.095  1.00  0.00    -0.273 OA
BRANCH   9  12
HETATM   12  C   UNL     1       5.629  32.690  48.982  1.00  0.00     0.076 C 
HETATM   13  C   UNL     1       6.887  33.294  48.365  1.00  0.00     0.032 C 
HETATM   14  C   UNL     1       5.147  33.537  50.158  1.00  0.00     0.032 C 
ENDBRANCH   9  12
ENDBRANCH   7   8
ENDBRANCH   6   7
ENDBRANCH   1   6
BRANCH   2  15
HETATM   15  C   UNL     1       7.327  27.573  53.676  1.00  0.00     0.137 C 
BRANCH  15  16
HETATM   16  C   UNL     1       6.618  27.959  54.978  1.00  0.00     0.059 C 
BRANCH  16  17
HETATM   17  C   UNL     1       7.539  28.569  56.006  1.00  0.00    -0.057 A 
HETATM   18  C   UNL     1       8.798  29.067  55.638  1.00  0.00     0.007 A 
HETATM   19  C   UNL     1       9.631  29.660  56.589  1.00  0.00     0.001 A 
HETATM   20  C   UNL     1       9.212  29.771  57.913  1.00  0.00     0.000 A 
HETATM   21  C   UNL     1       7.960  29.288  58.288  1.00  0.00     0.001 A 
HETATM   22  C   UNL     1       7.127  28.691  57.340  1.00  0.00     0.007 A 
ENDBRANCH  16  17
ENDBRANCH  15  16
ENDBRANCH   2  15
BRANCH   3  23
HETATM   23  C   UNL     1       6.978  24.411  53.468  1.00  0.00     0.012 A 
HETATM   24  C   UNL     1       6.780  24.174  54.832  1.00  0.00     0.018 A 
HETATM   25  C   UNL     1       7.469  23.141  55.478  1.00  0.00     0.037 A 
HETATM   26  C   UNL     1       8.345  22.311  54.775  1.00  0.00     0.068 A 
HETATM   27  C   UNL     1       8.538  22.530  53.413  1.00  0.00     0.037 A 
HETATM   28  C   UNL     1       7.856  23.569  52.768  1.00  0.00     0.018 A 
BRANCH  26  29
HETATM   29  O   UNL     1       8.941  21.334  55.523  1.00  0.00    -0.356 OA
HETATM   30  C   UNL     1       8.304  20.986  56.746  1.00  0.00     0.210 C 
ENDBRANCH  26  29
ENDBRANCH   3  23
TORSDOF 9
ENDMDL
