MODEL 1
REMARK VINA RESULT:     -10.1      0.000      0.000
REMARK  8 active torsions:
REMARK  status: ('A' for Active; 'I' for Inactive)
REMARK    1  A    between atoms: C_4  and  N_5 
REMARK       I    between atoms: N_5  and  C_6 
REMARK    2  A    between atoms: C_6  and  C_7 
REMARK    3  A    between atoms: C_7  and  N_8 
REMARK       I    between atoms: N_8  and  C_9 
REMARK    4  A    between atoms: C_9  and  C_10 
REMARK    5  A    between atoms: C_10  and  S_11 
REMARK    6  A    between atoms: S_11  and  C_12 
REMARK    7  A    between atoms: C_14  and  C_15 
REMARK    8  A    between atoms: C_27  and  O_28 
ROOT
HETATM    1  N   UNL     1       8.920  29.578  56.952  1.00  0.00    -0.352 N 
HETATM    2  C   UNL     1       8.023  28.589  57.309  1.00  0.00     0.227 C 
HETATM    3  O   UNL     1       8.084  28.039  58.405  1.00  0.00    -0.273 OA
HETATM    4  H   UNL     1       8.713  30.175  56.159  1.00  0.00     0.162 HD
ENDROOT
BRANCH   2   5
HETATM    5  C   UNL     1       7.012  28.275  56.215  1.00  0.00     0.185 C 
BRANCH   5   6
HETATM    6  S   UNL     1       5.724  27.131  56.782  1.00  0.00    -0.081 SA
BRANCH   6   7
HETATM    7  C   UNL     1       6.544  25.638  56.572  1.00  0.00     0.185 A 
HETATM    8  N   UNL     1       6.509  24.829  55.546  1.00  0.00    -0.201 NA
HETATM    9  C   UNL     1       7.364  23.808  55.911  1.00  0.00     0.185 A 
HETATM   10  N   UNL     1       7.916  23.978  57.129  1.00  0.00    -0.152 NA
HETATM   11  N   UNL     1       7.374  25.144  57.521  1.00  0.00    -0.253 N 
HETATM   12  H   UNL     1       7.613  25.540  58.422  1.00  0.00     0.191 HD
BRANCH   9  13
HETATM   13  C   UNL     1       7.649  22.664  55.052  1.00  0.00     0.052 A 
HETATM   14  C   UNL     1       7.915  21.395  55.580  1.00  0.00     0.130 A 
HETATM   15  F   UNL     1       7.925  21.176  56.903  1.00  0.00    -0.205 F 
HETATM   16  C   UNL     1       8.184  20.307  54.747  1.00  0.00     0.043 A 
HETATM   17  C   UNL     1       8.191  20.470  53.364  1.00  0.00     0.003 A 
HETATM   18  C   UNL     1       7.930  21.724  52.816  1.00  0.00     0.001 A 
HETATM   19  C   UNL     1       7.661  22.812  53.653  1.00  0.00     0.018 A 
ENDBRANCH   9  13
ENDBRANCH   6   7
ENDBRANCH   5   6
ENDBRANCH   2   5
BRANCH   1  20
HETATM   20  C   UNL     1       9.946  30.021  57.877  1.00  0.00     0.225 C 
BRANCH  20  21
HETATM   21  C   UNL     1       9.455  31.213  58.702  1.00  0.00     0.239 C 
HETATM   22  N   UNL     1       8.367  30.899  59.490  1.00  0.00    -0.323 N 
HETATM   23  H   UNL     1       7.940  29.978  59.355  1.00  0.00     0.169 HD
HETATM   24  O   UNL     1       9.983  32.315  58.581  1.00  0.00    -0.271 OA
BRANCH  22  25
HETATM   25  C   UNL     1       7.687  31.720  60.418  1.00  0.00     0.069 A 
HETATM   26  C   UNL     1       8.144  31.951  61.719  1.00  0.00     0.039 A 
HETATM   27  C   UNL     1       7.421  32.774  62.596  1.00  0.00    -0.060 A 
HETATM   28  C   UNL     1       7.901  32.983  64.002  1.00  0.00     0.048 C 
HETATM   29  C   UNL     1       6.221  33.344  62.164  1.00  0.00     0.009 A 
HETATM   30  C   UNL     1       5.752  33.117  60.867  1.00  0.00     0.039 A 
HETATM   31  C   UNL     1       6.477  32.306  59.992  1.00  0.00     0.095 A 
BRANCH  31  32
HETATM   32  O   UNL     1       6.102  32.009  58.703  1.00  0.00    -0.354 OA
HETATM   33  C   UNL     1       5.191  32.897  58.068  1.00  0.00     0.210 C 
ENDBRANCH  31  32
ENDBRANCH  22  25
ENDBRANCH  20  21
ENDBRANCH   1  20
TORSDOF 8
ENDMDL
MODEL 2
REMARK VINA RESULT:     -10.1      1.530      1.931
REMARK  8 active torsions:
REMARK  status: ('A' for Active; 'I' for Inactive)
REMARK    1  A    between atoms: C_4  and  N_5 
REMARK       I    between atoms: N_5  and  C_6 
REMARK    2  A    between atoms: C_6  and  C_7 
REMARK    3  A    between atoms: C_7  and  N_8 
REMARK       I    between atoms: N_8  and  C_9 
REMARK    4  A    between atoms: C_9  and  C_10 
REMARK    5  A    between atoms: C_10  and  S_11 
REMARK    6  A    between atoms: S_11  and  C_12 
REMARK    7  A    between atoms: C_14  and  C_15 
REMARK    8  A    between atoms: C_27  and  O_28 
ROOT
HETATM    1  N   UNL     1       9.881  29.721  56.600  1.00  0.00    -0.352 N 
HETATM    2  C   UNL     1       8.848  28.803  56.619  1.00  0.00     0.227 C 
HETATM    3  O   UNL     1       8.538  28.214  57.651  1.00  0.00    -0.273 OA
HETATM    4  H   UNL     1       9.965  30.359  55.816  1.00  0.00     0.162 HD
ENDROOT
BRANCH   2   5
HETATM    5  C   UNL     1       8.191  28.614  55.259  1.00  0.00     0.185 C 
BRANCH   5   6
HETATM    6  S   UNL     1       6.398  28.368  55.395  1.00  0.00    -0.081 SA
BRANCH   6   7
HETATM    7  C   UNL     1       6.292  26.723  54.913  1.00  0.00     0.185 A 
HETATM    8  N   UNL     1       7.214  25.799  54.969  1.00  0.00    -0.201 NA
HETATM    9  C   UNL     1       6.576  24.678  54.474  1.00  0.00     0.185 A 
HETATM   10  N   UNL     1       5.295  24.900  54.121  1.00  0.00    -0.152 NA
HETATM   11  N   UNL     1       5.147  26.205  54.409  1.00  0.00    -0.253 N 
HETATM   12  H   UNL     1       4.260  26.665  54.248  1.00  0.00     0.191 HD
BRANCH   9  13
HETATM   13  C   UNL     1       7.230  23.379  54.359  1.00  0.00     0.052 A 
HETATM   14  C   UNL     1       7.798  22.945  53.156  1.00  0.00     0.130 A 
HETATM   15  F   UNL     1       7.762  23.706  52.051  1.00  0.00    -0.205 F 
HETATM   16  C   UNL     1       8.423  21.701  53.057  1.00  0.00     0.043 A 
HETATM   17  C   UNL     1       8.490  20.862  54.168  1.00  0.00     0.003 A 
HETATM   18  C   UNL     1       7.931  21.273  55.376  1.00  0.00     0.001 A 
HETATM   19  C   UNL     1       7.305  22.521  55.470  1.00  0.00     0.018 A 
ENDBRANCH   9  13
ENDBRANCH   6   7
ENDBRANCH   5   6
ENDBRANCH   2   5
BRANCH   1  20
HETATM   20  C   UNL     1      10.613  30.043  57.811  1.00  0.00     0.225 C 
BRANCH  20  21
HETATM   21  C   UNL     1       9.953  31.208  58.551  1.00  0.00     0.239 C 
HETATM   22  N   UNL     1       8.909  30.801  59.355  1.00  0.00    -0.323 N 
HETATM   23  H   UNL     1       8.614  29.823  59.283  1.00  0.00     0.169 HD
HETATM   24  O   UNL     1      10.325  32.362  58.356  1.00  0.00    -0.271 OA
BRANCH  22  25
HETATM   25  C   UNL     1       8.112  31.582  60.223  1.00  0.00     0.069 A 
HETATM   26  C   UNL     1       8.434  31.813  61.563  1.00  0.00     0.039 A 
HETATM   27  C   UNL     1       7.598  32.594  62.376  1.00  0.00    -0.060 A 
HETATM   28  C   UNL     1       7.935  32.803  63.823  1.00  0.00     0.048 C 
HETATM   29  C   UNL     1       6.422  33.121  61.839  1.00  0.00     0.009 A 
HETATM   30  C   UNL     1       6.086  32.893  60.501  1.00  0.00     0.039 A 
HETATM   31  C   UNL     1       6.924  32.124  59.690  1.00  0.00     0.095 A 
BRANCH  31  32
HETATM   32  O   UNL     1       6.684  31.830  58.368  1.00  0.00    -0.354 OA
HETATM   33  C   UNL     1       5.364  31.435  58.017  1.00  0.00     0.210 C 
ENDBRANCH  31  32
ENDBRANCH  22  25
ENDBRANCH  20  21
ENDBRANCH   1  20
TORSDOF 8
ENDMDL
MODEL 3
REMARK VINA RESULT:     -10.0      3.273     10.398
REMARK  8 active torsions:
REMARK  status: ('A' for Active; 'I' for Inactive)
REMARK    1  A    between atoms: C_4  and  N_5 
REMARK       I    between atoms: N_5  and  C_6 
REMARK    2  A    between atoms: C_6  and  C_7 
REMARK    3  A    between atoms: C_7  and  N_8 
REMARK       I    between atoms: N_8  and  C_9 
REMARK    4  A    between atoms: C_9  and  C_10 
REMARK    5  A    between atoms: C_10  and  S_11 
REMARK    6  A    between atoms: S_11  and  C_12 
REMARK    7  A    between atoms: C_14  and  C_15 
REMARK    8  A    between atoms: C_27  and  O_28 
ROOT
HETATM    1  N   UNL     1       6.208  27.829  54.809  1.00  0.00    -0.352 N 
HETATM    2  C   UNL     1       7.464  28.366  55.020  1.00  0.00     0.227 C 
HETATM    3  O   UNL     1       8.353  28.256  54.180  1.00  0.00    -0.273 OA
HETATM    4  H   UNL     1       5.434  28.128  55.392  1.00  0.00     0.162 HD
ENDROOT
BRANCH   2   5
HETATM    5  C   UNL     1       7.598  29.060  56.368  1.00  0.00     0.185 C 
BRANCH   5   6
HETATM    6  S   UNL     1       9.311  29.061  56.968  1.00  0.00    -0.081 SA
BRANCH   6   7
HETATM    7  C   UNL     1       9.210  30.316  58.136  1.00  0.00     0.185 A 
HETATM    8  N   UNL     1       8.382  30.426  59.141  1.00  0.00    -0.201 NA
HETATM    9  C   UNL     1       8.766  31.606  59.747  1.00  0.00     0.185 A 
HETATM   10  N   UNL     1       9.804  32.211  59.137  1.00  0.00    -0.152 NA
HETATM   11  N   UNL     1      10.060  31.370  58.119  1.00  0.00    -0.253 N 
HETATM   12  H   UNL     1      10.812  31.568  57.472  1.00  0.00     0.191 HD
BRANCH   9  13
HETATM   13  C   UNL     1       8.115  32.134  60.941  1.00  0.00     0.052 A 
HETATM   14  C   UNL     1       6.872  32.774  60.878  1.00  0.00     0.130 A 
HETATM   15  F   UNL     1       6.226  32.934  59.714  1.00  0.00    -0.205 F 
HETATM   16  C   UNL     1       6.257  33.274  62.028  1.00  0.00     0.043 A 
HETATM   17  C   UNL     1       6.879  33.142  63.268  1.00  0.00     0.003 A 
HETATM   18  C   UNL     1       8.117  32.509  63.353  1.00  0.00     0.001 A 
HETATM   19  C   UNL     1       8.730  32.009  62.200  1.00  0.00     0.018 A 
ENDBRANCH   9  13
ENDBRANCH   6   7
ENDBRANCH   5   6
ENDBRANCH   2   5
BRANCH   1  20
HETATM   20  C   UNL     1       5.890  27.144  53.569  1.00  0.00     0.225 C 
BRANCH  20  21
HETATM   21  C   UNL     1       5.890  25.627  53.771  1.00  0.00     0.239 C 
HETATM   22  N   UNL     1       7.144  25.132  54.064  1.00  0.00    -0.323 N 
HETATM   23  H   UNL     1       7.933  25.782  53.996  1.00  0.00     0.169 HD
HETATM   24  O   UNL     1       4.860  24.977  53.615  1.00  0.00    -0.271 OA
BRANCH  22  25
HETATM   25  C   UNL     1       7.515  23.803  54.368  1.00  0.00     0.069 A 
HETATM   26  C   UNL     1       7.745  22.827  53.394  1.00  0.00     0.039 A 
HETATM   27  C   UNL     1       8.106  21.521  53.759  1.00  0.00    -0.060 A 
HETATM   28  C   UNL     1       8.312  20.473  52.705  1.00  0.00     0.048 C 
HETATM   29  C   UNL     1       8.210  21.196  55.113  1.00  0.00     0.009 A 
HETATM   30  C   UNL     1       7.978  22.161  56.096  1.00  0.00     0.039 A 
HETATM   31  C   UNL     1       7.629  23.463  55.732  1.00  0.00     0.095 A 
BRANCH  31  32
HETATM   32  O   UNL     1       7.369  24.484  56.616  1.00  0.00    -0.354 OA
HETATM   33  C   UNL     1       8.458  24.970  57.389  1.00  0.00     0.210 C 
ENDBRANCH  31  32
ENDBRANCH  22  25
ENDBRANCH  20  21
ENDBRANCH   1  20
TORSDOF 8
ENDMDL
MODEL 4
REMARK VINA RESULT:      -9.8      1.585      2.619
REMARK  8 active torsions:
REMARK  status: ('A' for Active; 'I' for Inactive)
REMARK    1  A    between atoms: C_4  and  N_5 
REMARK       I    between atoms: N_5  and  C_6 
REMARK    2  A    between atoms: C_6  and  C_7 
REMARK    3  A    between atoms: C_7  and  N_8 
REMARK       I    between atoms: N_8  and  C_9 
REMARK    4  A    between atoms: C_9  and  C_10 
REMARK    5  A    between atoms: C_10  and  S_11 
REMARK    6  A    between atoms: S_11  and  C_12 
REMARK    7  A    between atoms: C_14  and  C_15 
REMARK    8  A    between atoms: C_27  and  O_28 
ROOT
HETATM    1  N   UNL     1       5.412  29.506  57.231  1.00  0.00    -0.352 N 
HETATM    2  C   UNL     1       4.754  28.568  56.457  1.00  0.00     0.227 C 
HETATM    3  O   UNL     1       3.761  28.868  55.800  1.00  0.00    -0.273 OA
HETATM    4  H   UNL     1       6.347  29.306  57.568  1.00  0.00     0.162 HD
ENDROOT
BRANCH   2   5
HETATM    5  C   UNL     1       5.380  27.183  56.537  1.00  0.00     0.185 C 
BRANCH   5   6
HETATM    6  S   UNL     1       6.986  27.206  57.380  1.00  0.00    -0.081 SA
BRANCH   6   7
HETATM    7  C   UNL     1       7.533  25.621  57.011  1.00  0.00     0.185 A 
HETATM    8  N   UNL     1       7.295  24.907  55.943  1.00  0.00    -0.201 NA
HETATM    9  C   UNL     1       7.993  23.738  56.174  1.00  0.00     0.185 A 
HETATM   10  N   UNL     1       8.646  23.726  57.353  1.00  0.00    -0.152 NA
HETATM   11  N   UNL     1       8.333  24.931  57.859  1.00  0.00    -0.253 N 
HETATM   12  H   UNL     1       8.694  25.215  58.761  1.00  0.00     0.191 HD
BRANCH   9  13
HETATM   13  C   UNL     1       8.025  22.631  55.224  1.00  0.00     0.052 A 
HETATM   14  C   UNL     1       8.078  21.299  55.650  1.00  0.00     0.130 A 
HETATM   15  F   UNL     1       8.104  20.981  56.953  1.00  0.00    -0.205 F 
HETATM   16  C   UNL     1       8.106  20.247  54.732  1.00  0.00     0.043 A 
HETATM   17  C   UNL     1       8.083  20.511  53.364  1.00  0.00     0.003 A 
HETATM   18  C   UNL     1       8.033  21.830  52.919  1.00  0.00     0.001 A 
HETATM   19  C   UNL     1       8.004  22.881  53.841  1.00  0.00     0.018 A 
ENDBRANCH   9  13
ENDBRANCH   6   7
ENDBRANCH   5   6
ENDBRANCH   2   5
BRANCH   1  20
HETATM   20  C   UNL     1       4.967  30.887  57.264  1.00  0.00     0.225 C 
BRANCH  20  21
HETATM   21  C   UNL     1       5.849  31.719  58.197  1.00  0.00     0.239 C 
HETATM   22  N   UNL     1       6.617  30.938  59.036  1.00  0.00    -0.323 N 
HETATM   23  H   UNL     1       6.435  29.931  59.037  1.00  0.00     0.169 HD
HETATM   24  O   UNL     1       5.786  32.945  58.186  1.00  0.00    -0.271 OA
BRANCH  22  25
HETATM   25  C   UNL     1       7.583  31.351  59.982  1.00  0.00     0.069 A 
HETATM   26  C   UNL     1       7.263  31.762  61.279  1.00  0.00     0.039 A 
HETATM   27  C   UNL     1       8.268  32.167  62.171  1.00  0.00    -0.060 A 
HETATM   28  C   UNL     1       7.908  32.643  63.547  1.00  0.00     0.048 C 
HETATM   29  C   UNL     1       9.596  32.180  61.741  1.00  0.00     0.009 A 
HETATM   30  C   UNL     1       9.929  31.775  60.445  1.00  0.00     0.039 A 
HETATM   31  C   UNL     1       8.929  31.363  59.561  1.00  0.00     0.095 A 
BRANCH  31  32
HETATM   32  O   UNL     1       9.144  30.957  58.265  1.00  0.00    -0.354 OA
HETATM   33  C   UNL     1      10.476  31.023  57.774  1.00  0.00     0.210 C 
ENDBRANCH  31  32
ENDBRANCH  22  25
ENDBRANCH  20  21
ENDBRANCH   1  20
TORSDOF 8
ENDMDL
MODEL 5
REMARK VINA RESULT:      -9.7      3.158     10.370
REMARK  8 active torsions:
REMARK  status: ('A' for Active; 'I' for Inactive)
REMARK    1  A    between atoms: C_4  and  N_5 
REMARK       I    between atoms: N_5  and  C_6 
REMARK    2  A    between atoms: C_6  and  C_7 
REMARK    3  A    between atoms: C_7  and  N_8 
REMARK       I    between atoms: N_8  and  C_9 
REMARK    4  A    between atoms: C_9  and  C_10 
REMARK    5  A    between atoms: C_10  and  S_11 
REMARK    6  A    between atoms: S_11  and  C_12 
REMARK    7  A    between atoms: C_14  and  C_15 
REMARK    8  A    between atoms: C_27  and  O_28 
ROOT
HETATM    1  N   UNL     1       7.143  27.630  55.059  1.00  0.00    -0.352 N 
HETATM    2  C   UNL     1       6.379  27.605  56.211  1.00  0.00     0.227 C 
HETATM    3  O   UNL     1       5.229  27.176  56.203  1.00  0.00    -0.273 OA
HETATM    4  H   UNL     1       8.146  27.759  55.130  1.00  0.00     0.162 HD
ENDROOT
BRANCH   2   5
HETATM    5  C   UNL     1       7.108  28.168  57.423  1.00  0.00     0.185 C 
BRANCH   5   6
HETATM    6  S   UNL     1       8.722  28.870  56.985  1.00  0.00    -0.081 SA
BRANCH   6   7
HETATM    7  C   UNL     1       8.796  30.162  58.114  1.00  0.00     0.185 A 
HETATM    8  N   UNL     1       8.058  30.356  59.175  1.00  0.00    -0.201 NA
HETATM    9  C   UNL     1       8.565  31.525  59.709  1.00  0.00     0.185 A 
HETATM   10  N   UNL     1       9.588  32.041  59.001  1.00  0.00    -0.152 NA
HETATM   11  N   UNL     1       9.708  31.156  57.996  1.00  0.00    -0.253 N 
HETATM   12  H   UNL     1      10.418  31.283  57.286  1.00  0.00     0.191 HD
BRANCH   9  13
HETATM   13  C   UNL     1       8.045  32.130  60.931  1.00  0.00     0.052 A 
HETATM   14  C   UNL     1       8.639  31.898  62.177  1.00  0.00     0.130 A 
HETATM   15  F   UNL     1       9.712  31.103  62.303  1.00  0.00    -0.205 F 
HETATM   16  C   UNL     1       8.135  32.485  63.340  1.00  0.00     0.043 A 
HETATM   17  C   UNL     1       7.020  33.318  63.275  1.00  0.00     0.003 A 
HETATM   18  C   UNL     1       6.413  33.563  62.045  1.00  0.00     0.001 A 
HETATM   19  C   UNL     1       6.921  32.973  60.883  1.00  0.00     0.018 A 
ENDBRANCH   9  13
ENDBRANCH   6   7
ENDBRANCH   5   6
ENDBRANCH   2   5
BRANCH   1  20
HETATM   20  C   UNL     1       6.619  27.116  53.807  1.00  0.00     0.225 C 
BRANCH  20  21
HETATM   21  C   UNL     1       6.452  25.597  53.871  1.00  0.00     0.239 C 
HETATM   22  N   UNL     1       7.607  24.953  54.264  1.00  0.00    -0.323 N 
HETATM   23  H   UNL     1       8.455  25.521  54.349  1.00  0.00     0.169 HD
HETATM   24  O   UNL     1       5.394  25.071  53.537  1.00  0.00    -0.271 OA
BRANCH  22  25
HETATM   25  C   UNL     1       7.811  23.573  54.489  1.00  0.00     0.069 A 
HETATM   26  C   UNL     1       7.985  22.643  53.459  1.00  0.00     0.039 A 
HETATM   27  C   UNL     1       8.179  21.284  53.747  1.00  0.00    -0.060 A 
HETATM   28  C   UNL     1       8.325  20.291  52.631  1.00  0.00     0.048 C 
HETATM   29  C   UNL     1       8.170  20.860  55.077  1.00  0.00     0.009 A 
HETATM   30  C   UNL     1       7.992  21.779  56.115  1.00  0.00     0.039 A 
HETATM   31  C   UNL     1       7.810  23.133  55.829  1.00  0.00     0.095 A 
BRANCH  31  32
HETATM   32  O   UNL     1       7.616  24.116  56.771  1.00  0.00    -0.354 OA
HETATM   33  C   UNL     1       8.749  24.532  57.522  1.00  0.00     0.210 C 
ENDBRANCH  31  32
ENDBRANCH  22  25
ENDBRANCH  20  21
ENDBRANCH   1  20
TORSDOF 8
ENDMDL
MODEL 6
REMARK VINA RESULT:      -9.4      1.939      2.938
REMARK  8 active torsions:
REMARK  status: ('A' for Active; 'I' for Inactive)
REMARK    1  A    between atoms: C_4  and  N_5 
REMARK       I    between atoms: N_5  and  C_6 
REMARK    2  A    between atoms: C_6  and  C_7 
REMARK    3  A    between atoms: C_7  and  N_8 
REMARK       I    between atoms: N_8  and  C_9 
REMARK    4  A    between atoms: C_9  and  C_10 
REMARK    5  A    between atoms: C_10  and  S_11 
REMARK    6  A    between atoms: S_11  and  C_12 
REMARK    7  A    between atoms: C_14  and  C_15 
REMARK    8  A    between atoms: C_27  and  O_28 
ROOT
HETATM    1  N   UNL     1       4.594  30.014  58.024  1.00  0.00    -0.352 N 
HETATM    2  C   UNL     1       5.557  29.602  57.122  1.00  0.00     0.227 C 
HETATM    3  O   UNL     1       6.113  30.402  56.374  1.00  0.00    -0.273 OA
HETATM    4  H   UNL     1       4.325  29.396  58.782  1.00  0.00     0.162 HD
ENDROOT
BRANCH   2   5
HETATM    5  C   UNL     1       5.813  28.102  57.164  1.00  0.00     0.185 C 
BRANCH   5   6
HETATM    6  S   UNL     1       7.481  27.677  56.591  1.00  0.00    -0.081 SA
BRANCH   6   7
HETATM    7  C   UNL     1       7.140  26.217  55.754  1.00  0.00     0.185 A 
HETATM    8  N   UNL     1       7.849  25.120  55.712  1.00  0.00    -0.201 NA
HETATM    9  C   UNL     1       7.095  24.280  54.917  1.00  0.00     0.185 A 
HETATM   10  N   UNL     1       5.950  24.839  54.477  1.00  0.00    -0.152 NA
HETATM   11  N   UNL     1       6.010  26.066  55.023  1.00  0.00    -0.253 N 
HETATM   12  H   UNL     1       5.263  26.731  54.866  1.00  0.00     0.191 HD
BRANCH   9  13
HETATM   13  C   UNL     1       7.499  22.915  54.596  1.00  0.00     0.052 A 
HETATM   14  C   UNL     1       7.841  22.536  53.293  1.00  0.00     0.130 A 
HETATM   15  F   UNL     1       7.809  23.413  52.278  1.00  0.00    -0.205 F 
HETATM   16  C   UNL     1       8.229  21.227  52.998  1.00  0.00     0.043 A 
HETATM   17  C   UNL     1       8.280  20.269  54.008  1.00  0.00     0.003 A 
HETATM   18  C   UNL     1       7.942  20.624  55.312  1.00  0.00     0.001 A 
HETATM   19  C   UNL     1       7.555  21.936  55.604  1.00  0.00     0.018 A 
ENDBRANCH   9  13
ENDBRANCH   6   7
ENDBRANCH   5   6
ENDBRANCH   2   5
BRANCH   1  20
HETATM   20  C   UNL     1       4.231  31.415  58.138  1.00  0.00     0.225 C 
BRANCH  20  21
HETATM   21  C   UNL     1       5.259  32.175  58.977  1.00  0.00     0.239 C 
HETATM   22  N   UNL     1       5.462  31.600  60.215  1.00  0.00    -0.323 N 
HETATM   23  H   UNL     1       4.840  30.832  60.483  1.00  0.00     0.169 HD
HETATM   24  O   UNL     1       5.766  33.211  58.555  1.00  0.00    -0.271 OA
BRANCH  22  25
HETATM   25  C   UNL     1       6.370  31.988  61.226  1.00  0.00     0.069 A 
HETATM   26  C   UNL     1       6.033  32.851  62.273  1.00  0.00     0.039 A 
HETATM   27  C   UNL     1       6.982  33.203  63.245  1.00  0.00    -0.060 A 
HETATM   28  C   UNL     1       6.619  34.161  64.342  1.00  0.00     0.048 C 
HETATM   29  C   UNL     1       8.281  32.702  63.142  1.00  0.00     0.009 A 
HETATM   30  C   UNL     1       8.632  31.842  62.098  1.00  0.00     0.039 A 
HETATM   31  C   UNL     1       7.684  31.484  61.137  1.00  0.00     0.095 A 
BRANCH  31  32
HETATM   32  O   UNL     1       7.925  30.657  60.065  1.00  0.00    -0.354 OA
HETATM   33  C   UNL     1       8.776  31.149  59.039  1.00  0.00     0.210 C 
ENDBRANCH  31  32
ENDBRANCH  22  25
ENDBRANCH  20  21
ENDBRANCH   1  20
TORSDOF 8
ENDMDL
MODEL 7
REMARK VINA RESULT:      -9.4      3.132     10.589
REMARK  8 active torsions:
REMARK  status: ('A' for Active; 'I' for Inactive)
REMARK    1  A    between atoms: C_4  and  N_5 
REMARK       I    between atoms: N_5  and  C_6 
REMARK    2  A    between atoms: C_6  and  C_7 
REMARK    3  A    between atoms: C_7  and  N_8 
REMARK       I    between atoms: N_8  and  C_9 
REMARK    4  A    between atoms: C_9  and  C_10 
REMARK    5  A    between atoms: C_10  and  S_11 
REMARK    6  A    between atoms: S_11  and  C_12 
REMARK    7  A    between atoms: C_14  and  C_15 
REMARK    8  A    between atoms: C_27  and  O_28 
ROOT
HETATM    1  N   UNL     1       6.914  28.362  57.545  1.00  0.00    -0.352 N 
HETATM    2  C   UNL     1       6.187  29.533  57.655  1.00  0.00     0.227 C 
HETATM    3  O   UNL     1       4.979  29.556  57.435  1.00  0.00    -0.273 OA
HETATM    4  H   UNL     1       7.840  28.311  57.954  1.00  0.00     0.162 HD
ENDROOT
BRANCH   2   5
HETATM    5  C   UNL     1       7.040  30.730  58.048  1.00  0.00     0.185 C 
BRANCH   5   6
HETATM    6  S   UNL     1       8.648  30.232  58.726  1.00  0.00    -0.081 SA
BRANCH   6   7
HETATM    7  C   UNL     1       8.413  30.650  60.375  1.00  0.00     0.185 A 
HETATM    8  N   UNL     1       7.628  31.566  60.876  1.00  0.00    -0.201 NA
HETATM    9  C   UNL     1       7.825  31.449  62.238  1.00  0.00     0.185 A 
HETATM   10  N   UNL     1       8.707  30.487  62.573  1.00  0.00    -0.152 NA
HETATM   11  N   UNL     1       9.063  30.002  61.371  1.00  0.00    -0.253 N 
HETATM   12  H   UNL     1       9.731  29.245  61.303  1.00  0.00     0.191 HD
BRANCH   9  13
HETATM   13  C   UNL     1       7.132  32.282  63.215  1.00  0.00     0.052 A 
HETATM   14  C   UNL     1       5.735  32.327  63.284  1.00  0.00     0.130 A 
HETATM   15  F   UNL     1       4.969  31.609  62.449  1.00  0.00    -0.205 F 
HETATM   16  C   UNL     1       5.082  33.126  64.225  1.00  0.00     0.043 A 
HETATM   17  C   UNL     1       5.821  33.899  65.119  1.00  0.00     0.003 A 
HETATM   18  C   UNL     1       7.213  33.869  65.068  1.00  0.00     0.001 A 
HETATM   19  C   UNL     1       7.863  33.068  64.124  1.00  0.00     0.018 A 
ENDBRANCH   9  13
ENDBRANCH   6   7
ENDBRANCH   5   6
ENDBRANCH   2   5
BRANCH   1  20
HETATM   20  C   UNL     1       6.263  27.112  57.196  1.00  0.00     0.225 C 
BRANCH  20  21
HETATM   21  C   UNL     1       7.291  26.071  56.748  1.00  0.00     0.239 C 
HETATM   22  N   UNL     1       6.724  25.047  56.019  1.00  0.00    -0.323 N 
HETATM   23  H   UNL     1       5.702  25.021  55.962  1.00  0.00     0.169 HD
HETATM   24  O   UNL     1       8.467  26.171  57.087  1.00  0.00    -0.271 OA
BRANCH  22  25
HETATM   25  C   UNL     1       7.365  23.951  55.398  1.00  0.00     0.069 A 
HETATM   26  C   UNL     1       7.872  22.855  56.103  1.00  0.00     0.039 A 
HETATM   27  C   UNL     1       8.503  21.799  55.429  1.00  0.00    -0.060 A 
HETATM   28  C   UNL     1       9.077  20.647  56.201  1.00  0.00     0.048 C 
HETATM   29  C   UNL     1       8.646  21.864  54.041  1.00  0.00     0.009 A 
HETATM   30  C   UNL     1       8.149  22.957  53.326  1.00  0.00     0.039 A 
HETATM   31  C   UNL     1       7.511  24.002  53.996  1.00  0.00     0.095 A 
BRANCH  31  32
HETATM   32  O   UNL     1       6.996  25.125  53.392  1.00  0.00    -0.354 OA
HETATM   33  C   UNL     1       7.293  25.319  52.015  1.00  0.00     0.210 C 
ENDBRANCH  31  32
ENDBRANCH  22  25
ENDBRANCH  20  21
ENDBRANCH   1  20
TORSDOF 8
ENDMDL
MODEL 8
REMARK VINA RESULT:      -9.3      2.249      3.416
REMARK  8 active torsions:
REMARK  status: ('A' for Active; 'I' for Inactive)
REMARK    1  A    between atoms: C_4  and  N_5 
REMARK       I    between atoms: N_5  and  C_6 
REMARK    2  A    between atoms: C_6  and  C_7 
REMARK    3  A    between atoms: C_7  and  N_8 
REMARK       I    between atoms: N_8  and  C_9 
REMARK    4  A    between atoms: C_9  and  C_10 
REMARK    5  A    between atoms: C_10  and  S_11 
REMARK    6  A    between atoms: S_11  and  C_12 
REMARK    7  A    between atoms: C_14  and  C_15 
REMARK    8  A    between atoms: C_27  and  O_28 
ROOT
HETATM    1  N   UNL     1       6.171  29.492  55.371  1.00  0.00    -0.352 N 
HETATM    2  C   UNL     1       5.383  28.593  54.678  1.00  0.00     0.227 C 
HETATM    3  O   UNL     1       4.260  28.292  55.075  1.00  0.00    -0.273 OA
HETATM    4  H   UNL     1       6.978  29.902  54.913  1.00  0.00     0.162 HD
ENDROOT
BRANCH   2   5
HETATM    5  C   UNL     1       6.061  28.039  53.433  1.00  0.00     0.185 C 
BRANCH   5   6
HETATM    6  S   UNL     1       5.150  26.639  52.723  1.00  0.00    -0.081 SA
BRANCH   6   7
HETATM    7  C   UNL     1       6.282  25.379  53.006  1.00  0.00     0.185 A 
HETATM    8  N   UNL     1       6.264  24.467  53.942  1.00  0.00    -0.201 NA
HETATM    9  C   UNL     1       7.394  23.716  53.680  1.00  0.00     0.185 A 
HETATM   10  N   UNL     1       8.093  24.150  52.612  1.00  0.00    -0.152 NA
HETATM   11  N   UNL     1       7.363  25.206  52.210  1.00  0.00    -0.253 N 
HETATM   12  H   UNL     1       7.649  25.745  51.403  1.00  0.00     0.191 HD
BRANCH   9  13
HETATM   13  C   UNL     1       7.781  22.559  54.479  1.00  0.00     0.052 A 
HETATM   14  C   UNL     1       7.977  21.299  53.902  1.00  0.00     0.130 A 
HETATM   15  F   UNL     1       7.813  21.099  52.585  1.00  0.00    -0.205 F 
HETATM   16  C   UNL     1       8.350  20.198  54.676  1.00  0.00     0.043 A 
HETATM   17  C   UNL     1       8.534  20.339  56.050  1.00  0.00     0.003 A 
HETATM   18  C   UNL     1       8.343  21.584  56.645  1.00  0.00     0.001 A 
HETATM   19  C   UNL     1       7.969  22.684  55.867  1.00  0.00     0.018 A 
ENDBRANCH   9  13
ENDBRANCH   6   7
ENDBRANCH   5   6
ENDBRANCH   2   5
BRANCH   1  20
HETATM   20  C   UNL     1       5.681  30.137  56.575  1.00  0.00     0.225 C 
BRANCH  20  21
HETATM   21  C   UNL     1       6.693  29.998  57.715  1.00  0.00     0.239 C 
HETATM   22  N   UNL     1       7.025  31.213  58.279  1.00  0.00    -0.323 N 
HETATM   23  H   UNL     1       6.674  32.056  57.817  1.00  0.00     0.169 HD
HETATM   24  O   UNL     1       7.161  28.900  58.002  1.00  0.00    -0.271 OA
BRANCH  22  25
HETATM   25  C   UNL     1       7.874  31.467  59.379  1.00  0.00     0.069 A 
HETATM   26  C   UNL     1       7.404  31.717  60.672  1.00  0.00     0.039 A 
HETATM   27  C   UNL     1       8.298  31.968  61.724  1.00  0.00    -0.060 A 
HETATM   28  C   UNL     1       7.779  32.273  63.098  1.00  0.00     0.048 C 
HETATM   29  C   UNL     1       9.670  31.992  61.462  1.00  0.00     0.009 A 
HETATM   30  C   UNL     1      10.152  31.749  60.173  1.00  0.00     0.039 A 
HETATM   31  C   UNL     1       9.262  31.489  59.129  1.00  0.00     0.095 A 
BRANCH  31  32
HETATM   32  O   UNL     1       9.628  31.248  57.826  1.00  0.00    -0.354 OA
HETATM   33  C   UNL     1      10.845  30.545  57.609  1.00  0.00     0.210 C 
ENDBRANCH  31  32
ENDBRANCH  22  25
ENDBRANCH  20  21
ENDBRANCH   1  20
TORSDOF 8
ENDMDL
MODEL 9
REMARK VINA RESULT:      -9.2      2.778      4.011
REMARK  8 active torsions:
REMARK  status: ('A' for Active; 'I' for Inactive)
REMARK    1  A    between atoms: C_4  and  N_5 
REMARK       I    between atoms: N_5  and  C_6 
REMARK    2  A    between atoms: C_6  and  C_7 
REMARK    3  A    between atoms: C_7  and  N_8 
REMARK       I    between atoms: N_8  and  C_9 
REMARK    4  A    between atoms: C_9  and  C_10 
REMARK    5  A    between atoms: C_10  and  S_11 
REMARK    6  A    between atoms: S_11  and  C_12 
REMARK    7  A    between atoms: C_14  and  C_15 
REMARK    8  A    between atoms: C_27  and  O_28 
ROOT
HETATM    1  N   UNL     1       4.251  30.838  58.696  1.00  0.00    -0.352 N 
HETATM    2  C   UNL     1       3.837  30.460  57.432  1.00  0.00     0.227 C 
HETATM    3  O   UNL     1       2.816  30.922  56.932  1.00  0.00    -0.273 OA
HETATM    4  H   UNL     1       5.200  30.635  58.989  1.00  0.00     0.162 HD
ENDROOT
BRANCH   2   5
HETATM    5  C   UNL     1       4.757  29.436  56.783  1.00  0.00     0.185 C 
BRANCH   5   6
HETATM    6  S   UNL     1       4.551  29.376  54.981  1.00  0.00    -0.081 SA
BRANCH   6   7
HETATM    7  C   UNL     1       5.783  28.249  54.583  1.00  0.00     0.185 A 
HETATM    8  N   UNL     1       5.733  26.944  54.620  1.00  0.00    -0.201 NA
HETATM    9  C   UNL     1       6.985  26.561  54.182  1.00  0.00     0.185 A 
HETATM   10  N   UNL     1       7.791  27.599  53.880  1.00  0.00    -0.152 NA
HETATM   11  N   UNL     1       7.000  28.653  54.147  1.00  0.00    -0.253 N 
HETATM   12  H   UNL     1       7.343  29.595  54.008  1.00  0.00     0.191 HD
BRANCH   9  13
HETATM   13  C   UNL     1       7.388  25.165  54.048  1.00  0.00     0.052 A 
HETATM   14  C   UNL     1       7.591  24.574  52.796  1.00  0.00     0.130 A 
HETATM   15  F   UNL     1       7.419  25.267  51.660  1.00  0.00    -0.205 F 
HETATM   16  C   UNL     1       7.978  23.237  52.680  1.00  0.00     0.043 A 
HETATM   17  C   UNL     1       8.170  22.463  53.822  1.00  0.00     0.003 A 
HETATM   18  C   UNL     1       7.973  23.031  55.079  1.00  0.00     0.001 A 
HETATM   19  C   UNL     1       7.585  24.370  55.191  1.00  0.00     0.018 A 
ENDBRANCH   9  13
ENDBRANCH   6   7
ENDBRANCH   5   6
ENDBRANCH   2   5
BRANCH   1  20
HETATM   20  C   UNL     1       3.506  31.821  59.460  1.00  0.00     0.225 C 
BRANCH  20  21
HETATM   21  C   UNL     1       4.441  32.635  60.356  1.00  0.00     0.239 C 
HETATM   22  N   UNL     1       4.882  31.920  61.450  1.00  0.00    -0.323 N 
HETATM   23  H   UNL     1       4.459  31.002  61.612  1.00  0.00     0.169 HD
HETATM   24  O   UNL     1       4.683  33.811  60.099  1.00  0.00    -0.271 OA
BRANCH  22  25
HETATM   25  C   UNL     1       5.794  32.321  62.453  1.00  0.00     0.069 A 
HETATM   26  C   UNL     1       5.402  32.926  63.651  1.00  0.00     0.039 A 
HETATM   27  C   UNL     1       6.356  33.307  64.606  1.00  0.00    -0.060 A 
HETATM   28  C   UNL     1       5.926  33.990  65.871  1.00  0.00     0.048 C 
HETATM   29  C   UNL     1       7.711  33.100  64.338  1.00  0.00     0.009 A 
HETATM   30  C   UNL     1       8.116  32.500  63.141  1.00  0.00     0.039 A 
HETATM   31  C   UNL     1       7.165  32.112  62.196  1.00  0.00     0.095 A 
BRANCH  31  32
HETATM   32  O   UNL     1       7.454  31.526  60.986  1.00  0.00    -0.354 OA
HETATM   33  C   UNL     1       8.368  32.204  60.134  1.00  0.00     0.210 C 
ENDBRANCH  31  32
ENDBRANCH  22  25
ENDBRANCH  20  21
ENDBRANCH   1  20
TORSDOF 8
ENDMDL
MODEL 10
REMARK VINA RESULT:      -9.1      2.276      3.293
REMARK  8 active torsions:
REMARK  status: ('A' for Active; 'I' for Inactive)
REMARK    1  A    between atoms: C_4  and  N_5 
REMARK       I    between atoms: N_5  and  C_6 
REMARK    2  A    between atoms: C_6  and  C_7 
REMARK    3  A    between atoms: C_7  and  N_8 
REMARK       I    between atoms: N_8  and  C_9 
REMARK    4  A    between atoms: C_9  and  C_10 
REMARK    5  A    between atoms: C_10  and  S_11 
REMARK    6  A    between atoms: S_11  and  C_12 
REMARK    7  A    between atoms: C_14  and  C_15 
REMARK    8  A    between atoms: C_27  and  O_28 
ROOT
HETATM    1  N   UNL     1       9.004  30.726  59.747  1.00  0.00    -0.352 N 
HETATM    2  C   UNL     1       9.531  30.737  58.469  1.00  0.00     0.227 C 
HETATM    3  O   UNL     1      10.433  31.511  58.159  1.00  0.00    -0.273 OA
HETATM    4  H   UNL     1       8.441  29.937  60.046  1.00  0.00     0.162 HD
ENDROOT
BRANCH   2   5
HETATM    5  C   UNL     1       8.869  29.729  57.541  1.00  0.00     0.185 C 
BRANCH   5   6
HETATM    6  S   UNL     1       7.060  29.758  57.678  1.00  0.00    -0.081 SA
BRANCH   6   7
HETATM    7  C   UNL     1       6.671  28.389  56.718  1.00  0.00     0.185 A 
HETATM    8  N   UNL     1       7.455  27.698  55.934  1.00  0.00    -0.201 NA
HETATM    9  C   UNL     1       6.626  26.712  55.436  1.00  0.00     0.185 A 
HETATM   10  N   UNL     1       5.362  26.790  55.898  1.00  0.00    -0.152 NA
HETATM   11  N   UNL     1       5.423  27.863  56.704  1.00  0.00    -0.253 N 
HETATM   12  H   UNL     1       4.601  28.171  57.208  1.00  0.00     0.191 HD
BRANCH   9  13
HETATM   13  C   UNL     1       7.083  25.682  54.510  1.00  0.00     0.052 A 
HETATM   14  C   UNL     1       7.041  24.323  54.842  1.00  0.00     0.130 A 
HETATM   15  F   UNL     1       6.582  23.908  56.032  1.00  0.00    -0.205 F 
HETATM   16  C   UNL     1       7.479  23.345  53.947  1.00  0.00     0.043 A 
HETATM   17  C   UNL     1       7.969  23.713  52.695  1.00  0.00     0.003 A 
HETATM   18  C   UNL     1       8.021  25.060  52.344  1.00  0.00     0.001 A 
HETATM   19  C   UNL     1       7.581  26.036  53.243  1.00  0.00     0.018 A 
ENDBRANCH   9  13
ENDBRANCH   6   7
ENDBRANCH   5   6
ENDBRANCH   2   5
BRANCH   1  20
HETATM   20  C   UNL     1       9.524  31.609  60.775  1.00  0.00     0.225 C 
BRANCH  20  21
HETATM   21  C   UNL     1       8.639  31.571  62.022  1.00  0.00     0.239 C 
HETATM   22  N   UNL     1       7.994  32.769  62.251  1.00  0.00    -0.323 N 
HETATM   23  H   UNL     1       8.259  33.564  61.662  1.00  0.00     0.169 HD
HETATM   24  O   UNL     1       8.600  30.567  62.728  1.00  0.00    -0.271 OA
BRANCH  22  25
HETATM   25  C   UNL     1       7.061  33.085  63.264  1.00  0.00     0.069 A 
HETATM   26  C   UNL     1       7.430  33.474  64.556  1.00  0.00     0.039 A 
HETATM   27  C   UNL     1       6.456  33.770  65.520  1.00  0.00    -0.060 A 
HETATM   28  C   UNL     1       6.865  34.148  66.914  1.00  0.00     0.048 C 
HETATM   29  C   UNL     1       5.105  33.648  65.186  1.00  0.00     0.009 A 
HETATM   30  C   UNL     1       4.724  33.256  63.900  1.00  0.00     0.039 A 
HETATM   31  C   UNL     1       5.694  32.971  62.937  1.00  0.00     0.095 A 
BRANCH  31  32
HETATM   32  O   UNL     1       5.429  32.569  61.649  1.00  0.00    -0.354 OA
HETATM   33  C   UNL     1       4.924  33.547  60.751  1.00  0.00     0.210 C 
ENDBRANCH  31  32
ENDBRANCH  22  25
ENDBRANCH  20  21
ENDBRANCH   1  20
TORSDOF 8
ENDMDL
