MODEL 1
REMARK VINA RESULT:      -9.9      0.000      0.000
REMARK  7 active torsions:
REMARK  status: ('A' for Active; 'I' for Inactive)
REMARK    1  A    between atoms: O_2  and  C_3 
REMARK    2  A    between atoms: C_6  and  N_7 
REMARK    3  A    between atoms: N_7  and  C_8 
REMARK    4  A    between atoms: C_8  and  C_9 
REMARK       I    between atoms: C_9  and  N_10 
REMARK    5  A    between atoms: N_10  and  N_11 
REMARK       I    between atoms: N_11  and  C_12 
REMARK    6  A    between atoms: C_12  and  C_13 
REMARK    7  A    between atoms: N_15  and  C_16 
ROOT
HETATM    1  N   UNL     1       7.999  28.847  57.879  1.00  0.00    -0.263 N 
HETATM    2  C   UNL     1       6.815  28.478  57.269  1.00  0.00     0.273 C 
HETATM    3  O   UNL     1       5.721  28.890  57.656  1.00  0.00    -0.266 OA
HETATM    4  H   UNL     1       8.813  28.239  57.807  1.00  0.00     0.190 HD
ENDROOT
BRANCH   1   5
HETATM    5  N   UNL     1       7.910  29.577  59.083  1.00  0.00    -0.266 N 
HETATM    6  C   UNL     1       8.969  30.417  59.387  1.00  0.00     0.253 C 
HETATM    7  O   UNL     1       9.891  30.631  58.597  1.00  0.00    -0.270 OA
HETATM    8  H   UNL     1       7.385  29.123  59.829  1.00  0.00     0.190 HD
BRANCH   6   9
HETATM    9  C   UNL     1       8.874  31.059  60.777  1.00  0.00     0.224 C 
BRANCH   9  10
HETATM   10  N   UNL     1       7.501  30.962  61.268  1.00  0.00    -0.381 N 
HETATM   11  H   UNL     1       6.821  30.927  60.509  1.00  0.00     0.160 HD
BRANCH  10  12
HETATM   12  C   UNL     1       7.074  31.655  62.393  1.00  0.00     0.028 A 
HETATM   13  C   UNL     1       8.033  32.314  63.175  1.00  0.00     0.032 A 
HETATM   14  C   UNL     1       7.672  33.132  64.254  1.00  0.00     0.039 A 
HETATM   15  C   UNL     1       6.329  33.333  64.557  1.00  0.00     0.068 A 
HETATM   16  C   UNL     1       5.362  32.690  63.784  1.00  0.00     0.039 A 
HETATM   17  C   UNL     1       5.730  31.872  62.708  1.00  0.00     0.032 A 
BRANCH  15  18
HETATM   18  O   UNL     1       5.838  34.123  65.557  1.00  0.00    -0.356 OA
HETATM   19  C   UNL     1       4.482  33.908  65.930  1.00  0.00     0.210 C 
ENDBRANCH  15  18
ENDBRANCH  10  12
ENDBRANCH   9  10
ENDBRANCH   6   9
ENDBRANCH   1   5
BRANCH   2  20
HETATM   20  C   UNL     1       6.961  27.571  56.149  1.00  0.00     0.070 A 
HETATM   21  C   UNL     1       7.207  26.214  56.231  1.00  0.00     0.137 A 
HETATM   22  N   UNL     1       7.246  25.716  54.948  1.00  0.00    -0.244 N 
HETATM   23  N   UNL     1       7.019  26.697  54.039  1.00  0.00    -0.179 NA
HETATM   24  C   UNL     1       6.857  27.803  54.765  1.00  0.00     0.157 A 
BRANCH  22  25
HETATM   25  C   UNL     1       7.479  24.376  54.533  1.00  0.00     0.059 A 
HETATM   26  C   UNL     1       7.506  23.353  55.495  1.00  0.00     0.055 A 
HETATM   27  C   UNL     1       7.741  22.036  55.102  1.00  0.00     0.036 A 
HETATM   28 CL   UNL     1       7.792  20.787  56.285  1.00  0.00    -0.084 Cl
HETATM   29  C   UNL     1       7.940  21.722  53.760  1.00  0.00     0.024 A 
HETATM   30  C   UNL     1       7.907  22.733  52.800  1.00  0.00     0.004 A 
HETATM   31  C   UNL     1       7.681  24.059  53.182  1.00  0.00     0.031 A 
ENDBRANCH  22  25
ENDBRANCH   2  20
TORSDOF 7
ENDMDL
MODEL 2
REMARK VINA RESULT:      -9.7      1.070      1.503
REMARK  7 active torsions:
REMARK  status: ('A' for Active; 'I' for Inactive)
REMARK    1  A    between atoms: O_2  and  C_3 
REMARK    2  A    between atoms: C_6  and  N_7 
REMARK    3  A    between atoms: N_7  and  C_8 
REMARK    4  A    between atoms: C_8  and  C_9 
REMARK       I    between atoms: C_9  and  N_10 
REMARK    5  A    between atoms: N_10  and  N_11 
REMARK       I    between atoms: N_11  and  C_12 
REMARK    6  A    between atoms: C_12  and  C_13 
REMARK    7  A    between atoms: N_15  and  C_16 
ROOT
HETATM    1  N   UNL     1       7.571  28.407  57.916  1.00  0.00    -0.263 N 
HETATM    2  C   UNL     1       7.248  28.464  56.573  1.00  0.00     0.273 C 
HETATM    3  O   UNL     1       6.874  29.504  56.031  1.00  0.00    -0.266 OA
HETATM    4  H   UNL     1       7.509  27.519  58.412  1.00  0.00     0.190 HD
ENDROOT
BRANCH   1   5
HETATM    5  N   UNL     1       7.288  29.545  58.701  1.00  0.00    -0.266 N 
HETATM    6  C   UNL     1       8.371  30.216  59.246  1.00  0.00     0.253 C 
HETATM    7  O   UNL     1       9.536  29.928  58.965  1.00  0.00    -0.270 OA
HETATM    8  H   UNL     1       6.397  29.521  59.195  1.00  0.00     0.190 HD
BRANCH   6   9
HETATM    9  C   UNL     1       7.981  31.345  60.208  1.00  0.00     0.224 C 
BRANCH   9  10
HETATM   10  N   UNL     1       7.601  30.779  61.500  1.00  0.00    -0.381 N 
HETATM   11  H   UNL     1       7.114  29.888  61.404  1.00  0.00     0.160 HD
BRANCH  10  12
HETATM   12  C   UNL     1       7.145  31.574  62.544  1.00  0.00     0.028 A 
HETATM   13  C   UNL     1       8.078  32.339  63.257  1.00  0.00     0.032 A 
HETATM   14  C   UNL     1       7.686  33.256  64.241  1.00  0.00     0.039 A 
HETATM   15  C   UNL     1       6.335  33.448  64.514  1.00  0.00     0.068 A 
HETATM   16  C   UNL     1       5.393  32.699  63.809  1.00  0.00     0.039 A 
HETATM   17  C   UNL     1       5.793  31.784  62.827  1.00  0.00     0.032 A 
BRANCH  15  18
HETATM   18  O   UNL     1       5.813  34.324  65.423  1.00  0.00    -0.356 OA
HETATM   19  C   UNL     1       4.654  33.896  66.127  1.00  0.00     0.210 C 
ENDBRANCH  15  18
ENDBRANCH  10  12
ENDBRANCH   9  10
ENDBRANCH   6   9
ENDBRANCH   1   5
BRANCH   2  20
HETATM   20  C   UNL     1       7.379  27.210  55.859  1.00  0.00     0.070 A 
HETATM   21  C   UNL     1       7.630  25.976  56.428  1.00  0.00     0.137 A 
HETATM   22  N   UNL     1       7.650  25.044  55.415  1.00  0.00    -0.244 N 
HETATM   23  N   UNL     1       7.406  25.626  54.213  1.00  0.00    -0.179 NA
HETATM   24  C   UNL     1       7.252  26.921  54.488  1.00  0.00     0.157 A 
BRANCH  22  25
HETATM   25  C   UNL     1       7.880  23.644  55.513  1.00  0.00     0.059 A 
HETATM   26  C   UNL     1       7.809  22.853  54.354  1.00  0.00     0.055 A 
HETATM   27  C   UNL     1       8.024  21.478  54.438  1.00  0.00     0.036 A 
HETATM   28 CL   UNL     1       7.918  20.509  53.019  1.00  0.00    -0.084 Cl
HETATM   29  C   UNL     1       8.322  20.881  55.660  1.00  0.00     0.024 A 
HETATM   30  C   UNL     1       8.402  21.662  56.812  1.00  0.00     0.004 A 
HETATM   31  C   UNL     1       8.178  23.041  56.744  1.00  0.00     0.031 A 
ENDBRANCH  22  25
ENDBRANCH   2  20
TORSDOF 7
ENDMDL
MODEL 3
REMARK VINA RESULT:      -9.5      3.842     11.026
REMARK  7 active torsions:
REMARK  status: ('A' for Active; 'I' for Inactive)
REMARK    1  A    between atoms: O_2  and  C_3 
REMARK    2  A    between atoms: C_6  and  N_7 
REMARK    3  A    between atoms: N_7  and  C_8 
REMARK    4  A    between atoms: C_8  and  C_9 
REMARK       I    between atoms: C_9  and  N_10 
REMARK    5  A    between atoms: N_10  and  N_11 
REMARK       I    between atoms: N_11  and  C_12 
REMARK    6  A    between atoms: C_12  and  C_13 
REMARK    7  A    between atoms: N_15  and  C_16 
ROOT
HETATM    1  N   UNL     1       8.021  29.762  56.026  1.00  0.00    -0.263 N 
HETATM    2  C   UNL     1       8.754  29.362  57.129  1.00  0.00     0.273 C 
HETATM    3  O   UNL     1       9.234  28.232  57.221  1.00  0.00    -0.266 OA
HETATM    4  H   UNL     1       7.342  30.516  56.121  1.00  0.00     0.190 HD
ENDROOT
BRANCH   1   5
HETATM    5  N   UNL     1       7.683  28.776  55.076  1.00  0.00    -0.266 N 
HETATM    6  C   UNL     1       6.377  28.314  55.089  1.00  0.00     0.253 C 
HETATM    7  O   UNL     1       5.504  28.819  55.798  1.00  0.00    -0.270 OA
HETATM    8  H   UNL     1       8.445  28.155  54.804  1.00  0.00     0.190 HD
BRANCH   6   9
HETATM    9  C   UNL     1       6.124  27.139  54.135  1.00  0.00     0.224 C 
BRANCH   9  10
HETATM   10  N   UNL     1       7.397  26.517  53.777  1.00  0.00    -0.381 N 
HETATM   11  H   UNL     1       7.832  26.963  52.969  1.00  0.00     0.160 HD
BRANCH  10  12
HETATM   12  C   UNL     1       7.587  25.143  53.847  1.00  0.00     0.028 A 
HETATM   13  C   UNL     1       7.276  24.487  55.045  1.00  0.00     0.032 A 
HETATM   14  C   UNL     1       7.324  23.090  55.158  1.00  0.00     0.039 A 
HETATM   15  C   UNL     1       7.661  22.314  54.053  1.00  0.00     0.068 A 
HETATM   16  C   UNL     1       7.967  22.952  52.852  1.00  0.00     0.039 A 
HETATM   17  C   UNL     1       7.918  24.348  52.746  1.00  0.00     0.032 A 
BRANCH  15  18
HETATM   18  O   UNL     1       7.720  20.950  54.015  1.00  0.00    -0.356 OA
HETATM   19  C   UNL     1       8.475  20.375  52.956  1.00  0.00     0.210 C 
ENDBRANCH  15  18
ENDBRANCH  10  12
ENDBRANCH   9  10
ENDBRANCH   6   9
ENDBRANCH   1   5
BRANCH   2  20
HETATM   20  C   UNL     1       8.906  30.367  58.160  1.00  0.00     0.070 A 
HETATM   21  C   UNL     1       8.033  30.593  59.207  1.00  0.00     0.137 A 
HETATM   22  N   UNL     1       8.554  31.610  59.975  1.00  0.00    -0.244 N 
HETATM   23  N   UNL     1       9.738  32.041  59.473  1.00  0.00    -0.179 NA
HETATM   24  C   UNL     1       9.937  31.297  58.385  1.00  0.00     0.157 A 
BRANCH  22  25
HETATM   25  C   UNL     1       8.005  32.193  61.150  1.00  0.00     0.059 A 
HETATM   26  C   UNL     1       6.829  32.956  61.054  1.00  0.00     0.055 A 
HETATM   27  C   UNL     1       6.285  33.539  62.196  1.00  0.00     0.036 A 
HETATM   28 CL   UNL     1       4.854  34.489  62.073  1.00  0.00    -0.084 Cl
HETATM   29  C   UNL     1       6.890  33.365  63.439  1.00  0.00     0.024 A 
HETATM   30  C   UNL     1       8.053  32.603  63.541  1.00  0.00     0.004 A 
HETATM   31  C   UNL     1       8.615  32.020  62.401  1.00  0.00     0.031 A 
ENDBRANCH  22  25
ENDBRANCH   2  20
TORSDOF 7
ENDMDL
MODEL 4
REMARK VINA RESULT:      -9.3      1.149      1.678
REMARK  7 active torsions:
REMARK  status: ('A' for Active; 'I' for Inactive)
REMARK    1  A    between atoms: O_2  and  C_3 
REMARK    2  A    between atoms: C_6  and  N_7 
REMARK    3  A    between atoms: N_7  and  C_8 
REMARK    4  A    between atoms: C_8  and  C_9 
REMARK       I    between atoms: C_9  and  N_10 
REMARK    5  A    between atoms: N_10  and  N_11 
REMARK       I    between atoms: N_11  and  C_12 
REMARK    6  A    between atoms: C_12  and  C_13 
REMARK    7  A    between atoms: N_15  and  C_16 
ROOT
HETATM    1  N   UNL     1       7.860  28.764  58.232  1.00  0.00    -0.263 N 
HETATM    2  C   UNL     1       6.960  28.031  57.479  1.00  0.00     0.273 C 
HETATM    3  O   UNL     1       5.869  28.485  57.136  1.00  0.00    -0.266 OA
HETATM    4  H   UNL     1       8.549  28.279  58.805  1.00  0.00     0.190 HD
ENDROOT
BRANCH   1   5
HETATM    5  N   UNL     1       7.417  29.997  58.755  1.00  0.00    -0.266 N 
HETATM    6  C   UNL     1       8.392  30.921  59.093  1.00  0.00     0.253 C 
HETATM    7  O   UNL     1       9.585  30.747  58.836  1.00  0.00    -0.270 OA
HETATM    8  H   UNL     1       6.543  29.959  59.277  1.00  0.00     0.190 HD
BRANCH   6   9
HETATM    9  C   UNL     1       7.846  32.171  59.793  1.00  0.00     0.224 C 
BRANCH   9  10
HETATM   10  N   UNL     1       8.261  32.168  61.194  1.00  0.00    -0.381 N 
HETATM   11  H   UNL     1       8.857  31.372  61.419  1.00  0.00     0.160 HD
BRANCH  10  12
HETATM   12  C   UNL     1       7.400  32.549  62.216  1.00  0.00     0.028 A 
HETATM   13  C   UNL     1       6.019  32.466  61.989  1.00  0.00     0.032 A 
HETATM   14  C   UNL     1       5.087  32.716  63.006  1.00  0.00     0.039 A 
HETATM   15  C   UNL     1       5.524  33.028  64.290  1.00  0.00     0.068 A 
HETATM   16  C   UNL     1       6.895  33.107  64.532  1.00  0.00     0.039 A 
HETATM   17  C   UNL     1       7.821  32.858  63.511  1.00  0.00     0.032 A 
BRANCH  15  18
HETATM   18  O   UNL     1       4.730  33.266  65.375  1.00  0.00    -0.356 OA
HETATM   19  C   UNL     1       3.793  34.329  65.257  1.00  0.00     0.210 C 
ENDBRANCH  15  18
ENDBRANCH  10  12
ENDBRANCH   9  10
ENDBRANCH   6   9
ENDBRANCH   1   5
BRANCH   2  20
HETATM   20  C   UNL     1       7.399  26.695  57.132  1.00  0.00     0.070 A 
HETATM   21  C   UNL     1       7.255  26.088  55.899  1.00  0.00     0.137 A 
HETATM   22  N   UNL     1       7.828  24.839  55.977  1.00  0.00    -0.244 N 
HETATM   23  N   UNL     1       8.351  24.619  57.210  1.00  0.00    -0.179 NA
HETATM   24  C   UNL     1       8.083  25.731  57.895  1.00  0.00     0.157 A 
BRANCH  22  25
HETATM   25  C   UNL     1       7.915  23.847  54.962  1.00  0.00     0.059 A 
HETATM   26  C   UNL     1       8.134  22.508  55.326  1.00  0.00     0.055 A 
HETATM   27  C   UNL     1       8.229  21.527  54.341  1.00  0.00     0.036 A 
HETATM   28 CL   UNL     1       8.515  19.890  54.789  1.00  0.00    -0.084 Cl
HETATM   29  C   UNL     1       8.097  21.859  52.995  1.00  0.00     0.024 A 
HETATM   30  C   UNL     1       7.873  23.186  52.628  1.00  0.00     0.004 A 
HETATM   31  C   UNL     1       7.785  24.181  53.606  1.00  0.00     0.031 A 
ENDBRANCH  22  25
ENDBRANCH   2  20
TORSDOF 7
ENDMDL
MODEL 5
REMARK VINA RESULT:      -9.0      1.922      2.853
REMARK  7 active torsions:
REMARK  status: ('A' for Active; 'I' for Inactive)
REMARK    1  A    between atoms: O_2  and  C_3 
REMARK    2  A    between atoms: C_6  and  N_7 
REMARK    3  A    between atoms: N_7  and  C_8 
REMARK    4  A    between atoms: C_8  and  C_9 
REMARK       I    between atoms: C_9  and  N_10 
REMARK    5  A    between atoms: N_10  and  N_11 
REMARK       I    between atoms: N_11  and  C_12 
REMARK    6  A    between atoms: C_12  and  C_13 
REMARK    7  A    between atoms: N_15  and  C_16 
ROOT
HETATM    1  N   UNL     1       6.325  28.484  57.193  1.00  0.00    -0.263 N 
HETATM    2  C   UNL     1       7.401  27.634  57.374  1.00  0.00     0.273 C 
HETATM    3  O   UNL     1       8.279  27.857  58.208  1.00  0.00    -0.266 OA
HETATM    4  H   UNL     1       5.842  28.498  56.296  1.00  0.00     0.190 HD
ENDROOT
BRANCH   1   5
HETATM    5  N   UNL     1       6.351  29.720  57.871  1.00  0.00    -0.266 N 
HETATM    6  C   UNL     1       5.183  30.465  57.863  1.00  0.00     0.253 C 
HETATM    7  O   UNL     1       4.125  30.030  57.404  1.00  0.00    -0.270 OA
HETATM    8  H   UNL     1       7.258  30.186  57.891  1.00  0.00     0.190 HD
BRANCH   6   9
HETATM    9  C   UNL     1       5.331  31.859  58.486  1.00  0.00     0.224 C 
BRANCH   9  10
HETATM   10  N   UNL     1       6.711  32.055  58.926  1.00  0.00    -0.381 N 
HETATM   11  H   UNL     1       7.359  31.421  58.459  1.00  0.00     0.160 HD
BRANCH  10  12
HETATM   12  C   UNL     1       7.027  32.329  60.250  1.00  0.00     0.028 A 
HETATM   13  C   UNL     1       5.989  32.681  61.124  1.00  0.00     0.032 A 
HETATM   14  C   UNL     1       6.206  32.854  62.498  1.00  0.00     0.039 A 
HETATM   15  C   UNL     1       7.474  32.648  63.033  1.00  0.00     0.068 A 
HETATM   16  C   UNL     1       8.515  32.291  62.178  1.00  0.00     0.039 A 
HETATM   17  C   UNL     1       8.292  32.121  60.805  1.00  0.00     0.032 A 
BRANCH  15  18
HETATM   18  O   UNL     1       7.819  32.755  64.351  1.00  0.00    -0.356 OA
HETATM   19  C   UNL     1       7.153  33.761  65.104  1.00  0.00     0.210 C 
ENDBRANCH  15  18
ENDBRANCH  10  12
ENDBRANCH   9  10
ENDBRANCH   6   9
ENDBRANCH   1   5
BRANCH   2  20
HETATM   20  C   UNL     1       7.416  26.472  56.510  1.00  0.00     0.070 A 
HETATM   21  C   UNL     1       7.856  25.209  56.856  1.00  0.00     0.137 A 
HETATM   22  N   UNL     1       7.674  24.388  55.766  1.00  0.00    -0.244 N 
HETATM   23  N   UNL     1       7.120  25.069  54.731  1.00  0.00    -0.179 NA
HETATM   24  C   UNL     1       6.975  26.315  55.183  1.00  0.00     0.157 A 
BRANCH  22  25
HETATM   25  C   UNL     1       7.988  23.007  55.644  1.00  0.00     0.059 A 
HETATM   26  C   UNL     1       8.043  22.424  54.366  1.00  0.00     0.055 A 
HETATM   27  C   UNL     1       8.341  21.069  54.233  1.00  0.00     0.036 A 
HETATM   28 CL   UNL     1       8.389  20.354  52.668  1.00  0.00    -0.084 Cl
HETATM   29  C   UNL     1       8.599  20.287  55.356  1.00  0.00     0.024 A 
HETATM   30  C   UNL     1       8.553  20.861  56.626  1.00  0.00     0.004 A 
HETATM   31  C   UNL     1       8.245  22.217  56.774  1.00  0.00     0.031 A 
ENDBRANCH  22  25
ENDBRANCH   2  20
TORSDOF 7
ENDMDL
MODEL 6
REMARK VINA RESULT:      -8.8      3.865     11.424
REMARK  7 active torsions:
REMARK  status: ('A' for Active; 'I' for Inactive)
REMARK    1  A    between atoms: O_2  and  C_3 
REMARK    2  A    between atoms: C_6  and  N_7 
REMARK    3  A    between atoms: N_7  and  C_8 
REMARK    4  A    between atoms: C_8  and  C_9 
REMARK       I    between atoms: C_9  and  N_10 
REMARK    5  A    between atoms: N_10  and  N_11 
REMARK       I    between atoms: N_11  and  C_12 
REMARK    6  A    between atoms: C_12  and  C_13 
REMARK    7  A    between atoms: N_15  and  C_16 
ROOT
HETATM    1  N   UNL     1       7.388  28.825  57.734  1.00  0.00    -0.263 N 
HETATM    2  C   UNL     1       7.125  30.170  57.920  1.00  0.00     0.273 C 
HETATM    3  O   UNL     1       6.561  30.852  57.065  1.00  0.00    -0.266 OA
HETATM    4  H   UNL     1       8.151  28.386  58.247  1.00  0.00     0.190 HD
ENDROOT
BRANCH   1   5
HETATM    5  N   UNL     1       7.148  28.286  56.453  1.00  0.00    -0.266 N 
HETATM    6  C   UNL     1       5.979  27.561  56.285  1.00  0.00     0.253 C 
HETATM    7  O   UNL     1       5.116  27.489  57.162  1.00  0.00    -0.270 OA
HETATM    8  H   UNL     1       7.983  28.045  55.919  1.00  0.00     0.190 HD
BRANCH   6   9
HETATM    9  C   UNL     1       5.861  26.881  54.916  1.00  0.00     0.224 C 
BRANCH   9  10
HETATM   10  N   UNL     1       7.187  26.475  54.454  1.00  0.00    -0.381 N 
HETATM   11  H   UNL     1       7.542  27.084  53.717  1.00  0.00     0.160 HD
BRANCH  10  12
HETATM   12  C   UNL     1       7.539  25.139  54.317  1.00  0.00     0.028 A 
HETATM   13  C   UNL     1       7.546  24.580  53.031  1.00  0.00     0.032 A 
HETATM   14  C   UNL     1       8.005  23.277  52.793  1.00  0.00     0.039 A 
HETATM   15  C   UNL     1       8.498  22.510  53.845  1.00  0.00     0.068 A 
HETATM   16  C   UNL     1       8.503  23.055  55.129  1.00  0.00     0.039 A 
HETATM   17  C   UNL     1       8.042  24.357  55.359  1.00  0.00     0.032 A 
BRANCH  15  18
HETATM   18  O   UNL     1       8.999  21.243  53.752  1.00  0.00    -0.356 OA
HETATM   19  C   UNL     1       8.340  20.363  52.850  1.00  0.00     0.210 C 
ENDBRANCH  15  18
ENDBRANCH  10  12
ENDBRANCH   9  10
ENDBRANCH   6   9
ENDBRANCH   1   5
BRANCH   2  20
HETATM   20  C   UNL     1       7.569  30.710  59.188  1.00  0.00     0.070 A 
HETATM   21  C   UNL     1       6.867  31.597  59.982  1.00  0.00     0.137 A 
HETATM   22  N   UNL     1       7.620  31.836  61.110  1.00  0.00    -0.244 N 
HETATM   23  N   UNL     1       8.776  31.127  61.082  1.00  0.00    -0.179 NA
HETATM   24  C   UNL     1       8.740  30.462  59.928  1.00  0.00     0.157 A 
BRANCH  22  25
HETATM   25  C   UNL     1       7.313  32.688  62.206  1.00  0.00     0.059 A 
HETATM   26  C   UNL     1       6.437  33.770  62.012  1.00  0.00     0.055 A 
HETATM   27  C   UNL     1       6.134  34.617  63.077  1.00  0.00     0.036 A 
HETATM   28 CL   UNL     1       5.076  35.952  62.832  1.00  0.00    -0.084 Cl
HETATM   29  C   UNL     1       6.682  34.395  64.338  1.00  0.00     0.024 A 
HETATM   30  C   UNL     1       7.546  33.318  64.538  1.00  0.00     0.004 A 
HETATM   31  C   UNL     1       7.866  32.466  63.476  1.00  0.00     0.031 A 
ENDBRANCH  22  25
ENDBRANCH   2  20
TORSDOF 7
ENDMDL
MODEL 7
REMARK VINA RESULT:      -8.5      2.265      2.780
REMARK  7 active torsions:
REMARK  status: ('A' for Active; 'I' for Inactive)
REMARK    1  A    between atoms: O_2  and  C_3 
REMARK    2  A    between atoms: C_6  and  N_7 
REMARK    3  A    between atoms: N_7  and  C_8 
REMARK    4  A    between atoms: C_8  and  C_9 
REMARK       I    between atoms: C_9  and  N_10 
REMARK    5  A    between atoms: N_10  and  N_11 
REMARK       I    between atoms: N_11  and  C_12 
REMARK    6  A    between atoms: C_12  and  C_13 
REMARK    7  A    between atoms: N_15  and  C_16 
ROOT
HETATM    1  N   UNL     1       7.704  29.107  58.172  1.00  0.00    -0.263 N 
HETATM    2  C   UNL     1       6.751  28.367  57.496  1.00  0.00     0.273 C 
HETATM    3  O   UNL     1       5.640  28.820  57.223  1.00  0.00    -0.266 OA
HETATM    4  H   UNL     1       8.430  28.629  58.703  1.00  0.00     0.190 HD
ENDROOT
BRANCH   1   5
HETATM    5  N   UNL     1       7.304  30.351  58.703  1.00  0.00    -0.266 N 
HETATM    6  C   UNL     1       7.995  30.811  59.812  1.00  0.00     0.253 C 
HETATM    7  O   UNL     1       8.997  30.242  60.249  1.00  0.00    -0.270 OA
HETATM    8  H   UNL     1       6.317  30.578  58.582  1.00  0.00     0.190 HD
BRANCH   6   9
HETATM    9  C   UNL     1       7.407  32.089  60.424  1.00  0.00     0.224 C 
BRANCH   9  10
HETATM   10  N   UNL     1       6.328  31.740  61.345  1.00  0.00    -0.381 N 
HETATM   11  H   UNL     1       6.155  30.735  61.375  1.00  0.00     0.160 HD
BRANCH  10  12
HETATM   12  C   UNL     1       5.189  32.524  61.472  1.00  0.00     0.028 A 
HETATM   13  C   UNL     1       4.455  32.825  60.317  1.00  0.00     0.032 A 
HETATM   14  C   UNL     1       3.231  33.506  60.375  1.00  0.00     0.039 A 
HETATM   15  C   UNL     1       2.699  33.878  61.606  1.00  0.00     0.068 A 
HETATM   16  C   UNL     1       3.415  33.580  62.765  1.00  0.00     0.039 A 
HETATM   17  C   UNL     1       4.638  32.900  62.700  1.00  0.00     0.032 A 
BRANCH  15  18
HETATM   18  O   UNL     1       1.510  34.518  61.809  1.00  0.00    -0.356 OA
HETATM   19  C   UNL     1       0.756  34.844  60.648  1.00  0.00     0.210 C 
ENDBRANCH  15  18
ENDBRANCH  10  12
ENDBRANCH   9  10
ENDBRANCH   6   9
ENDBRANCH   1   5
BRANCH   2  20
HETATM   20  C   UNL     1       7.160  27.023  57.142  1.00  0.00     0.070 A 
HETATM   21  C   UNL     1       7.055  26.446  55.891  1.00  0.00     0.137 A 
HETATM   22  N   UNL     1       7.580  25.176  55.969  1.00  0.00    -0.244 N 
HETATM   23  N   UNL     1       8.034  24.914  57.221  1.00  0.00    -0.179 NA
HETATM   24  C   UNL     1       7.773  26.020  57.916  1.00  0.00     0.157 A 
BRANCH  22  25
HETATM   25  C   UNL     1       7.681  24.202  54.938  1.00  0.00     0.059 A 
HETATM   26  C   UNL     1       7.760  22.842  55.283  1.00  0.00     0.055 A 
HETATM   27  C   UNL     1       7.868  21.878  54.282  1.00  0.00     0.036 A 
HETATM   28 CL   UNL     1       7.983  20.214  54.707  1.00  0.00    -0.084 Cl
HETATM   29  C   UNL     1       7.887  22.248  52.939  1.00  0.00     0.024 A 
HETATM   30  C   UNL     1       7.801  23.596  52.592  1.00  0.00     0.004 A 
HETATM   31  C   UNL     1       7.703  24.574  53.586  1.00  0.00     0.031 A 
ENDBRANCH  22  25
ENDBRANCH   2  20
TORSDOF 7
ENDMDL
MODEL 8
REMARK VINA RESULT:      -8.5      1.738      2.138
REMARK  7 active torsions:
REMARK  status: ('A' for Active; 'I' for Inactive)
REMARK    1  A    between atoms: O_2  and  C_3 
REMARK    2  A    between atoms: C_6  and  N_7 
REMARK    3  A    between atoms: N_7  and  C_8 
REMARK    4  A    between atoms: C_8  and  C_9 
REMARK       I    between atoms: C_9  and  N_10 
REMARK    5  A    between atoms: N_10  and  N_11 
REMARK       I    between atoms: N_11  and  C_12 
REMARK    6  A    between atoms: C_12  and  C_13 
REMARK    7  A    between atoms: N_15  and  C_16 
ROOT
HETATM    1  N   UNL     1       7.679  29.935  59.160  1.00  0.00    -0.263 N 
HETATM    2  C   UNL     1       8.393  29.634  58.014  1.00  0.00     0.273 C 
HETATM    3  O   UNL     1       9.448  30.201  57.731  1.00  0.00    -0.266 OA
HETATM    4  H   UNL     1       6.677  29.754  59.190  1.00  0.00     0.190 HD
ENDROOT
BRANCH   1   5
HETATM    5  N   UNL     1       8.104  31.045  59.918  1.00  0.00    -0.266 N 
HETATM    6  C   UNL     1       8.812  30.780  61.079  1.00  0.00     0.253 C 
HETATM    7  O   UNL     1       9.177  29.643  61.384  1.00  0.00    -0.270 OA
HETATM    8  H   UNL     1       7.503  31.867  59.860  1.00  0.00     0.190 HD
BRANCH   6   9
HETATM    9  C   UNL     1       9.107  32.024  61.926  1.00  0.00     0.224 C 
BRANCH   9  10
HETATM   10  N   UNL     1       8.284  32.001  63.133  1.00  0.00    -0.381 N 
HETATM   11  H   UNL     1       7.985  31.058  63.379  1.00  0.00     0.160 HD
BRANCH  10  12
HETATM   12  C   UNL     1       7.346  32.990  63.400  1.00  0.00     0.028 A 
HETATM   13  C   UNL     1       7.180  33.411  64.726  1.00  0.00     0.032 A 
HETATM   14  C   UNL     1       6.344  34.485  65.063  1.00  0.00     0.039 A 
HETATM   15  C   UNL     1       5.673  35.183  64.064  1.00  0.00     0.068 A 
HETATM   16  C   UNL     1       5.832  34.780  62.738  1.00  0.00     0.039 A 
HETATM   17  C   UNL     1       6.668  33.706  62.410  1.00  0.00     0.032 A 
BRANCH  15  18
HETATM   18  O   UNL     1       4.853  36.261  64.246  1.00  0.00    -0.356 OA
HETATM   19  C   UNL     1       5.403  37.537  63.947  1.00  0.00     0.210 C 
ENDBRANCH  15  18
ENDBRANCH  10  12
ENDBRANCH   9  10
ENDBRANCH   6   9
ENDBRANCH   1   5
BRANCH   2  20
HETATM   20  C   UNL     1       7.801  28.611  57.176  1.00  0.00     0.070 A 
HETATM   21  C   UNL     1       8.268  27.320  57.021  1.00  0.00     0.137 A 
HETATM   22  N   UNL     1       7.410  26.663  56.168  1.00  0.00    -0.244 N 
HETATM   23  N   UNL     1       6.397  27.477  55.776  1.00  0.00    -0.179 NA
HETATM   24  C   UNL     1       6.643  28.640  56.378  1.00  0.00     0.157 A 
BRANCH  22  25
HETATM   25  C   UNL     1       7.487  25.321  55.706  1.00  0.00     0.059 A 
HETATM   26  C   UNL     1       7.860  24.306  56.604  1.00  0.00     0.055 A 
HETATM   27  C   UNL     1       7.948  22.987  56.162  1.00  0.00     0.036 A 
HETATM   28 CL   UNL     1       8.422  21.748  57.258  1.00  0.00    -0.084 Cl
HETATM   29  C   UNL     1       7.658  22.661  54.839  1.00  0.00     0.024 A 
HETATM   30  C   UNL     1       7.280  23.664  53.946  1.00  0.00     0.004 A 
HETATM   31  C   UNL     1       7.198  24.993  54.374  1.00  0.00     0.031 A 
ENDBRANCH  22  25
ENDBRANCH   2  20
TORSDOF 7
ENDMDL
MODEL 9
REMARK VINA RESULT:      -8.5      1.931      2.731
REMARK  7 active torsions:
REMARK  status: ('A' for Active; 'I' for Inactive)
REMARK    1  A    between atoms: O_2  and  C_3 
REMARK    2  A    between atoms: C_6  and  N_7 
REMARK    3  A    between atoms: N_7  and  C_8 
REMARK    4  A    between atoms: C_8  and  C_9 
REMARK       I    between atoms: C_9  and  N_10 
REMARK    5  A    between atoms: N_10  and  N_11 
REMARK       I    between atoms: N_11  and  C_12 
REMARK    6  A    between atoms: C_12  and  C_13 
REMARK    7  A    between atoms: N_15  and  C_16 
ROOT
HETATM    1  N   UNL     1       6.777  30.416  58.825  1.00  0.00    -0.263 N 
HETATM    2  C   UNL     1       7.561  29.517  58.124  1.00  0.00     0.273 C 
HETATM    3  O   UNL     1       8.701  29.224  58.482  1.00  0.00    -0.266 OA
HETATM    4  H   UNL     1       6.033  30.916  58.343  1.00  0.00     0.190 HD
ENDROOT
BRANCH   1   5
HETATM    5  N   UNL     1       7.390  31.132  59.874  1.00  0.00    -0.266 N 
HETATM    6  C   UNL     1       6.672  32.184  60.419  1.00  0.00     0.253 C 
HETATM    7  O   UNL     1       5.502  32.416  60.108  1.00  0.00    -0.270 OA
HETATM    8  H   UNL     1       8.408  31.170  59.838  1.00  0.00     0.190 HD
BRANCH   6   9
HETATM    9  C   UNL     1       7.459  33.009  61.445  1.00  0.00     0.224 C 
BRANCH   9  10
HETATM   10  N   UNL     1       7.367  32.375  62.758  1.00  0.00    -0.381 N 
HETATM   11  H   UNL     1       7.187  31.373  62.692  1.00  0.00     0.160 HD
BRANCH  10  12
HETATM   12  C   UNL     1       6.750  33.000  63.833  1.00  0.00     0.028 A 
HETATM   13  C   UNL     1       5.351  33.093  63.838  1.00  0.00     0.032 A 
HETATM   14  C   UNL     1       4.647  33.599  64.939  1.00  0.00     0.039 A 
HETATM   15  C   UNL     1       5.335  34.001  66.080  1.00  0.00     0.068 A 
HETATM   16  C   UNL     1       6.726  33.910  66.093  1.00  0.00     0.039 A 
HETATM   17  C   UNL     1       7.424  33.403  64.989  1.00  0.00     0.032 A 
BRANCH  15  18
HETATM   18  O   UNL     1       4.776  34.485  67.229  1.00  0.00    -0.356 OA
HETATM   19  C   UNL     1       5.676  34.898  68.249  1.00  0.00     0.210 C 
ENDBRANCH  15  18
ENDBRANCH  10  12
ENDBRANCH   9  10
ENDBRANCH   6   9
ENDBRANCH   1   5
BRANCH   2  20
HETATM   20  C   UNL     1       6.939  28.955  56.943  1.00  0.00     0.070 A 
HETATM   21  C   UNL     1       7.185  27.702  56.415  1.00  0.00     0.137 A 
HETATM   22  N   UNL     1       6.372  27.544  55.315  1.00  0.00    -0.244 N 
HETATM   23  N   UNL     1       5.599  28.642  55.119  1.00  0.00    -0.179 NA
HETATM   24  C   UNL     1       5.949  29.482  56.093  1.00  0.00     0.157 A 
BRANCH  22  25
HETATM   25  C   UNL     1       6.280  26.424  54.444  1.00  0.00     0.059 A 
HETATM   26  C   UNL     1       7.259  25.417  54.514  1.00  0.00     0.055 A 
HETATM   27  C   UNL     1       7.185  24.317  53.661  1.00  0.00     0.036 A 
HETATM   28 CL   UNL     1       8.395  23.095  53.736  1.00  0.00    -0.084 Cl
HETATM   29  C   UNL     1       6.143  24.199  52.744  1.00  0.00     0.024 A 
HETATM   30  C   UNL     1       5.166  25.192  52.676  1.00  0.00     0.004 A 
HETATM   31  C   UNL     1       5.233  26.305  53.519  1.00  0.00     0.031 A 
ENDBRANCH  22  25
ENDBRANCH   2  20
TORSDOF 7
ENDMDL
MODEL 10
REMARK VINA RESULT:      -8.2      2.769      3.303
REMARK  7 active torsions:
REMARK  status: ('A' for Active; 'I' for Inactive)
REMARK    1  A    between atoms: O_2  and  C_3 
REMARK    2  A    between atoms: C_6  and  N_7 
REMARK    3  A    between atoms: N_7  and  C_8 
REMARK    4  A    between atoms: C_8  and  C_9 
REMARK       I    between atoms: C_9  and  N_10 
REMARK    5  A    between atoms: N_10  and  N_11 
REMARK       I    between atoms: N_11  and  C_12 
REMARK    6  A    between atoms: C_12  and  C_13 
REMARK    7  A    between atoms: N_15  and  C_16 
ROOT
HETATM    1  N   UNL     1       6.360  30.122  58.097  1.00  0.00    -0.263 N 
HETATM    2  C   UNL     1       5.810  30.857  57.063  1.00  0.00     0.273 C 
HETATM    3  O   UNL     1       5.806  32.088  57.063  1.00  0.00    -0.266 OA
HETATM    4  H   UNL     1       6.035  29.172  58.267  1.00  0.00     0.190 HD
ENDROOT
BRANCH   1   5
HETATM    5  N   UNL     1       6.764  30.825  59.251  1.00  0.00    -0.266 N 
HETATM    6  C   UNL     1       8.099  30.732  59.608  1.00  0.00     0.253 C 
HETATM    7  O   UNL     1       8.936  30.175  58.895  1.00  0.00    -0.270 OA
HETATM    8  H   UNL     1       6.047  30.932  59.968  1.00  0.00     0.190 HD
BRANCH   6   9
HETATM    9  C   UNL     1       8.431  31.393  60.952  1.00  0.00     0.224 C 
BRANCH   9  10
HETATM   10  N   UNL     1       7.494  30.927  61.972  1.00  0.00    -0.381 N 
HETATM   11  H   UNL     1       6.831  30.245  61.605  1.00  0.00     0.160 HD
BRANCH  10  12
HETATM   12  C   UNL     1       6.967  31.783  62.930  1.00  0.00     0.028 A 
HETATM   13  C   UNL     1       7.855  32.525  63.722  1.00  0.00     0.032 A 
HETATM   14  C   UNL     1       7.405  33.498  64.625  1.00  0.00     0.039 A 
HETATM   15  C   UNL     1       6.044  33.770  64.734  1.00  0.00     0.068 A 
HETATM   16  C   UNL     1       5.149  33.045  63.948  1.00  0.00     0.039 A 
HETATM   17  C   UNL     1       5.605  32.073  63.049  1.00  0.00     0.032 A 
BRANCH  15  18
HETATM   18  O   UNL     1       5.472  34.706  65.549  1.00  0.00    -0.356 OA
HETATM   19  C   UNL     1       5.059  34.262  66.835  1.00  0.00     0.210 C 
ENDBRANCH  15  18
ENDBRANCH  10  12
ENDBRANCH   9  10
ENDBRANCH   6   9
ENDBRANCH   1   5
BRANCH   2  20
HETATM   20  C   UNL     1       5.239  30.070  55.990  1.00  0.00     0.070 A 
HETATM   21  C   UNL     1       5.742  28.880  55.500  1.00  0.00     0.137 A 
HETATM   22  N   UNL     1       4.893  28.441  54.509  1.00  0.00    -0.244 N 
HETATM   23  N   UNL     1       3.851  29.296  54.348  1.00  0.00    -0.179 NA
HETATM   24  C   UNL     1       4.069  30.268  55.233  1.00  0.00     0.157 A 
BRANCH  22  25
HETATM   25  C   UNL     1       5.005  27.270  53.711  1.00  0.00     0.059 A 
HETATM   26  C   UNL     1       4.932  27.381  52.312  1.00  0.00     0.055 A 
HETATM   27  C   UNL     1       5.032  26.239  51.519  1.00  0.00     0.036 A 
HETATM   28 CL   UNL     1       4.924  26.376  49.807  1.00  0.00    -0.084 Cl
HETATM   29  C   UNL     1       5.215  24.987  52.100  1.00  0.00     0.024 A 
HETATM   30  C   UNL     1       5.296  24.872  53.487  1.00  0.00     0.004 A 
HETATM   31  C   UNL     1       5.187  26.007  54.295  1.00  0.00     0.031 A 
ENDBRANCH  22  25
ENDBRANCH   2  20
TORSDOF 7
ENDMDL
