MODEL 1
REMARK VINA RESULT:      -7.6      0.000      0.000
REMARK  6 active torsions:
REMARK  status: ('A' for Active; 'I' for Inactive)
REMARK    1  A    between atoms: C_2  and  O_3 
REMARK    2  A    between atoms: O_3  and  C_4 
REMARK    3  A    between atoms: C_4  and  C_5 
REMARK    4  A    between atoms: C_6  and  O_7 
REMARK    5  A    between atoms: C_12  and  O_13 
REMARK    6  A    between atoms: C_17  and  C_18 
ROOT
HETATM    1  C   UNL     1       4.802  34.200  63.228  1.00  0.00     0.133 C 
HETATM    2  C   UNL     1       4.392  35.585  62.616  1.00  0.00     0.073 C 
HETATM    3  C   UNL     1       5.608  36.265  61.964  1.00  0.00     0.047 C 
HETATM    4  C   UNL     1       3.231  35.503  61.587  1.00  0.00     0.097 C 
HETATM    5  C   UNL     1       3.435  34.343  60.694  1.00  0.00     0.042 A 
HETATM    6  C   UNL     1       4.169  33.207  60.967  1.00  0.00     0.030 A 
HETATM    7  C   UNL     1       3.989  32.431  59.809  1.00  0.00     0.190 A 
HETATM    8  N   UNL     1       3.239  33.016  58.883  1.00  0.00    -0.149 NA
HETATM    9  N   UNL     1       2.906  34.189  59.446  1.00  0.00    -0.279 N 
HETATM   10  H   UNL     1       2.311  34.824  58.922  1.00  0.00     0.189 HD
HETATM   11  C   UNL     1       4.861  32.976  62.267  1.00  0.00     0.075 C 
ENDROOT
BRANCH  11  12
HETATM   12  C   UNL     1       6.282  32.500  61.995  1.00  0.00    -0.045 A 
HETATM   13  C   UNL     1       6.900  31.442  62.680  1.00  0.00     0.050 A 
HETATM   14  C   UNL     1       8.199  31.056  62.356  1.00  0.00     0.117 A 
HETATM   15  F   UNL     1       8.771  30.047  63.024  1.00  0.00    -0.206 F 
HETATM   16  C   UNL     1       8.912  31.698  61.351  1.00  0.00     0.042 A 
HETATM   17  C   UNL     1       8.315  32.743  60.655  1.00  0.00     0.004 A 
HETATM   18  C   UNL     1       7.010  33.136  60.970  1.00  0.00     0.008 A 
ENDBRANCH  11  12
BRANCH   1  19
HETATM   19  C   UNL     1       3.842  33.826  64.340  1.00  0.00     0.267 C 
HETATM   20  O   UNL     1       2.628  33.968  64.288  1.00  0.00    -0.265 OA
BRANCH  19  21
HETATM   21  O   UNL     1       4.530  33.317  65.400  1.00  0.00    -0.316 OA
BRANCH  21  22
HETATM   22  C   UNL     1       5.401  34.223  66.103  1.00  0.00     0.123 C 
HETATM   23  C   UNL     1       6.854  33.780  65.961  1.00  0.00     0.040 C 
HETATM   24  C   UNL     1       4.979  34.191  67.566  1.00  0.00     0.040 C 
ENDBRANCH  21  22
ENDBRANCH  19  21
ENDBRANCH   1  19
BRANCH   2  25
HETATM   25  O   UNL     1       4.013  36.491  63.672  1.00  0.00    -0.389 OA
HETATM   26  H   UNL     1       3.225  36.989  63.376  1.00  0.00     0.210 HD
ENDBRANCH   2  25
BRANCH   7  27
HETATM   27  O   UNL     1       4.460  31.219  59.509  1.00  0.00    -0.343 OA
HETATM   28  H   UNL     1       4.236  30.997  58.593  1.00  0.00     0.219 HD
ENDBRANCH   7  27
TORSDOF 6
ENDMDL
MODEL 2
REMARK VINA RESULT:      -7.2      7.070      9.269
REMARK  6 active torsions:
REMARK  status: ('A' for Active; 'I' for Inactive)
REMARK    1  A    between atoms: C_2  and  O_3 
REMARK    2  A    between atoms: O_3  and  C_4 
REMARK    3  A    between atoms: C_4  and  C_5 
REMARK    4  A    between atoms: C_6  and  O_7 
REMARK    5  A    between atoms: C_12  and  O_13 
REMARK    6  A    between atoms: C_17  and  C_18 
ROOT
HETATM    1  C   UNL     1       5.933  28.686  55.405  1.00  0.00     0.133 C 
HETATM    2  C   UNL     1       6.064  27.859  54.078  1.00  0.00     0.073 C 
HETATM    3  C   UNL     1       7.454  28.063  53.453  1.00  0.00     0.047 C 
HETATM    4  C   UNL     1       5.791  26.339  54.251  1.00  0.00     0.097 C 
HETATM    5  C   UNL     1       6.446  25.851  55.483  1.00  0.00     0.042 A 
HETATM    6  C   UNL     1       6.793  26.599  56.589  1.00  0.00     0.030 A 
HETATM    7  C   UNL     1       7.332  25.638  57.462  1.00  0.00     0.190 A 
HETATM    8  N   UNL     1       7.351  24.409  56.960  1.00  0.00    -0.149 NA
HETATM    9  N   UNL     1       6.801  24.560  55.744  1.00  0.00    -0.279 N 
HETATM   10  H   UNL     1       6.694  23.737  55.159  1.00  0.00     0.189 HD
HETATM   11  C   UNL     1       6.514  28.059  56.706  1.00  0.00     0.075 C 
ENDROOT
BRANCH  11  12
HETATM   12  C   UNL     1       7.768  28.766  57.199  1.00  0.00    -0.045 A 
HETATM   13  C   UNL     1       9.026  28.652  56.588  1.00  0.00     0.050 A 
HETATM   14  C   UNL     1      10.122  29.350  57.092  1.00  0.00     0.117 A 
HETATM   15  F   UNL     1      11.313  29.224  56.495  1.00  0.00    -0.206 F 
HETATM   16  C   UNL     1      10.001  30.175  58.204  1.00  0.00     0.042 A 
HETATM   17  C   UNL     1       8.761  30.308  58.820  1.00  0.00     0.004 A 
HETATM   18  C   UNL     1       7.655  29.615  58.319  1.00  0.00     0.008 A 
ENDBRANCH  11  12
BRANCH   1  19
HETATM   19  C   UNL     1       4.472  28.979  55.685  1.00  0.00     0.267 C 
HETATM   20  O   UNL     1       3.707  28.216  56.260  1.00  0.00    -0.265 OA
BRANCH  19  21
HETATM   21  O   UNL     1       4.140  30.208  55.199  1.00  0.00    -0.316 OA
BRANCH  21  22
HETATM   22  C   UNL     1       4.904  31.326  55.689  1.00  0.00     0.123 C 
HETATM   23  C   UNL     1       4.575  31.591  57.155  1.00  0.00     0.040 C 
HETATM   24  C   UNL     1       4.520  32.528  54.835  1.00  0.00     0.040 C 
ENDBRANCH  21  22
ENDBRANCH  19  21
ENDBRANCH   1  19
BRANCH   2  25
HETATM   25  O   UNL     1       5.157  28.382  53.086  1.00  0.00    -0.389 OA
HETATM   26  H   UNL     1       5.683  28.869  52.421  1.00  0.00     0.210 HD
ENDBRANCH   2  25
BRANCH   7  27
HETATM   27  O   UNL     1       7.825  25.782  58.694  1.00  0.00    -0.343 OA
HETATM   28  H   UNL     1       7.848  26.721  58.931  1.00  0.00     0.219 HD
ENDBRANCH   7  27
TORSDOF 6
ENDMDL
MODEL 3
REMARK VINA RESULT:      -7.2      2.360      5.038
REMARK  6 active torsions:
REMARK  status: ('A' for Active; 'I' for Inactive)
REMARK    1  A    between atoms: C_2  and  O_3 
REMARK    2  A    between atoms: O_3  and  C_4 
REMARK    3  A    between atoms: C_4  and  C_5 
REMARK    4  A    between atoms: C_6  and  O_7 
REMARK    5  A    between atoms: C_12  and  O_13 
REMARK    6  A    between atoms: C_17  and  C_18 
ROOT
HETATM    1  C   UNL     1       5.518  32.434  60.759  1.00  0.00     0.133 C 
HETATM    2  C   UNL     1       4.084  32.173  60.179  1.00  0.00     0.073 C 
HETATM    3  C   UNL     1       3.119  31.756  61.301  1.00  0.00     0.047 C 
HETATM    4  C   UNL     1       3.486  33.379  59.403  1.00  0.00     0.097 C 
HETATM    5  C   UNL     1       3.758  34.631  60.139  1.00  0.00     0.042 A 
HETATM    6  C   UNL     1       4.774  34.856  61.045  1.00  0.00     0.030 A 
HETATM    7  C   UNL     1       4.590  36.204  61.396  1.00  0.00     0.190 A 
HETATM    8  N   UNL     1       3.553  36.777  60.796  1.00  0.00    -0.149 NA
HETATM    9  N   UNL     1       3.056  35.795  60.026  1.00  0.00    -0.279 N 
HETATM   10  H   UNL     1       2.245  35.999  59.449  1.00  0.00     0.189 HD
HETATM   11  C   UNL     1       5.795  33.827  61.396  1.00  0.00     0.075 C 
ENDROOT
BRANCH  11  12
HETATM   12  C   UNL     1       5.943  33.771  62.910  1.00  0.00    -0.045 A 
HETATM   13  C   UNL     1       4.862  33.784  63.806  1.00  0.00     0.050 A 
HETATM   14  C   UNL     1       5.084  33.709  65.180  1.00  0.00     0.117 A 
HETATM   15  F   UNL     1       4.039  33.727  66.016  1.00  0.00    -0.206 F 
HETATM   16  C   UNL     1       6.370  33.617  65.698  1.00  0.00     0.042 A 
HETATM   17  C   UNL     1       7.454  33.595  64.827  1.00  0.00     0.004 A 
HETATM   18  C   UNL     1       7.242  33.665  63.447  1.00  0.00     0.008 A 
ENDBRANCH  11  12
BRANCH   1  19
HETATM   19  C   UNL     1       6.554  32.248  59.668  1.00  0.00     0.267 C 
HETATM   20  O   UNL     1       6.453  32.684  58.530  1.00  0.00    -0.265 OA
BRANCH  19  21
HETATM   21  O   UNL     1       7.605  31.522  60.142  1.00  0.00    -0.316 OA
BRANCH  21  22
HETATM   22  C   UNL     1       8.893  32.168  60.138  1.00  0.00     0.123 C 
HETATM   23  C   UNL     1       9.729  31.675  58.960  1.00  0.00     0.040 C 
HETATM   24  C   UNL     1       9.570  31.806  61.454  1.00  0.00     0.040 C 
ENDBRANCH  21  22
ENDBRANCH  19  21
ENDBRANCH   1  19
BRANCH   2  25
HETATM   25  O   UNL     1       4.114  31.027  59.303  1.00  0.00    -0.389 OA
HETATM   26  H   UNL     1       4.449  31.319  58.432  1.00  0.00     0.210 HD
ENDBRANCH   2  25
BRANCH   7  27
HETATM   27  O   UNL     1       5.289  36.974  62.233  1.00  0.00    -0.343 OA
HETATM   28  H   UNL     1       5.193  37.904  61.981  1.00  0.00     0.219 HD
ENDBRANCH   7  27
TORSDOF 6
ENDMDL
MODEL 4
REMARK VINA RESULT:      -7.1      7.699     10.309
REMARK  6 active torsions:
REMARK  status: ('A' for Active; 'I' for Inactive)
REMARK    1  A    between atoms: C_2  and  O_3 
REMARK    2  A    between atoms: O_3  and  C_4 
REMARK    3  A    between atoms: C_4  and  C_5 
REMARK    4  A    between atoms: C_6  and  O_7 
REMARK    5  A    between atoms: C_12  and  O_13 
REMARK    6  A    between atoms: C_17  and  C_18 
ROOT
HETATM    1  C   UNL     1       7.895  27.081  56.373  1.00  0.00     0.133 C 
HETATM    2  C   UNL     1       8.632  28.397  56.806  1.00  0.00     0.073 C 
HETATM    3  C   UNL     1       8.933  29.273  55.578  1.00  0.00     0.047 C 
HETATM    4  C   UNL     1       7.862  29.235  57.864  1.00  0.00     0.097 C 
HETATM    5  C   UNL     1       6.426  29.284  57.514  1.00  0.00     0.042 A 
HETATM    6  C   UNL     1       5.730  28.376  56.743  1.00  0.00     0.030 A 
HETATM    7  C   UNL     1       4.418  28.879  56.774  1.00  0.00     0.190 A 
HETATM    8  N   UNL     1       4.290  30.001  57.470  1.00  0.00    -0.149 NA
HETATM    9  N   UNL     1       5.535  30.234  57.920  1.00  0.00    -0.279 N 
HETATM   10  H   UNL     1       5.693  31.051  58.501  1.00  0.00     0.189 HD
HETATM   11  C   UNL     1       6.355  27.155  56.158  1.00  0.00     0.075 C 
ENDROOT
BRANCH  11  12
HETATM   12  C   UNL     1       5.953  27.045  54.694  1.00  0.00    -0.045 A 
HETATM   13  C   UNL     1       5.402  25.891  54.115  1.00  0.00     0.050 A 
HETATM   14  C   UNL     1       5.042  25.879  52.769  1.00  0.00     0.117 A 
HETATM   15  F   UNL     1       4.523  24.766  52.237  1.00  0.00    -0.206 F 
HETATM   16  C   UNL     1       5.211  27.002  51.969  1.00  0.00     0.042 A 
HETATM   17  C   UNL     1       5.747  28.159  52.524  1.00  0.00     0.004 A 
HETATM   18  C   UNL     1       6.108  28.182  53.875  1.00  0.00     0.008 A 
ENDBRANCH  11  12
BRANCH   1  19
HETATM   19  C   UNL     1       8.132  25.997  57.406  1.00  0.00     0.267 C 
HETATM   20  O   UNL     1       7.776  26.060  58.575  1.00  0.00    -0.265 OA
BRANCH  19  21
HETATM   21  O   UNL     1       8.801  24.953  56.842  1.00  0.00    -0.316 OA
BRANCH  21  22
HETATM   22  C   UNL     1       8.000  23.878  56.315  1.00  0.00     0.123 C 
HETATM   23  C   UNL     1       8.335  22.570  57.025  1.00  0.00     0.040 C 
HETATM   24  C   UNL     1       8.326  23.774  54.831  1.00  0.00     0.040 C 
ENDBRANCH  21  22
ENDBRANCH  19  21
ENDBRANCH   1  19
BRANCH   2  25
HETATM   25  O   UNL     1       9.937  28.075  57.330  1.00  0.00    -0.389 OA
HETATM   26  H   UNL     1      10.582  28.700  56.943  1.00  0.00     0.210 HD
ENDBRANCH   2  25
BRANCH   7  27
HETATM   27  O   UNL     1       3.306  28.404  56.208  1.00  0.00    -0.343 OA
HETATM   28  H   UNL     1       3.462  28.238  55.267  1.00  0.00     0.219 HD
ENDBRANCH   7  27
TORSDOF 6
ENDMDL
MODEL 5
REMARK VINA RESULT:      -7.1      8.202     11.106
REMARK  6 active torsions:
REMARK  status: ('A' for Active; 'I' for Inactive)
REMARK    1  A    between atoms: C_2  and  O_3 
REMARK    2  A    between atoms: O_3  and  C_4 
REMARK    3  A    between atoms: C_4  and  C_5 
REMARK    4  A    between atoms: C_6  and  O_7 
REMARK    5  A    between atoms: C_12  and  O_13 
REMARK    6  A    between atoms: C_17  and  C_18 
ROOT
HETATM    1  C   UNL     1       4.966  27.758  54.636  1.00  0.00     0.133 C 
HETATM    2  C   UNL     1       4.773  28.024  56.170  1.00  0.00     0.073 C 
HETATM    3  C   UNL     1       5.111  26.761  56.980  1.00  0.00     0.047 C 
HETATM    4  C   UNL     1       5.597  29.224  56.712  1.00  0.00     0.097 C 
HETATM    5  C   UNL     1       6.961  29.192  56.144  1.00  0.00     0.042 A 
HETATM    6  C   UNL     1       7.354  28.588  54.967  1.00  0.00     0.030 A 
HETATM    7  C   UNL     1       8.722  28.900  54.894  1.00  0.00     0.190 A 
HETATM    8  N   UNL     1       9.165  29.610  55.925  1.00  0.00    -0.149 NA
HETATM    9  N   UNL     1       8.068  29.781  56.681  1.00  0.00    -0.279 N 
HETATM   10  H   UNL     1       8.153  30.315  57.540  1.00  0.00     0.189 HD
HETATM   11  C   UNL     1       6.407  27.880  54.059  1.00  0.00     0.075 C 
ENDROOT
BRANCH  11  12
HETATM   12  C   UNL     1       7.006  26.536  53.666  1.00  0.00    -0.045 A 
HETATM   13  C   UNL     1       7.496  25.596  54.584  1.00  0.00     0.050 A 
HETATM   14  C   UNL     1       8.011  24.379  54.142  1.00  0.00     0.117 A 
HETATM   15  F   UNL     1       8.477  23.498  55.036  1.00  0.00    -0.206 F 
HETATM   16  C   UNL     1       8.051  24.063  52.789  1.00  0.00     0.042 A 
HETATM   17  C   UNL     1       7.564  24.978  51.862  1.00  0.00     0.004 A 
HETATM   18  C   UNL     1       7.040  26.200  52.297  1.00  0.00     0.008 A 
ENDBRANCH  11  12
BRANCH   1  19
HETATM   19  C   UNL     1       4.102  28.714  53.837  1.00  0.00     0.267 C 
HETATM   20  O   UNL     1       3.885  29.879  54.144  1.00  0.00    -0.265 OA
BRANCH  19  21
HETATM   21  O   UNL     1       3.603  28.085  52.737  1.00  0.00    -0.316 OA
BRANCH  21  22
HETATM   22  C   UNL     1       3.716  28.784  51.483  1.00  0.00     0.123 C 
HETATM   23  C   UNL     1       2.333  29.146  50.950  1.00  0.00     0.040 C 
HETATM   24  C   UNL     1       4.425  27.843  50.517  1.00  0.00     0.040 C 
ENDBRANCH  21  22
ENDBRANCH  19  21
ENDBRANCH   1  19
BRANCH   2  25
HETATM   25  O   UNL     1       3.378  28.254  56.453  1.00  0.00    -0.389 OA
HETATM   26  H   UNL     1       3.318  28.790  57.269  1.00  0.00     0.210 HD
ENDBRANCH   2  25
BRANCH   7  27
HETATM   27  O   UNL     1       9.624  28.587  53.961  1.00  0.00    -0.343 OA
HETATM   28  H   UNL     1      10.516  28.663  54.329  1.00  0.00     0.219 HD
ENDBRANCH   7  27
TORSDOF 6
ENDMDL
MODEL 6
REMARK VINA RESULT:      -7.1      2.670      5.096
REMARK  6 active torsions:
REMARK  status: ('A' for Active; 'I' for Inactive)
REMARK    1  A    between atoms: C_2  and  O_3 
REMARK    2  A    between atoms: O_3  and  C_4 
REMARK    3  A    between atoms: C_4  and  C_5 
REMARK    4  A    between atoms: C_6  and  O_7 
REMARK    5  A    between atoms: C_12  and  O_13 
REMARK    6  A    between atoms: C_17  and  C_18 
ROOT
HETATM    1  C   UNL     1       4.545  33.551  62.240  1.00  0.00     0.133 C 
HETATM    2  C   UNL     1       3.148  33.990  61.679  1.00  0.00     0.073 C 
HETATM    3  C   UNL     1       2.101  34.018  62.806  1.00  0.00     0.047 C 
HETATM    4  C   UNL     1       3.162  35.362  60.950  1.00  0.00     0.097 C 
HETATM    5  C   UNL     1       3.976  36.328  61.719  1.00  0.00     0.042 A 
HETATM    6  C   UNL     1       4.985  36.034  62.612  1.00  0.00     0.030 A 
HETATM    7  C   UNL     1       5.436  37.306  63.007  1.00  0.00     0.190 A 
HETATM    8  N   UNL     1       4.772  38.308  62.444  1.00  0.00    -0.149 NA
HETATM    9  N   UNL     1       3.880  37.687  61.654  1.00  0.00    -0.279 N 
HETATM   10  H   UNL     1       3.249  38.257  61.098  1.00  0.00     0.189 HD
HETATM   11  C   UNL     1       5.427  34.642  62.914  1.00  0.00     0.075 C 
ENDROOT
BRANCH  11  12
HETATM   12  C   UNL     1       5.537  34.472  64.423  1.00  0.00    -0.045 A 
HETATM   13  C   UNL     1       4.446  34.537  65.302  1.00  0.00     0.050 A 
HETATM   14  C   UNL     1       4.630  34.350  66.671  1.00  0.00     0.117 A 
HETATM   15  F   UNL     1       3.575  34.420  67.492  1.00  0.00    -0.206 F 
HETATM   16  C   UNL     1       5.889  34.093  67.199  1.00  0.00     0.042 A 
HETATM   17  C   UNL     1       6.983  34.016  66.344  1.00  0.00     0.004 A 
HETATM   18  C   UNL     1       6.808  34.198  64.969  1.00  0.00     0.008 A 
ENDBRANCH  11  12
BRANCH   1  19
HETATM   19  C   UNL     1       5.380  32.952  61.126  1.00  0.00     0.267 C 
HETATM   20  O   UNL     1       4.926  32.350  60.162  1.00  0.00    -0.265 OA
BRANCH  19  21
HETATM   21  O   UNL     1       6.703  33.178  61.360  1.00  0.00    -0.316 OA
BRANCH  21  22
HETATM   22  C   UNL     1       7.577  32.034  61.302  1.00  0.00     0.123 C 
HETATM   23  C   UNL     1       8.090  31.687  62.696  1.00  0.00     0.040 C 
HETATM   24  C   UNL     1       8.737  32.414  60.390  1.00  0.00     0.040 C 
ENDBRANCH  21  22
ENDBRANCH  19  21
ENDBRANCH   1  19
BRANCH   2  25
HETATM   25  O   UNL     1       2.651  32.987  60.769  1.00  0.00    -0.389 OA
HETATM   26  H   UNL     1       3.403  32.423  60.499  1.00  0.00     0.210 HD
ENDBRANCH   2  25
BRANCH   7  27
HETATM   27  O   UNL     1       6.410  37.644  63.854  1.00  0.00    -0.343 OA
HETATM   28  H   UNL     1       6.027  37.964  64.684  1.00  0.00     0.219 HD
ENDBRANCH   7  27
TORSDOF 6
ENDMDL
MODEL 7
REMARK VINA RESULT:      -7.0      2.441      4.211
REMARK  6 active torsions:
REMARK  status: ('A' for Active; 'I' for Inactive)
REMARK    1  A    between atoms: C_2  and  O_3 
REMARK    2  A    between atoms: O_3  and  C_4 
REMARK    3  A    between atoms: C_4  and  C_5 
REMARK    4  A    between atoms: C_6  and  O_7 
REMARK    5  A    between atoms: C_12  and  O_13 
REMARK    6  A    between atoms: C_17  and  C_18 
ROOT
HETATM    1  C   UNL     1       4.961  36.109  61.221  1.00  0.00     0.133 C 
HETATM    2  C   UNL     1       3.862  35.714  60.174  1.00  0.00     0.073 C 
HETATM    3  C   UNL     1       4.209  34.370  59.512  1.00  0.00     0.047 C 
HETATM    4  C   UNL     1       2.425  35.646  60.762  1.00  0.00     0.097 C 
HETATM    5  C   UNL     1       2.454  34.974  62.078  1.00  0.00     0.042 A 
HETATM    6  C   UNL     1       3.532  34.874  62.933  1.00  0.00     0.030 A 
HETATM    7  C   UNL     1       2.996  34.186  64.035  1.00  0.00     0.190 A 
HETATM    8  N   UNL     1       1.717  33.859  63.893  1.00  0.00    -0.149 NA
HETATM    9  N   UNL     1       1.401  34.354  62.684  1.00  0.00    -0.279 N 
HETATM   10  H   UNL     1       0.450  34.236  62.349  1.00  0.00     0.189 HD
HETATM   11  C   UNL     1       4.862  35.482  62.643  1.00  0.00     0.075 C 
ENDROOT
BRANCH  11  12
HETATM   12  C   UNL     1       5.949  34.452  62.917  1.00  0.00    -0.045 A 
HETATM   13  C   UNL     1       6.394  33.510  61.977  1.00  0.00     0.050 A 
HETATM   14  C   UNL     1       7.410  32.614  62.303  1.00  0.00     0.117 A 
HETATM   15  F   UNL     1       7.816  31.721  61.392  1.00  0.00    -0.206 F 
HETATM   16  C   UNL     1       8.009  32.629  63.556  1.00  0.00     0.042 A 
HETATM   17  C   UNL     1       7.589  33.560  64.500  1.00  0.00     0.004 A 
HETATM   18  C   UNL     1       6.573  34.467  64.181  1.00  0.00     0.008 A 
ENDBRANCH  11  12
BRANCH   1  19
HETATM   19  C   UNL     1       4.968  37.612  61.415  1.00  0.00     0.267 C 
HETATM   20  O   UNL     1       4.007  38.344  61.219  1.00  0.00    -0.265 OA
BRANCH  19  21
HETATM   21  O   UNL     1       6.198  38.024  61.832  1.00  0.00    -0.316 OA
BRANCH  21  22
HETATM   22  C   UNL     1       6.258  39.285  62.526  1.00  0.00     0.123 C 
HETATM   23  C   UNL     1       7.549  40.021  62.179  1.00  0.00     0.040 C 
HETATM   24  C   UNL     1       6.215  38.969  64.016  1.00  0.00     0.040 C 
ENDBRANCH  21  22
ENDBRANCH  19  21
ENDBRANCH   1  19
BRANCH   2  25
HETATM   25  O   UNL     1       3.871  36.653  59.080  1.00  0.00    -0.389 OA
HETATM   26  H   UNL     1       2.989  37.073  59.032  1.00  0.00     0.210 HD
ENDBRANCH   2  25
BRANCH   7  27
HETATM   27  O   UNL     1       3.577  33.815  65.178  1.00  0.00    -0.343 OA
HETATM   28  H   UNL     1       3.295  32.918  65.413  1.00  0.00     0.219 HD
ENDBRANCH   7  27
TORSDOF 6
ENDMDL
MODEL 8
REMARK VINA RESULT:      -7.0      2.603      4.441
REMARK  6 active torsions:
REMARK  status: ('A' for Active; 'I' for Inactive)
REMARK    1  A    between atoms: C_2  and  O_3 
REMARK    2  A    between atoms: O_3  and  C_4 
REMARK    3  A    between atoms: C_4  and  C_5 
REMARK    4  A    between atoms: C_6  and  O_7 
REMARK    5  A    between atoms: C_12  and  O_13 
REMARK    6  A    between atoms: C_17  and  C_18 
ROOT
HETATM    1  C   UNL     1       4.799  33.516  61.017  1.00  0.00     0.133 C 
HETATM    2  C   UNL     1       3.469  32.921  61.601  1.00  0.00     0.073 C 
HETATM    3  C   UNL     1       3.582  31.394  61.744  1.00  0.00     0.047 C 
HETATM    4  C   UNL     1       3.044  33.539  62.962  1.00  0.00     0.097 C 
HETATM    5  C   UNL     1       4.226  33.681  63.838  1.00  0.00     0.042 A 
HETATM    6  C   UNL     1       5.544  33.778  63.441  1.00  0.00     0.030 A 
HETATM    7  C   UNL     1       6.228  33.937  64.658  1.00  0.00     0.190 A 
HETATM    8  N   UNL     1       5.436  33.920  65.724  1.00  0.00    -0.149 NA
HETATM    9  N   UNL     1       4.209  33.763  65.199  1.00  0.00    -0.279 N 
HETATM   10  H   UNL     1       3.415  33.732  65.831  1.00  0.00     0.189 HD
HETATM   11  C   UNL     1       5.967  33.782  62.011  1.00  0.00     0.075 C 
ENDROOT
BRANCH  11  12
HETATM   12  C   UNL     1       7.131  32.816  61.835  1.00  0.00    -0.045 A 
HETATM   13  C   UNL     1       8.161  32.990  60.898  1.00  0.00     0.050 A 
HETATM   14  C   UNL     1       9.202  32.068  60.815  1.00  0.00     0.117 A 
HETATM   15  F   UNL     1      10.172  32.251  59.911  1.00  0.00    -0.206 F 
HETATM   16  C   UNL     1       9.252  30.961  61.653  1.00  0.00     0.042 A 
HETATM   17  C   UNL     1       8.246  30.774  62.594  1.00  0.00     0.004 A 
HETATM   18  C   UNL     1       7.199  31.696  62.688  1.00  0.00     0.008 A 
ENDBRANCH  11  12
BRANCH   1  19
HETATM   19  C   UNL     1       4.511  34.835  60.329  1.00  0.00     0.267 C 
HETATM   20  O   UNL     1       4.065  34.947  59.196  1.00  0.00    -0.265 OA
BRANCH  19  21
HETATM   21  O   UNL     1       4.828  35.871  61.156  1.00  0.00    -0.316 OA
BRANCH  21  22
HETATM   22  C   UNL     1       3.893  36.967  61.208  1.00  0.00     0.123 C 
HETATM   23  C   UNL     1       4.524  38.230  60.630  1.00  0.00     0.040 C 
HETATM   24  C   UNL     1       3.543  37.175  62.676  1.00  0.00     0.040 C 
ENDBRANCH  21  22
ENDBRANCH  19  21
ENDBRANCH   1  19
BRANCH   2  25
HETATM   25  O   UNL     1       2.397  33.103  60.654  1.00  0.00    -0.389 OA
HETATM   26  H   UNL     1       1.554  32.900  61.107  1.00  0.00     0.210 HD
ENDBRANCH   2  25
BRANCH   7  27
HETATM   27  O   UNL     1       7.533  34.091  64.894  1.00  0.00    -0.343 OA
HETATM   28  H   UNL     1       8.033  33.403  64.431  1.00  0.00     0.219 HD
ENDBRANCH   7  27
TORSDOF 6
ENDMDL
MODEL 9
REMARK VINA RESULT:      -6.9      1.514      1.923
REMARK  6 active torsions:
REMARK  status: ('A' for Active; 'I' for Inactive)
REMARK    1  A    between atoms: C_2  and  O_3 
REMARK    2  A    between atoms: O_3  and  C_4 
REMARK    3  A    between atoms: C_4  and  C_5 
REMARK    4  A    between atoms: C_6  and  O_7 
REMARK    5  A    between atoms: C_12  and  O_13 
REMARK    6  A    between atoms: C_17  and  C_18 
ROOT
HETATM    1  C   UNL     1       5.779  34.372  64.694  1.00  0.00     0.133 C 
HETATM    2  C   UNL     1       5.218  35.791  64.329  1.00  0.00     0.073 C 
HETATM    3  C   UNL     1       6.113  36.468  63.276  1.00  0.00     0.047 C 
HETATM    4  C   UNL     1       3.747  35.780  63.828  1.00  0.00     0.097 C 
HETATM    5  C   UNL     1       3.546  34.653  62.893  1.00  0.00     0.042 A 
HETATM    6  C   UNL     1       4.284  33.489  62.827  1.00  0.00     0.030 A 
HETATM    7  C   UNL     1       3.641  32.767  61.808  1.00  0.00     0.190 A 
HETATM    8  N   UNL     1       2.614  33.407  61.262  1.00  0.00    -0.149 NA
HETATM    9  N   UNL     1       2.570  34.564  61.944  1.00  0.00    -0.279 N 
HETATM   10  H   UNL     1       1.844  35.234  61.710  1.00  0.00     0.189 HD
HETATM   11  C   UNL     1       5.416  33.189  63.750  1.00  0.00     0.075 C 
ENDROOT
BRANCH  11  12
HETATM   12  C   UNL     1       6.601  32.690  62.936  1.00  0.00    -0.045 A 
HETATM   13  C   UNL     1       7.347  31.545  63.255  1.00  0.00     0.050 A 
HETATM   14  C   UNL     1       8.407  31.145  62.444  1.00  0.00     0.117 A 
HETATM   15  F   UNL     1       9.108  30.051  62.769  1.00  0.00    -0.206 F 
HETATM   16  C   UNL     1       8.751  31.860  61.303  1.00  0.00     0.042 A 
HETATM   17  C   UNL     1       8.020  32.993  60.965  1.00  0.00     0.004 A 
HETATM   18  C   UNL     1       6.951  33.401  61.770  1.00  0.00     0.008 A 
ENDBRANCH  11  12
BRANCH   1  19
HETATM   19  C   UNL     1       5.310  33.977  66.080  1.00  0.00     0.267 C 
HETATM   20  O   UNL     1       4.203  33.523  66.336  1.00  0.00    -0.265 OA
BRANCH  19  21
HETATM   21  O   UNL     1       6.297  34.205  66.990  1.00  0.00    -0.316 OA
BRANCH  21  22
HETATM   22  C   UNL     1       5.889  34.712  68.275  1.00  0.00     0.123 C 
HETATM   23  C   UNL     1       7.002  35.554  68.891  1.00  0.00     0.040 C 
HETATM   24  C   UNL     1       5.596  33.500  69.152  1.00  0.00     0.040 C 
ENDBRANCH  21  22
ENDBRANCH  19  21
ENDBRANCH   1  19
BRANCH   2  25
HETATM   25  O   UNL     1       5.311  36.662  65.474  1.00  0.00    -0.389 OA
HETATM   26  H   UNL     1       4.405  36.839  65.796  1.00  0.00     0.210 HD
ENDBRANCH   2  25
BRANCH   7  27
HETATM   27  O   UNL     1       3.913  31.556  61.314  1.00  0.00    -0.343 OA
HETATM   28  H   UNL     1       4.180  31.634  60.386  1.00  0.00     0.219 HD
ENDBRANCH   7  27
TORSDOF 6
ENDMDL
MODEL 10
REMARK VINA RESULT:      -6.7      5.137      7.368
REMARK  6 active torsions:
REMARK  status: ('A' for Active; 'I' for Inactive)
REMARK    1  A    between atoms: C_2  and  O_3 
REMARK    2  A    between atoms: O_3  and  C_4 
REMARK    3  A    between atoms: C_4  and  C_5 
REMARK    4  A    between atoms: C_6  and  O_7 
REMARK    5  A    between atoms: C_12  and  O_13 
REMARK    6  A    between atoms: C_17  and  C_18 
ROOT
HETATM    1  C   UNL     1       5.509  30.361  56.876  1.00  0.00     0.133 C 
HETATM    2  C   UNL     1       4.534  29.874  55.748  1.00  0.00     0.073 C 
HETATM    3  C   UNL     1       5.262  29.819  54.395  1.00  0.00     0.047 C 
HETATM    4  C   UNL     1       3.871  28.498  56.036  1.00  0.00     0.097 C 
HETATM    5  C   UNL     1       4.877  27.564  56.585  1.00  0.00     0.042 A 
HETATM    6  C   UNL     1       6.044  27.895  57.242  1.00  0.00     0.030 A 
HETATM    7  C   UNL     1       6.583  26.642  57.576  1.00  0.00     0.190 A 
HETATM    8  N   UNL     1       5.853  25.615  57.159  1.00  0.00    -0.149 NA
HETATM    9  N   UNL     1       4.807  26.202  56.553  1.00  0.00    -0.279 N 
HETATM   10  H   UNL     1       4.087  25.609  56.153  1.00  0.00     0.189 HD
HETATM   11  C   UNL     1       6.449  29.303  57.523  1.00  0.00     0.075 C 
ENDROOT
BRANCH  11  12
HETATM   12  C   UNL     1       7.910  29.486  57.134  1.00  0.00    -0.045 A 
HETATM   13  C   UNL     1       8.407  29.295  55.835  1.00  0.00     0.050 A 
HETATM   14  C   UNL     1       9.757  29.503  55.559  1.00  0.00     0.117 A 
HETATM   15  F   UNL     1      10.210  29.311  54.314  1.00  0.00    -0.206 F 
HETATM   16  C   UNL     1      10.641  29.906  56.551  1.00  0.00     0.042 A 
HETATM   17  C   UNL     1      10.168  30.109  57.843  1.00  0.00     0.004 A 
HETATM   18  C   UNL     1       8.814  29.907  58.130  1.00  0.00     0.008 A 
ENDBRANCH  11  12
BRANCH   1  19
HETATM   19  C   UNL     1       4.715  30.980  58.009  1.00  0.00     0.267 C 
HETATM   20  O   UNL     1       3.666  30.530  58.450  1.00  0.00    -0.265 OA
BRANCH  19  21
HETATM   21  O   UNL     1       5.338  32.106  58.455  1.00  0.00    -0.316 OA
BRANCH  21  22
HETATM   22  C   UNL     1       5.403  32.288  59.883  1.00  0.00     0.123 C 
HETATM   23  C   UNL     1       4.806  33.637  60.274  1.00  0.00     0.040 C 
HETATM   24  C   UNL     1       6.877  32.232  60.265  1.00  0.00     0.040 C 
ENDBRANCH  21  22
ENDBRANCH  19  21
ENDBRANCH   1  19
BRANCH   2  25
HETATM   25  O   UNL     1       3.496  30.854  55.544  1.00  0.00    -0.389 OA
HETATM   26  H   UNL     1       3.404  31.004  54.582  1.00  0.00     0.210 HD
ENDBRANCH   2  25
BRANCH   7  27
HETATM   27  O   UNL     1       7.706  26.340  58.233  1.00  0.00    -0.343 OA
HETATM   28  H   UNL     1       8.399  26.977  58.007  1.00  0.00     0.219 HD
ENDBRANCH   7  27
TORSDOF 6
ENDMDL
