MODEL 1
REMARK VINA RESULT:     -11.3      0.000      0.000
REMARK  7 active torsions:
REMARK  status: ('A' for Active; 'I' for Inactive)
REMARK    1  A    between atoms: C_3  and  C_4 
REMARK       I    between atoms: C_4  and  N_5 
REMARK    2  A    between atoms: N_5  and  C_6 
REMARK    3  A    between atoms: C_6  and  C_7 
REMARK    4  A    between atoms: N_23  and  C_24 
REMARK    5  A    between atoms: C_24  and  C_25 
REMARK       I    between atoms: C_25  and  N_26 
REMARK    6  A    between atoms: N_26  and  C_27 
REMARK    7  A    between atoms: C_29  and  C_30 
ROOT
HETATM    1  C   UNL     1       8.141  26.712  57.395  1.00  0.00     0.051 C 
HETATM    2  C   UNL     1       6.952  27.595  57.155  1.00  0.00    -0.021 A 
HETATM    3  C   UNL     1       5.818  27.215  56.437  1.00  0.00     0.081 A 
HETATM    4  S   UNL     1       4.635  28.462  56.428  1.00  0.00    -0.063 SA
HETATM    5  C   UNL     1       5.607  29.510  57.340  1.00  0.00     0.116 A 
HETATM    6  C   UNL     1       6.835  28.956  57.626  1.00  0.00     0.075 A 
HETATM    7  C   UNL     1       7.787  29.786  58.351  1.00  0.00     0.262 A 
HETATM    8  O   UNL     1       8.947  29.447  58.562  1.00  0.00    -0.267 OA
HETATM    9  N   UNL     1       7.277  31.023  58.747  1.00  0.00    -0.299 N 
HETATM   10  C   UNL     1       5.994  31.421  58.416  1.00  0.00     0.214 A 
HETATM   11  N   UNL     1       5.158  30.735  57.709  1.00  0.00    -0.235 NA
ENDROOT
BRANCH   3  12
HETATM   12  C   UNL     1       5.562  25.948  55.744  1.00  0.00     0.259 C 
HETATM   13  N   UNL     1       5.516  26.019  54.367  1.00  0.00    -0.354 N 
HETATM   14  H   UNL     1       5.781  26.903  53.948  1.00  0.00     0.162 HD
HETATM   15  O   UNL     1       5.415  24.873  56.321  1.00  0.00    -0.267 OA
BRANCH  13  16
HETATM   16  C   UNL     1       5.431  24.840  53.531  1.00  0.00     0.157 C 
BRANCH  16  17
HETATM   17  C   UNL     1       6.717  24.471  52.766  1.00  0.00     0.171 C 
HETATM   18  O   UNL     1       6.848  23.045  52.642  1.00  0.00    -0.339 OA
HETATM   19  C   UNL     1       7.648  22.475  53.597  1.00  0.00     0.102 A 
HETATM   20  C   UNL     1       8.400  23.209  54.516  1.00  0.00     0.102 A 
HETATM   21  C   UNL     1       7.654  21.083  53.649  1.00  0.00     0.039 A 
HETATM   22  O   UNL     1       8.415  24.578  54.545  1.00  0.00    -0.346 OA
HETATM   23  C   UNL     1       9.126  22.555  55.510  1.00  0.00     0.039 A 
HETATM   24  C   UNL     1       7.994  25.123  53.294  1.00  0.00     0.209 C 
HETATM   25  C   UNL     1       9.122  21.161  55.569  1.00  0.00     0.003 A 
HETATM   26  C   UNL     1       8.391  20.425  54.635  1.00  0.00     0.003 A 
ENDBRANCH  16  17
ENDBRANCH  13  16
ENDBRANCH   3  12
BRANCH   9  27
HETATM   27  C   UNL     1       8.102  31.893  59.575  1.00  0.00     0.236 C 
BRANCH  27  28
HETATM   28  C   UNL     1       7.752  31.909  61.069  1.00  0.00     0.240 C 
HETATM   29  N   UNL     1       7.354  33.135  61.571  1.00  0.00    -0.326 N 
HETATM   30  H   UNL     1       7.502  33.942  60.977  1.00  0.00     0.169 HD
HETATM   31  O   UNL     1       7.811  30.860  61.707  1.00  0.00    -0.271 OA
BRANCH  29  32
HETATM   32  C   UNL     1       6.787  33.400  62.836  1.00  0.00     0.035 A 
HETATM   33  C   UNL     1       5.482  33.862  63.028  1.00  0.00     0.045 A 
HETATM   34  C   UNL     1       4.995  34.146  64.316  1.00  0.00     0.050 A 
HETATM   35  C   UNL     1       5.839  33.961  65.421  1.00  0.00     0.016 A 
HETATM   36  C   UNL     1       7.140  33.499  65.239  1.00  0.00     0.003 A 
HETATM   37  C   UNL     1       7.611  33.221  63.954  1.00  0.00     0.029 A 
BRANCH  34  38
HETATM   38  C   UNL     1       3.590  34.657  64.524  1.00  0.00     0.417 C 
HETATM   39  F   UNL     1       2.644  33.989  63.807  1.00  0.00    -0.166 F 
HETATM   40  F   UNL     1       3.194  34.581  65.826  1.00  0.00    -0.166 F 
HETATM   41  F   UNL     1       3.462  35.969  64.174  1.00  0.00    -0.166 F 
ENDBRANCH  34  38
ENDBRANCH  29  32
ENDBRANCH  27  28
ENDBRANCH   9  27
TORSDOF 7
ENDMDL
MODEL 2
REMARK VINA RESULT:     -11.2      5.606     12.350
REMARK  7 active torsions:
REMARK  status: ('A' for Active; 'I' for Inactive)
REMARK    1  A    between atoms: C_3  and  C_4 
REMARK       I    between atoms: C_4  and  N_5 
REMARK    2  A    between atoms: N_5  and  C_6 
REMARK    3  A    between atoms: C_6  and  C_7 
REMARK    4  A    between atoms: N_23  and  C_24 
REMARK    5  A    between atoms: C_24  and  C_25 
REMARK       I    between atoms: C_25  and  N_26 
REMARK    6  A    between atoms: N_26  and  C_27 
REMARK    7  A    between atoms: C_29  and  C_30 
ROOT
HETATM    1  C   UNL     1       9.079  29.737  58.137  1.00  0.00     0.051 C 
HETATM    2  C   UNL     1       7.680  30.183  57.829  1.00  0.00    -0.021 A 
HETATM    3  C   UNL     1       6.963  31.114  58.580  1.00  0.00     0.081 A 
HETATM    4  S   UNL     1       5.422  31.426  57.886  1.00  0.00    -0.063 SA
HETATM    5  C   UNL     1       5.674  30.330  56.618  1.00  0.00     0.116 A 
HETATM    6  C   UNL     1       6.891  29.694  56.721  1.00  0.00     0.075 A 
HETATM    7  C   UNL     1       7.198  28.679  55.723  1.00  0.00     0.262 A 
HETATM    8  O   UNL     1       8.195  27.967  55.776  1.00  0.00    -0.267 OA
HETATM    9  N   UNL     1       6.233  28.554  54.722  1.00  0.00    -0.299 N 
HETATM   10  C   UNL     1       5.071  29.305  54.735  1.00  0.00     0.214 A 
HETATM   11  N   UNL     1       4.741  30.156  55.649  1.00  0.00    -0.235 NA
ENDROOT
BRANCH   3  12
HETATM   12  C   UNL     1       7.373  31.799  59.811  1.00  0.00     0.259 C 
HETATM   13  N   UNL     1       6.649  31.480  60.941  1.00  0.00    -0.354 N 
HETATM   14  H   UNL     1       5.984  30.719  60.856  1.00  0.00     0.162 HD
HETATM   15  O   UNL     1       8.308  32.594  59.870  1.00  0.00    -0.267 OA
BRANCH  13  16
HETATM   16  C   UNL     1       7.023  31.945  62.259  1.00  0.00     0.157 C 
BRANCH  16  17
HETATM   17  C   UNL     1       6.898  33.464  62.491  1.00  0.00     0.171 C 
HETATM   18  O   UNL     1       7.440  33.833  63.770  1.00  0.00    -0.339 OA
HETATM   19  C   UNL     1       6.501  33.940  64.762  1.00  0.00     0.102 A 
HETATM   20  C   UNL     1       5.125  33.855  64.539  1.00  0.00     0.102 A 
HETATM   21  C   UNL     1       6.986  34.100  66.059  1.00  0.00     0.039 A 
HETATM   22  O   UNL     1       4.581  33.665  63.297  1.00  0.00    -0.346 OA
HETATM   23  C   UNL     1       4.237  33.891  65.613  1.00  0.00     0.039 A 
HETATM   24  C   UNL     1       5.500  34.039  62.270  1.00  0.00     0.209 C 
HETATM   25  C   UNL     1       4.725  34.039  66.912  1.00  0.00     0.003 A 
HETATM   26  C   UNL     1       6.097  34.149  67.134  1.00  0.00     0.003 A 
ENDBRANCH  16  17
ENDBRANCH  13  16
ENDBRANCH   3  12
BRANCH   9  27
HETATM   27  C   UNL     1       6.484  27.648  53.610  1.00  0.00     0.236 C 
BRANCH  27  28
HETATM   28  C   UNL     1       6.433  26.153  53.951  1.00  0.00     0.240 C 
HETATM   29  N   UNL     1       7.661  25.545  54.137  1.00  0.00    -0.326 N 
HETATM   30  H   UNL     1       8.479  26.072  53.854  1.00  0.00     0.169 HD
HETATM   31  O   UNL     1       5.339  25.604  54.070  1.00  0.00    -0.271 OA
BRANCH  29  32
HETATM   32  C   UNL     1       7.912  24.255  54.650  1.00  0.00     0.035 A 
HETATM   33  C   UNL     1       8.034  23.107  53.861  1.00  0.00     0.045 A 
HETATM   34  C   UNL     1       8.242  21.845  54.444  1.00  0.00     0.050 A 
HETATM   35  C   UNL     1       8.327  21.744  55.841  1.00  0.00     0.016 A 
HETATM   36  C   UNL     1       8.208  22.882  56.635  1.00  0.00     0.003 A 
HETATM   37  C   UNL     1       8.002  24.130  56.043  1.00  0.00     0.029 A 
BRANCH  34  38
HETATM   38  C   UNL     1       8.362  20.603  53.594  1.00  0.00     0.417 C 
HETATM   39  F   UNL     1       7.248  20.322  52.862  1.00  0.00    -0.166 F 
HETATM   40  F   UNL     1       9.387  20.681  52.700  1.00  0.00    -0.166 F 
HETATM   41  F   UNL     1       8.606  19.489  54.341  1.00  0.00    -0.166 F 
ENDBRANCH  34  38
ENDBRANCH  29  32
ENDBRANCH  27  28
ENDBRANCH   9  27
TORSDOF 7
ENDMDL
MODEL 3
REMARK VINA RESULT:     -11.1      2.157      2.890
REMARK  7 active torsions:
REMARK  status: ('A' for Active; 'I' for Inactive)
REMARK    1  A    between atoms: C_3  and  C_4 
REMARK       I    between atoms: C_4  and  N_5 
REMARK    2  A    between atoms: N_5  and  C_6 
REMARK    3  A    between atoms: C_6  and  C_7 
REMARK    4  A    between atoms: N_23  and  C_24 
REMARK    5  A    between atoms: C_24  and  C_25 
REMARK       I    between atoms: C_25  and  N_26 
REMARK    6  A    between atoms: N_26  and  C_27 
REMARK    7  A    between atoms: C_29  and  C_30 
ROOT
HETATM    1  C   UNL     1       4.226  28.918  56.133  1.00  0.00     0.051 C 
HETATM    2  C   UNL     1       5.492  29.444  56.741  1.00  0.00    -0.021 A 
HETATM    3  C   UNL     1       6.772  28.999  56.412  1.00  0.00     0.081 A 
HETATM    4  S   UNL     1       7.980  29.879  57.261  1.00  0.00    -0.063 SA
HETATM    5  C   UNL     1       6.838  30.827  58.079  1.00  0.00     0.116 A 
HETATM    6  C   UNL     1       5.548  30.471  57.757  1.00  0.00     0.075 A 
HETATM    7  C   UNL     1       4.472  31.172  58.446  1.00  0.00     0.262 A 
HETATM    8  O   UNL     1       3.290  30.865  58.329  1.00  0.00    -0.267 OA
HETATM    9  N   UNL     1       4.908  32.195  59.288  1.00  0.00    -0.299 N 
HETATM   10  C   UNL     1       6.253  32.461  59.474  1.00  0.00     0.214 A 
HETATM   11  N   UNL     1       7.226  31.805  58.935  1.00  0.00    -0.235 NA
ENDROOT
BRANCH   3  12
HETATM   12  C   UNL     1       7.153  27.932  55.479  1.00  0.00     0.259 C 
HETATM   13  N   UNL     1       7.595  26.762  56.059  1.00  0.00    -0.354 N 
HETATM   14  H   UNL     1       7.507  26.691  57.066  1.00  0.00     0.162 HD
HETATM   15  O   UNL     1       7.074  28.036  54.257  1.00  0.00    -0.267 OA
BRANCH  13  16
HETATM   16  C   UNL     1       7.858  25.565  55.288  1.00  0.00     0.157 C 
BRANCH  16  17
HETATM   17  C   UNL     1       6.682  24.575  55.173  1.00  0.00     0.171 C 
HETATM   18  O   UNL     1       6.975  23.348  55.862  1.00  0.00    -0.339 OA
HETATM   19  C   UNL     1       7.457  22.356  55.051  1.00  0.00     0.102 A 
HETATM   20  C   UNL     1       7.517  22.454  53.659  1.00  0.00     0.102 A 
HETATM   21  C   UNL     1       7.944  21.216  55.688  1.00  0.00     0.039 A 
HETATM   22  O   UNL     1       7.088  23.556  52.969  1.00  0.00    -0.346 OA
HETATM   23  C   UNL     1       8.097  21.432  52.909  1.00  0.00     0.039 A 
HETATM   24  C   UNL     1       6.178  24.330  53.752  1.00  0.00     0.209 C 
HETATM   25  C   UNL     1       8.595  20.297  53.549  1.00  0.00     0.003 A 
HETATM   26  C   UNL     1       8.513  20.187  54.937  1.00  0.00     0.003 A 
ENDBRANCH  16  17
ENDBRANCH  13  16
ENDBRANCH   3  12
BRANCH   9  27
HETATM   27  C   UNL     1       3.917  33.038  59.945  1.00  0.00     0.236 C 
BRANCH  27  28
HETATM   28  C   UNL     1       4.383  33.716  61.240  1.00  0.00     0.240 C 
HETATM   29  N   UNL     1       4.657  32.861  62.291  1.00  0.00    -0.326 N 
HETATM   30  H   UNL     1       4.357  31.899  62.188  1.00  0.00     0.169 HD
HETATM   31  O   UNL     1       4.513  34.939  61.260  1.00  0.00    -0.271 OA
BRANCH  29  32
HETATM   32  C   UNL     1       5.285  33.178  63.514  1.00  0.00     0.035 A 
HETATM   33  C   UNL     1       4.611  33.656  64.641  1.00  0.00     0.045 A 
HETATM   34  C   UNL     1       5.307  33.992  65.816  1.00  0.00     0.050 A 
HETATM   35  C   UNL     1       6.702  33.843  65.848  1.00  0.00     0.016 A 
HETATM   36  C   UNL     1       7.382  33.366  64.731  1.00  0.00     0.003 A 
HETATM   37  C   UNL     1       6.678  33.036  63.571  1.00  0.00     0.029 A 
BRANCH  34  38
HETATM   38  C   UNL     1       4.581  34.519  67.030  1.00  0.00     0.417 C 
HETATM   39  F   UNL     1       3.300  34.909  66.784  1.00  0.00    -0.166 F 
HETATM   40  F   UNL     1       4.506  33.600  68.033  1.00  0.00    -0.166 F 
HETATM   41  F   UNL     1       5.203  35.606  67.569  1.00  0.00    -0.166 F 
ENDBRANCH  34  38
ENDBRANCH  29  32
ENDBRANCH  27  28
ENDBRANCH   9  27
TORSDOF 7
ENDMDL
MODEL 4
REMARK VINA RESULT:     -11.1      4.990     12.632
REMARK  7 active torsions:
REMARK  status: ('A' for Active; 'I' for Inactive)
REMARK    1  A    between atoms: C_3  and  C_4 
REMARK       I    between atoms: C_4  and  N_5 
REMARK    2  A    between atoms: N_5  and  C_6 
REMARK    3  A    between atoms: C_6  and  C_7 
REMARK    4  A    between atoms: N_23  and  C_24 
REMARK    5  A    between atoms: C_24  and  C_25 
REMARK       I    between atoms: C_25  and  N_26 
REMARK    6  A    between atoms: N_26  and  C_27 
REMARK    7  A    between atoms: C_29  and  C_30 
ROOT
HETATM    1  C   UNL     1       5.335  31.920  57.618  1.00  0.00     0.051 C 
HETATM    2  C   UNL     1       6.490  31.033  57.976  1.00  0.00    -0.021 A 
HETATM    3  C   UNL     1       7.354  31.254  59.048  1.00  0.00     0.081 A 
HETATM    4  S   UNL     1       8.515  29.994  59.188  1.00  0.00    -0.063 SA
HETATM    5  C   UNL     1       7.909  29.168  57.838  1.00  0.00     0.116 A 
HETATM    6  C   UNL     1       6.864  29.842  57.247  1.00  0.00     0.075 A 
HETATM    7  C   UNL     1       6.299  29.265  56.035  1.00  0.00     0.262 A 
HETATM    8  O   UNL     1       5.446  29.829  55.359  1.00  0.00    -0.267 OA
HETATM    9  N   UNL     1       6.847  28.030  55.685  1.00  0.00    -0.299 N 
HETATM   10  C   UNL     1       7.874  27.457  56.413  1.00  0.00     0.214 A 
HETATM   11  N   UNL     1       8.443  27.985  57.446  1.00  0.00    -0.235 NA
ENDROOT
BRANCH   3  12
HETATM   12  C   UNL     1       7.362  32.376  59.994  1.00  0.00     0.259 C 
HETATM   13  N   UNL     1       6.187  32.583  60.684  1.00  0.00    -0.354 N 
HETATM   14  H   UNL     1       5.464  31.881  60.574  1.00  0.00     0.162 HD
HETATM   15  O   UNL     1       8.343  33.089  60.196  1.00  0.00    -0.267 OA
BRANCH  13  16
HETATM   16  C   UNL     1       6.078  33.543  61.762  1.00  0.00     0.157 C 
BRANCH  16  17
HETATM   17  C   UNL     1       4.806  34.413  61.755  1.00  0.00     0.171 C 
HETATM   18  O   UNL     1       5.020  35.641  62.470  1.00  0.00    -0.339 OA
HETATM   19  C   UNL     1       4.592  35.610  63.771  1.00  0.00     0.102 A 
HETATM   20  C   UNL     1       3.870  34.549  64.323  1.00  0.00     0.102 A 
HETATM   21  C   UNL     1       4.950  36.695  64.568  1.00  0.00     0.039 A 
HETATM   22  O   UNL     1       3.513  33.437  63.609  1.00  0.00    -0.346 OA
HETATM   23  C   UNL     1       3.541  34.556  65.678  1.00  0.00     0.039 A 
HETATM   24  C   UNL     1       3.532  33.700  62.205  1.00  0.00     0.209 C 
HETATM   25  C   UNL     1       3.911  35.637  66.477  1.00  0.00     0.003 A 
HETATM   26  C   UNL     1       4.610  36.709  65.922  1.00  0.00     0.003 A 
ENDBRANCH  16  17
ENDBRANCH  13  16
ENDBRANCH   3  12
BRANCH   9  27
HETATM   27  C   UNL     1       6.284  27.305  54.554  1.00  0.00     0.236 C 
BRANCH  27  28
HETATM   28  C   UNL     1       6.245  25.778  54.702  1.00  0.00     0.240 C 
HETATM   29  N   UNL     1       7.168  25.084  53.942  1.00  0.00    -0.326 N 
HETATM   30  H   UNL     1       7.657  25.609  53.226  1.00  0.00     0.169 HD
HETATM   31  O   UNL     1       5.443  25.275  55.487  1.00  0.00    -0.271 OA
BRANCH  29  32
HETATM   32  C   UNL     1       7.495  23.714  54.028  1.00  0.00     0.035 A 
HETATM   33  C   UNL     1       7.712  23.034  55.230  1.00  0.00     0.045 A 
HETATM   34  C   UNL     1       8.075  21.675  55.239  1.00  0.00     0.050 A 
HETATM   35  C   UNL     1       8.220  20.999  54.018  1.00  0.00     0.016 A 
HETATM   36  C   UNL     1       8.003  21.668  52.816  1.00  0.00     0.003 A 
HETATM   37  C   UNL     1       7.643  23.018  52.821  1.00  0.00     0.029 A 
BRANCH  34  38
HETATM   38  C   UNL     1       8.322  20.943  56.535  1.00  0.00     0.417 C 
HETATM   39  F   UNL     1       8.281  21.739  57.639  1.00  0.00    -0.166 F 
HETATM   40  F   UNL     1       7.413  19.952  56.756  1.00  0.00    -0.166 F 
HETATM   41  F   UNL     1       9.543  20.337  56.559  1.00  0.00    -0.166 F 
ENDBRANCH  34  38
ENDBRANCH  29  32
ENDBRANCH  27  28
ENDBRANCH   9  27
TORSDOF 7
ENDMDL
MODEL 5
REMARK VINA RESULT:     -11.0      5.559     12.145
REMARK  7 active torsions:
REMARK  status: ('A' for Active; 'I' for Inactive)
REMARK    1  A    between atoms: C_3  and  C_4 
REMARK       I    between atoms: C_4  and  N_5 
REMARK    2  A    between atoms: N_5  and  C_6 
REMARK    3  A    between atoms: C_6  and  C_7 
REMARK    4  A    between atoms: N_23  and  C_24 
REMARK    5  A    between atoms: C_24  and  C_25 
REMARK       I    between atoms: C_25  and  N_26 
REMARK    6  A    between atoms: N_26  and  C_27 
REMARK    7  A    between atoms: C_29  and  C_30 
ROOT
HETATM    1  C   UNL     1       9.480  30.000  57.855  1.00  0.00     0.051 C 
HETATM    2  C   UNL     1       8.029  30.372  57.765  1.00  0.00    -0.021 A 
HETATM    3  C   UNL     1       7.397  31.296  58.597  1.00  0.00     0.081 A 
HETATM    4  S   UNL     1       5.750  31.513  58.155  1.00  0.00    -0.063 SA
HETATM    5  C   UNL     1       5.850  30.386  56.893  1.00  0.00     0.116 A 
HETATM    6  C   UNL     1       7.097  29.809  56.815  1.00  0.00     0.075 A 
HETATM    7  C   UNL     1       7.290  28.773  55.809  1.00  0.00     0.262 A 
HETATM    8  O   UNL     1       8.317  28.109  55.719  1.00  0.00    -0.267 OA
HETATM    9  N   UNL     1       6.184  28.570  54.983  1.00  0.00    -0.299 N 
HETATM   10  C   UNL     1       5.003  29.267  55.164  1.00  0.00     0.214 A 
HETATM   11  N   UNL     1       4.782  30.135  56.095  1.00  0.00    -0.235 NA
ENDROOT
BRANCH   3  12
HETATM   12  C   UNL     1       7.965  32.042  59.725  1.00  0.00     0.259 C 
HETATM   13  N   UNL     1       7.309  31.895  60.929  1.00  0.00    -0.354 N 
HETATM   14  H   UNL     1       6.574  31.198  60.964  1.00  0.00     0.162 HD
HETATM   15  O   UNL     1       8.970  32.745  59.641  1.00  0.00    -0.267 OA
BRANCH  13  16
HETATM   16  C   UNL     1       7.829  32.434  62.168  1.00  0.00     0.157 C 
BRANCH  16  17
HETATM   17  C   UNL     1       6.939  32.231  63.409  1.00  0.00     0.171 C 
HETATM   18  O   UNL     1       5.549  32.203  63.044  1.00  0.00    -0.339 OA
HETATM   19  C   UNL     1       4.911  33.406  63.194  1.00  0.00     0.102 A 
HETATM   20  C   UNL     1       5.496  34.525  63.791  1.00  0.00     0.102 A 
HETATM   21  C   UNL     1       3.621  33.493  62.672  1.00  0.00     0.039 A 
HETATM   22  O   UNL     1       6.769  34.521  64.295  1.00  0.00    -0.346 OA
HETATM   23  C   UNL     1       4.810  35.737  63.832  1.00  0.00     0.039 A 
HETATM   24  C   UNL     1       7.211  33.191  64.566  1.00  0.00     0.209 C 
HETATM   25  C   UNL     1       3.524  35.826  63.298  1.00  0.00     0.003 A 
HETATM   26  C   UNL     1       2.928  34.703  62.723  1.00  0.00     0.003 A 
ENDBRANCH  16  17
ENDBRANCH  13  16
ENDBRANCH   3  12
BRANCH   9  27
HETATM   27  C   UNL     1       6.297  27.637  53.870  1.00  0.00     0.236 C 
BRANCH  27  28
HETATM   28  C   UNL     1       6.307  26.151  54.253  1.00  0.00     0.240 C 
HETATM   29  N   UNL     1       7.556  25.558  54.296  1.00  0.00    -0.326 N 
HETATM   30  H   UNL     1       8.325  26.084  53.899  1.00  0.00     0.169 HD
HETATM   31  O   UNL     1       5.243  25.596  54.523  1.00  0.00    -0.271 OA
BRANCH  29  32
HETATM   32  C   UNL     1       7.884  24.284  54.806  1.00  0.00     0.035 A 
HETATM   33  C   UNL     1       7.968  23.126  54.027  1.00  0.00     0.045 A 
HETATM   34  C   UNL     1       8.261  21.880  54.610  1.00  0.00     0.050 A 
HETATM   35  C   UNL     1       8.468  21.806  55.995  1.00  0.00     0.016 A 
HETATM   36  C   UNL     1       8.388  22.954  56.778  1.00  0.00     0.003 A 
HETATM   37  C   UNL     1       8.098  24.186  56.187  1.00  0.00     0.029 A 
BRANCH  34  38
HETATM   38  C   UNL     1       8.339  20.627  53.772  1.00  0.00     0.417 C 
HETATM   39  F   UNL     1       8.654  19.506  54.477  1.00  0.00    -0.166 F 
HETATM   40  F   UNL     1       7.165  20.351  53.136  1.00  0.00    -0.166 F 
HETATM   41  F   UNL     1       9.279  20.723  52.788  1.00  0.00    -0.166 F 
ENDBRANCH  34  38
ENDBRANCH  29  32
ENDBRANCH  27  28
ENDBRANCH   9  27
TORSDOF 7
ENDMDL
MODEL 6
REMARK VINA RESULT:     -11.0      4.923     11.373
REMARK  7 active torsions:
REMARK  status: ('A' for Active; 'I' for Inactive)
REMARK    1  A    between atoms: C_3  and  C_4 
REMARK       I    between atoms: C_4  and  N_5 
REMARK    2  A    between atoms: N_5  and  C_6 
REMARK    3  A    between atoms: C_6  and  C_7 
REMARK    4  A    between atoms: N_23  and  C_24 
REMARK    5  A    between atoms: C_24  and  C_25 
REMARK       I    between atoms: C_25  and  N_26 
REMARK    6  A    between atoms: N_26  and  C_27 
REMARK    7  A    between atoms: C_29  and  C_30 
ROOT
HETATM    1  C   UNL     1       3.334  30.238  56.292  1.00  0.00     0.051 C 
HETATM    2  C   UNL     1       4.739  30.309  56.814  1.00  0.00    -0.021 A 
HETATM    3  C   UNL     1       5.130  31.043  57.934  1.00  0.00     0.081 A 
HETATM    4  S   UNL     1       6.803  30.830  58.269  1.00  0.00    -0.063 SA
HETATM    5  C   UNL     1       7.027  29.800  56.942  1.00  0.00     0.116 A 
HETATM    6  C   UNL     1       5.870  29.637  56.215  1.00  0.00     0.075 A 
HETATM    7  C   UNL     1       5.950  28.823  55.010  1.00  0.00     0.262 A 
HETATM    8  O   UNL     1       5.018  28.699  54.222  1.00  0.00    -0.267 OA
HETATM    9  N   UNL     1       7.196  28.232  54.804  1.00  0.00    -0.299 N 
HETATM   10  C   UNL     1       8.261  28.462  55.658  1.00  0.00     0.214 A 
HETATM   11  N   UNL     1       8.236  29.239  56.690  1.00  0.00    -0.235 NA
ENDROOT
BRANCH   3  12
HETATM   12  C   UNL     1       4.309  31.910  58.785  1.00  0.00     0.259 C 
HETATM   13  N   UNL     1       4.543  31.810  60.141  1.00  0.00    -0.354 N 
HETATM   14  H   UNL     1       5.334  31.245  60.426  1.00  0.00     0.162 HD
HETATM   15  O   UNL     1       3.475  32.701  58.350  1.00  0.00    -0.267 OA
BRANCH  13  16
HETATM   16  C   UNL     1       3.933  32.705  61.102  1.00  0.00     0.157 C 
BRANCH  16  17
HETATM   17  C   UNL     1       4.899  33.362  62.107  1.00  0.00     0.171 C 
HETATM   18  O   UNL     1       6.133  33.728  61.467  1.00  0.00    -0.339 OA
HETATM   19  C   UNL     1       7.133  32.804  61.618  1.00  0.00     0.102 A 
HETATM   20  C   UNL     1       7.032  31.681  62.442  1.00  0.00     0.102 A 
HETATM   21  C   UNL     1       8.283  33.007  60.858  1.00  0.00     0.039 A 
HETATM   22  O   UNL     1       5.919  31.401  63.189  1.00  0.00    -0.346 OA
HETATM   23  C   UNL     1       8.062  30.743  62.478  1.00  0.00     0.039 A 
HETATM   24  C   UNL     1       5.129  32.573  63.394  1.00  0.00     0.209 C 
HETATM   25  C   UNL     1       9.209  30.941  61.708  1.00  0.00     0.003 A 
HETATM   26  C   UNL     1       9.322  32.075  60.903  1.00  0.00     0.003 A 
ENDBRANCH  16  17
ENDBRANCH  13  16
ENDBRANCH   3  12
BRANCH   9  27
HETATM   27  C   UNL     1       7.364  27.307  53.691  1.00  0.00     0.236 C 
BRANCH  27  28
HETATM   28  C   UNL     1       7.022  25.842  53.993  1.00  0.00     0.240 C 
HETATM   29  N   UNL     1       7.885  24.908  53.449  1.00  0.00    -0.326 N 
HETATM   30  H   UNL     1       8.546  25.244  52.758  1.00  0.00     0.169 HD
HETATM   31  O   UNL     1       6.051  25.589  54.704  1.00  0.00    -0.271 OA
BRANCH  29  32
HETATM   32  C   UNL     1       7.937  23.525  53.724  1.00  0.00     0.035 A 
HETATM   33  C   UNL     1       8.106  22.986  55.003  1.00  0.00     0.045 A 
HETATM   34  C   UNL     1       8.190  21.596  55.199  1.00  0.00     0.050 A 
HETATM   35  C   UNL     1       8.103  20.743  54.088  1.00  0.00     0.016 A 
HETATM   36  C   UNL     1       7.933  21.272  52.811  1.00  0.00     0.003 A 
HETATM   37  C   UNL     1       7.850  22.654  52.630  1.00  0.00     0.029 A 
BRANCH  34  38
HETATM   38  C   UNL     1       8.384  21.013  56.578  1.00  0.00     0.417 C 
HETATM   39  F   UNL     1       9.557  20.339  56.735  1.00  0.00    -0.166 F 
HETATM   40  F   UNL     1       8.368  21.966  57.553  1.00  0.00    -0.166 F 
HETATM   41  F   UNL     1       7.400  20.129  56.907  1.00  0.00    -0.166 F 
ENDBRANCH  34  38
ENDBRANCH  29  32
ENDBRANCH  27  28
ENDBRANCH   9  27
TORSDOF 7
ENDMDL
MODEL 7
REMARK VINA RESULT:     -10.9      4.950     12.432
REMARK  7 active torsions:
REMARK  status: ('A' for Active; 'I' for Inactive)
REMARK    1  A    between atoms: C_3  and  C_4 
REMARK       I    between atoms: C_4  and  N_5 
REMARK    2  A    between atoms: N_5  and  C_6 
REMARK    3  A    between atoms: C_6  and  C_7 
REMARK    4  A    between atoms: N_23  and  C_24 
REMARK    5  A    between atoms: C_24  and  C_25 
REMARK       I    between atoms: C_25  and  N_26 
REMARK    6  A    between atoms: N_26  and  C_27 
REMARK    7  A    between atoms: C_29  and  C_30 
ROOT
HETATM    1  C   UNL     1       7.353  31.328  58.839  1.00  0.00     0.051 C 
HETATM    2  C   UNL     1       6.040  30.916  58.241  1.00  0.00    -0.021 A 
HETATM    3  C   UNL     1       4.799  31.416  58.636  1.00  0.00     0.081 A 
HETATM    4  S   UNL     1       3.528  30.764  57.680  1.00  0.00    -0.063 SA
HETATM    5  C   UNL     1       4.588  29.810  56.764  1.00  0.00     0.116 A 
HETATM    6  C   UNL     1       5.892  29.938  57.187  1.00  0.00     0.075 A 
HETATM    7  C   UNL     1       6.892  29.117  56.519  1.00  0.00     0.262 A 
HETATM    8  O   UNL     1       8.062  29.058  56.882  1.00  0.00    -0.267 OA
HETATM    9  N   UNL     1       6.392  28.365  55.455  1.00  0.00    -0.299 N 
HETATM   10  C   UNL     1       5.049  28.376  55.124  1.00  0.00     0.214 A 
HETATM   11  N   UNL     1       4.131  29.037  55.749  1.00  0.00    -0.235 NA
ENDROOT
BRANCH   3  12
HETATM   12  C   UNL     1       4.503  32.374  59.707  1.00  0.00     0.259 C 
HETATM   13  N   UNL     1       4.198  31.822  60.933  1.00  0.00    -0.354 N 
HETATM   14  H   UNL     1       4.322  30.820  61.025  1.00  0.00     0.162 HD
HETATM   15  O   UNL     1       4.537  33.594  59.560  1.00  0.00    -0.267 OA
BRANCH  13  16
HETATM   16  C   UNL     1       4.037  32.624  62.128  1.00  0.00     0.157 C 
BRANCH  16  17
HETATM   17  C   UNL     1       5.272  32.708  63.046  1.00  0.00     0.171 C 
HETATM   18  O   UNL     1       4.882  32.719  64.429  1.00  0.00    -0.339 OA
HETATM   19  C   UNL     1       4.804  33.973  64.975  1.00  0.00     0.102 A 
HETATM   20  C   UNL     1       5.211  35.133  64.313  1.00  0.00     0.102 A 
HETATM   21  C   UNL     1       4.242  34.061  66.248  1.00  0.00     0.039 A 
HETATM   22  O   UNL     1       5.740  35.125  63.050  1.00  0.00    -0.346 OA
HETATM   23  C   UNL     1       5.023  36.381  64.905  1.00  0.00     0.039 A 
HETATM   24  C   UNL     1       6.250  33.833  62.715  1.00  0.00     0.209 C 
HETATM   25  C   UNL     1       4.449  36.468  66.173  1.00  0.00     0.003 A 
HETATM   26  C   UNL     1       4.064  35.309  66.847  1.00  0.00     0.003 A 
ENDBRANCH  16  17
ENDBRANCH  13  16
ENDBRANCH   3  12
BRANCH   9  27
HETATM   27  C   UNL     1       7.320  27.589  54.643  1.00  0.00     0.236 C 
BRANCH  27  28
HETATM   28  C   UNL     1       7.492  26.122  55.057  1.00  0.00     0.240 C 
HETATM   29  N   UNL     1       7.293  25.194  54.050  1.00  0.00    -0.326 N 
HETATM   30  H   UNL     1       6.876  25.535  53.192  1.00  0.00     0.169 HD
HETATM   31  O   UNL     1       7.819  25.862  56.214  1.00  0.00    -0.271 OA
BRANCH  29  32
HETATM   32  C   UNL     1       7.578  23.813  54.087  1.00  0.00     0.035 A 
HETATM   33  C   UNL     1       7.767  23.083  55.264  1.00  0.00     0.045 A 
HETATM   34  C   UNL     1       8.089  21.715  55.226  1.00  0.00     0.050 A 
HETATM   35  C   UNL     1       8.223  21.080  53.982  1.00  0.00     0.016 A 
HETATM   36  C   UNL     1       8.035  21.799  52.804  1.00  0.00     0.003 A 
HETATM   37  C   UNL     1       7.714  23.157  52.857  1.00  0.00     0.029 A 
BRANCH  34  38
HETATM   38  C   UNL     1       8.306  20.928  56.496  1.00  0.00     0.417 C 
HETATM   39  F   UNL     1       8.283  21.685  57.628  1.00  0.00    -0.166 F 
HETATM   40  F   UNL     1       7.364  19.959  56.676  1.00  0.00    -0.166 F 
HETATM   41  F   UNL     1       9.507  20.284  56.504  1.00  0.00    -0.166 F 
ENDBRANCH  34  38
ENDBRANCH  29  32
ENDBRANCH  27  28
ENDBRANCH   9  27
TORSDOF 7
ENDMDL
MODEL 8
REMARK VINA RESULT:     -10.7      1.890      2.518
REMARK  7 active torsions:
REMARK  status: ('A' for Active; 'I' for Inactive)
REMARK    1  A    between atoms: C_3  and  C_4 
REMARK       I    between atoms: C_4  and  N_5 
REMARK    2  A    between atoms: N_5  and  C_6 
REMARK    3  A    between atoms: C_6  and  C_7 
REMARK    4  A    between atoms: N_23  and  C_24 
REMARK    5  A    between atoms: C_24  and  C_25 
REMARK       I    between atoms: C_25  and  N_26 
REMARK    6  A    between atoms: N_26  and  C_27 
REMARK    7  A    between atoms: C_29  and  C_30 
ROOT
HETATM    1  C   UNL     1       7.658  29.289  58.076  1.00  0.00     0.051 C 
HETATM    2  C   UNL     1       6.294  29.545  57.509  1.00  0.00    -0.021 A 
HETATM    3  C   UNL     1       5.626  28.686  56.636  1.00  0.00     0.081 A 
HETATM    4  S   UNL     1       4.058  29.277  56.252  1.00  0.00    -0.063 SA
HETATM    5  C   UNL     1       4.253  30.666  57.204  1.00  0.00     0.116 A 
HETATM    6  C   UNL     1       5.500  30.722  57.784  1.00  0.00     0.075 A 
HETATM    7  C   UNL     1       5.814  31.903  58.575  1.00  0.00     0.262 A 
HETATM    8  O   UNL     1       6.926  32.120  59.044  1.00  0.00    -0.267 OA
HETATM    9  N   UNL     1       4.748  32.793  58.717  1.00  0.00    -0.299 N 
HETATM   10  C   UNL     1       3.529  32.571  58.100  1.00  0.00     0.214 A 
HETATM   11  N   UNL     1       3.252  31.571  57.332  1.00  0.00    -0.235 NA
ENDROOT
BRANCH   3  12
HETATM   12  C   UNL     1       6.102  27.423  56.061  1.00  0.00     0.259 C 
HETATM   13  N   UNL     1       6.198  26.366  56.941  1.00  0.00    -0.354 N 
HETATM   14  H   UNL     1       5.822  26.511  57.870  1.00  0.00     0.162 HD
HETATM   15  O   UNL     1       6.384  27.278  54.873  1.00  0.00    -0.267 OA
BRANCH  13  16
HETATM   16  C   UNL     1       6.499  25.018  56.505  1.00  0.00     0.157 C 
BRANCH  16  17
HETATM   17  C   UNL     1       7.980  24.736  56.183  1.00  0.00     0.171 C 
HETATM   18  O   UNL     1       8.144  24.374  54.802  1.00  0.00    -0.339 OA
HETATM   19  C   UNL     1       8.183  23.022  54.583  1.00  0.00     0.102 A 
HETATM   20  C   UNL     1       8.220  22.072  55.606  1.00  0.00     0.102 A 
HETATM   21  C   UNL     1       8.141  22.608  53.253  1.00  0.00     0.039 A 
HETATM   22  O   UNL     1       8.229  22.405  56.934  1.00  0.00    -0.346 OA
HETATM   23  C   UNL     1       8.175  20.712  55.302  1.00  0.00     0.039 A 
HETATM   24  C   UNL     1       8.670  23.750  57.124  1.00  0.00     0.209 C 
HETATM   25  C   UNL     1       8.121  20.300  53.970  1.00  0.00     0.003 A 
HETATM   26  C   UNL     1       8.110  21.247  52.946  1.00  0.00     0.003 A 
ENDBRANCH  16  17
ENDBRANCH  13  16
ENDBRANCH   3  12
BRANCH   9  27
HETATM   27  C   UNL     1       4.910  33.956  59.579  1.00  0.00     0.236 C 
BRANCH  27  28
HETATM   28  C   UNL     1       4.813  33.680  61.085  1.00  0.00     0.240 C 
HETATM   29  N   UNL     1       5.910  34.071  61.831  1.00  0.00    -0.326 N 
HETATM   30  H   UNL     1       6.744  34.329  61.317  1.00  0.00     0.169 HD
HETATM   31  O   UNL     1       3.787  33.172  61.535  1.00  0.00    -0.271 OA
BRANCH  29  32
HETATM   32  C   UNL     1       6.015  34.129  63.237  1.00  0.00     0.035 A 
HETATM   33  C   UNL     1       5.222  34.945  64.050  1.00  0.00     0.045 A 
HETATM   34  C   UNL     1       5.410  34.982  65.443  1.00  0.00     0.050 A 
HETATM   35  C   UNL     1       6.411  34.186  66.019  1.00  0.00     0.016 A 
HETATM   36  C   UNL     1       7.204  33.369  65.217  1.00  0.00     0.003 A 
HETATM   37  C   UNL     1       7.007  33.340  63.835  1.00  0.00     0.029 A 
BRANCH  34  38
HETATM   38  C   UNL     1       4.563  35.873  66.320  1.00  0.00     0.417 C 
HETATM   39  F   UNL     1       3.228  35.794  66.066  1.00  0.00    -0.166 F 
HETATM   40  F   UNL     1       4.709  35.589  67.645  1.00  0.00    -0.166 F 
HETATM   41  F   UNL     1       4.890  37.189  66.185  1.00  0.00    -0.166 F 
ENDBRANCH  34  38
ENDBRANCH  29  32
ENDBRANCH  27  28
ENDBRANCH   9  27
TORSDOF 7
ENDMDL
MODEL 9
REMARK VINA RESULT:     -10.6      5.492     12.356
REMARK  7 active torsions:
REMARK  status: ('A' for Active; 'I' for Inactive)
REMARK    1  A    between atoms: C_3  and  C_4 
REMARK       I    between atoms: C_4  and  N_5 
REMARK    2  A    between atoms: N_5  and  C_6 
REMARK    3  A    between atoms: C_6  and  C_7 
REMARK    4  A    between atoms: N_23  and  C_24 
REMARK    5  A    between atoms: C_24  and  C_25 
REMARK       I    between atoms: C_25  and  N_26 
REMARK    6  A    between atoms: N_26  and  C_27 
REMARK    7  A    between atoms: C_29  and  C_30 
ROOT
HETATM    1  C   UNL     1       4.885  32.356  59.507  1.00  0.00     0.051 C 
HETATM    2  C   UNL     1       6.236  31.720  59.651  1.00  0.00    -0.021 A 
HETATM    3  C   UNL     1       7.124  31.977  60.696  1.00  0.00     0.081 A 
HETATM    4  S   UNL     1       8.542  31.015  60.564  1.00  0.00    -0.063 SA
HETATM    5  C   UNL     1       8.013  30.277  59.133  1.00  0.00     0.116 A 
HETATM    6  C   UNL     1       6.796  30.768  58.719  1.00  0.00     0.075 A 
HETATM    7  C   UNL     1       6.265  30.257  57.463  1.00  0.00     0.262 A 
HETATM    8  O   UNL     1       5.249  30.700  56.936  1.00  0.00    -0.267 OA
HETATM    9  N   UNL     1       7.037  29.249  56.886  1.00  0.00    -0.299 N 
HETATM   10  C   UNL     1       8.228  28.830  57.453  1.00  0.00     0.214 A 
HETATM   11  N   UNL     1       8.758  29.320  58.525  1.00  0.00    -0.235 NA
ENDROOT
BRANCH   3  12
HETATM   12  C   UNL     1       6.970  32.920  61.809  1.00  0.00     0.259 C 
HETATM   13  N   UNL     1       6.981  32.362  63.070  1.00  0.00    -0.354 N 
HETATM   14  H   UNL     1       7.214  31.377  63.130  1.00  0.00     0.162 HD
HETATM   15  O   UNL     1       6.858  34.136  61.662  1.00  0.00    -0.267 OA
BRANCH  13  16
HETATM   16  C   UNL     1       6.999  33.165  64.274  1.00  0.00     0.157 C 
BRANCH  16  17
HETATM   17  C   UNL     1       5.656  33.272  65.023  1.00  0.00     0.171 C 
HETATM   18  O   UNL     1       4.559  32.927  64.161  1.00  0.00    -0.339 OA
HETATM   19  C   UNL     1       3.945  34.007  63.584  1.00  0.00     0.102 A 
HETATM   20  C   UNL     1       4.239  35.332  63.911  1.00  0.00     0.102 A 
HETATM   21  C   UNL     1       3.009  33.729  62.590  1.00  0.00     0.039 A 
HETATM   22  O   UNL     1       5.170  35.679  64.853  1.00  0.00    -0.346 OA
HETATM   23  C   UNL     1       3.628  36.377  63.220  1.00  0.00     0.039 A 
HETATM   24  C   UNL     1       5.424  34.596  65.749  1.00  0.00     0.209 C 
HETATM   25  C   UNL     1       2.700  36.097  62.217  1.00  0.00     0.003 A 
HETATM   26  C   UNL     1       2.386  34.774  61.905  1.00  0.00     0.003 A 
ENDBRANCH  16  17
ENDBRANCH  13  16
ENDBRANCH   3  12
BRANCH   9  27
HETATM   27  C   UNL     1       6.548  28.585  55.685  1.00  0.00     0.236 C 
BRANCH  27  28
HETATM   28  C   UNL     1       6.462  27.055  55.765  1.00  0.00     0.240 C 
HETATM   29  N   UNL     1       7.588  26.375  55.340  1.00  0.00    -0.326 N 
HETATM   30  H   UNL     1       8.289  26.915  54.846  1.00  0.00     0.169 HD
HETATM   31  O   UNL     1       5.443  26.537  56.219  1.00  0.00    -0.271 OA
BRANCH  29  32
HETATM   32  C   UNL     1       7.868  25.000  55.488  1.00  0.00     0.035 A 
HETATM   33  C   UNL     1       7.901  24.088  54.429  1.00  0.00     0.045 A 
HETATM   34  C   UNL     1       8.146  22.722  54.655  1.00  0.00     0.050 A 
HETATM   35  C   UNL     1       8.358  22.274  55.968  1.00  0.00     0.016 A 
HETATM   36  C   UNL     1       8.329  23.176  57.029  1.00  0.00     0.003 A 
HETATM   37  C   UNL     1       8.085  24.530  56.790  1.00  0.00     0.029 A 
BRANCH  34  38
HETATM   38  C   UNL     1       8.169  21.734  53.514  1.00  0.00     0.417 C 
HETATM   39  F   UNL     1       9.395  21.192  53.273  1.00  0.00    -0.166 F 
HETATM   40  F   UNL     1       7.329  20.681  53.719  1.00  0.00    -0.166 F 
HETATM   41  F   UNL     1       7.775  22.299  52.337  1.00  0.00    -0.166 F 
ENDBRANCH  34  38
ENDBRANCH  29  32
ENDBRANCH  27  28
ENDBRANCH   9  27
TORSDOF 7
ENDMDL
MODEL 10
REMARK VINA RESULT:     -10.6      5.288     12.607
REMARK  7 active torsions:
REMARK  status: ('A' for Active; 'I' for Inactive)
REMARK    1  A    between atoms: C_3  and  C_4 
REMARK       I    between atoms: C_4  and  N_5 
REMARK    2  A    between atoms: N_5  and  C_6 
REMARK    3  A    between atoms: C_6  and  C_7 
REMARK    4  A    between atoms: N_23  and  C_24 
REMARK    5  A    between atoms: C_24  and  C_25 
REMARK       I    between atoms: C_25  and  N_26 
REMARK    6  A    between atoms: N_26  and  C_27 
REMARK    7  A    between atoms: C_29  and  C_30 
ROOT
HETATM    1  C   UNL     1       4.628  33.035  60.944  1.00  0.00     0.051 C 
HETATM    2  C   UNL     1       5.975  32.428  61.202  1.00  0.00    -0.021 A 
HETATM    3  C   UNL     1       6.681  32.551  62.399  1.00  0.00     0.081 A 
HETATM    4  S   UNL     1       8.154  31.666  62.351  1.00  0.00    -0.063 SA
HETATM    5  C   UNL     1       7.888  31.140  60.762  1.00  0.00     0.116 A 
HETATM    6  C   UNL     1       6.720  31.649  60.239  1.00  0.00     0.075 A 
HETATM    7  C   UNL     1       6.412  31.320  58.854  1.00  0.00     0.262 A 
HETATM    8  O   UNL     1       5.464  31.806  58.246  1.00  0.00    -0.267 OA
HETATM    9  N   UNL     1       7.316  30.438  58.264  1.00  0.00    -0.299 N 
HETATM   10  C   UNL     1       8.431  29.976  58.942  1.00  0.00     0.214 A 
HETATM   11  N   UNL     1       8.767  30.312  60.143  1.00  0.00    -0.235 NA
ENDROOT
BRANCH   3  12
HETATM   12  C   UNL     1       6.311  33.306  63.600  1.00  0.00     0.259 C 
HETATM   13  N   UNL     1       5.084  32.994  64.146  1.00  0.00    -0.354 N 
HETATM   14  H   UNL     1       4.599  32.196  63.752  1.00  0.00     0.162 HD
HETATM   15  O   UNL     1       7.033  34.152  64.123  1.00  0.00    -0.267 OA
BRANCH  13  16
HETATM   16  C   UNL     1       4.639  33.532  65.415  1.00  0.00     0.157 C 
BRANCH  16  17
HETATM   17  C   UNL     1       3.558  34.627  65.333  1.00  0.00     0.171 C 
HETATM   18  O   UNL     1       3.338  35.029  63.971  1.00  0.00    -0.339 OA
HETATM   19  C   UNL     1       4.031  36.151  63.602  1.00  0.00     0.102 A 
HETATM   20  C   UNL     1       4.765  36.936  64.495  1.00  0.00     0.102 A 
HETATM   21  C   UNL     1       4.015  36.473  62.246  1.00  0.00     0.039 A 
HETATM   22  O   UNL     1       4.853  36.660  65.833  1.00  0.00    -0.346 OA
HETATM   23  C   UNL     1       5.511  38.016  64.028  1.00  0.00     0.039 A 
HETATM   24  C   UNL     1       3.776  35.823  66.258  1.00  0.00     0.209 C 
HETATM   25  C   UNL     1       5.503  38.330  62.668  1.00  0.00     0.003 A 
HETATM   26  C   UNL     1       4.751  37.563  61.779  1.00  0.00     0.003 A 
ENDBRANCH  16  17
ENDBRANCH  13  16
ENDBRANCH   3  12
BRANCH   9  27
HETATM   27  C   UNL     1       7.050  29.951  56.917  1.00  0.00     0.236 C 
BRANCH  27  28
HETATM   28  C   UNL     1       7.852  28.713  56.492  1.00  0.00     0.240 C 
HETATM   29  N   UNL     1       7.256  27.497  56.769  1.00  0.00    -0.326 N 
HETATM   30  H   UNL     1       6.450  27.512  57.383  1.00  0.00     0.169 HD
HETATM   31  O   UNL     1       8.928  28.868  55.917  1.00  0.00    -0.271 OA
BRANCH  29  32
HETATM   32  C   UNL     1       7.658  26.222  56.318  1.00  0.00     0.035 A 
HETATM   33  C   UNL     1       7.330  25.694  55.066  1.00  0.00     0.045 A 
HETATM   34  C   UNL     1       7.730  24.398  54.697  1.00  0.00     0.050 A 
HETATM   35  C   UNL     1       8.469  23.627  55.607  1.00  0.00     0.016 A 
HETATM   36  C   UNL     1       8.802  24.145  56.856  1.00  0.00     0.003 A 
HETATM   37  C   UNL     1       8.399  25.434  57.209  1.00  0.00     0.029 A 
BRANCH  34  38
HETATM   38  C   UNL     1       7.365  23.822  53.350  1.00  0.00     0.417 C 
HETATM   39  F   UNL     1       6.129  24.183  52.908  1.00  0.00    -0.166 F 
HETATM   40  F   UNL     1       8.236  24.197  52.370  1.00  0.00    -0.166 F 
HETATM   41  F   UNL     1       7.375  22.459  53.352  1.00  0.00    -0.166 F 
ENDBRANCH  34  38
ENDBRANCH  29  32
ENDBRANCH  27  28
ENDBRANCH   9  27
TORSDOF 7
ENDMDL
