MODEL 1
REMARK VINA RESULT:      -9.6      0.000      0.000
REMARK  3 active torsions:
REMARK  status: ('A' for Active; 'I' for Inactive)
REMARK    1  A    between atoms: C_6  and  N_7 
REMARK    2  A    between atoms: N_7  and  N_8 
REMARK    3  A    between atoms: C_9  and  C_10 
ROOT
HETATM    1  N   UNL     1       7.124  27.468  56.450  1.00  0.00    -0.108 N 
HETATM    2  H   UNL     1       6.271  27.797  56.002  1.00  0.00     0.208 HD
ENDROOT
BRANCH   1   3
HETATM    3  C   UNL     1       7.839  28.464  57.063  1.00  0.00     0.724 A 
HETATM    4  N   UNL     1       7.342  29.159  58.041  1.00  0.00    -0.062 NA
HETATM    5  C   UNL     1       8.137  30.176  58.600  1.00  0.00     0.091 A 
HETATM    6  C   UNL     1       9.432  30.455  58.153  1.00  0.00     0.062 A 
HETATM    7  C   UNL     1       7.612  30.949  59.639  1.00  0.00     0.033 A 
HETATM    8  C   UNL     1      10.198  31.478  58.722  1.00  0.00     0.019 A 
HETATM    9  C   UNL     1       9.960  29.635  57.052  1.00  0.00     0.272 A 
HETATM   10  C   UNL     1       9.659  32.240  59.758  1.00  0.00     0.001 A 
HETATM   11  C   UNL     1       8.368  31.976  60.215  1.00  0.00     0.002 A 
HETATM   12  N   UNL     1       9.098  28.684  56.578  1.00  0.00    -0.152 N 
HETATM   13  O   UNL     1      11.085  29.800  56.596  1.00  0.00    -0.267 OA
HETATM   14  H   UNL     1       9.393  28.093  55.815  1.00  0.00     0.187 HD
ENDBRANCH   1   3
BRANCH   1  15
HETATM   15  N   UNL     1       7.589  26.201  56.260  1.00  0.00    -0.172 NA
HETATM   16  C   UNL     1       7.036  25.550  55.283  1.00  0.00     0.152 C 
BRANCH  16  17
HETATM   17  C   UNL     1       7.467  24.174  54.937  1.00  0.00     0.003 A 
HETATM   18  C   UNL     1       7.784  23.796  53.611  1.00  0.00     0.025 A 
HETATM   19 BR   UNL     1       7.666  24.985  52.134  1.00  0.00    -0.050 Br
HETATM   20  C   UNL     1       8.208  22.489  53.328  1.00  0.00     0.059 A 
HETATM   21  C   UNL     1       8.305  21.599  54.376  1.00  0.00     0.106 A 
HETATM   22  C   UNL     1       7.997  21.962  55.664  1.00  0.00     0.106 A 
HETATM   23  O   UNL     1       8.705  20.303  54.284  1.00  0.00    -0.323 OA
HETATM   24  O   UNL     1       8.162  20.941  56.544  1.00  0.00    -0.323 OA
HETATM   25  C   UNL     1       7.575  23.235  55.978  1.00  0.00     0.054 A 
HETATM   26  C   UNL     1       8.618  19.891  55.666  1.00  0.00     0.352 A 
ENDBRANCH  16  17
ENDBRANCH   1  15
TORSDOF 3
ENDMDL
MODEL 2
REMARK VINA RESULT:      -9.2      3.054      8.571
REMARK  3 active torsions:
REMARK  status: ('A' for Active; 'I' for Inactive)
REMARK    1  A    between atoms: C_6  and  N_7 
REMARK    2  A    between atoms: N_7  and  N_8 
REMARK    3  A    between atoms: C_9  and  C_10 
ROOT
HETATM    1  N   UNL     1       4.695  26.323  56.628  1.00  0.00    -0.108 N 
HETATM    2  H   UNL     1       3.724  26.041  56.746  1.00  0.00     0.208 HD
ENDROOT
BRANCH   1   3
HETATM    3  C   UNL     1       5.404  25.505  55.788  1.00  0.00     0.724 A 
HETATM    4  N   UNL     1       6.401  24.789  56.213  1.00  0.00    -0.062 NA
HETATM    5  C   UNL     1       7.087  23.992  55.278  1.00  0.00     0.091 A 
HETATM    6  C   UNL     1       6.732  23.935  53.927  1.00  0.00     0.062 A 
HETATM    7  C   UNL     1       8.176  23.231  55.711  1.00  0.00     0.033 A 
HETATM    8  C   UNL     1       7.437  23.139  53.018  1.00  0.00     0.019 A 
HETATM    9  C   UNL     1       5.588  24.752  53.493  1.00  0.00     0.272 A 
HETATM   10  C   UNL     1       8.521  22.386  53.466  1.00  0.00     0.001 A 
HETATM   11  C   UNL     1       8.890  22.432  54.811  1.00  0.00     0.002 A 
HETATM   12  N   UNL     1       5.004  25.496  54.480  1.00  0.00    -0.152 N 
HETATM   13  O   UNL     1       5.199  24.764  52.331  1.00  0.00    -0.267 OA
HETATM   14  H   UNL     1       4.220  26.087  54.249  1.00  0.00     0.187 HD
ENDBRANCH   1   3
BRANCH   1  15
HETATM   15  N   UNL     1       5.257  27.292  57.406  1.00  0.00    -0.172 NA
HETATM   16  C   UNL     1       5.713  28.322  56.763  1.00  0.00     0.152 C 
BRANCH  16  17
HETATM   17  C   UNL     1       6.318  29.469  57.482  1.00  0.00     0.003 A 
HETATM   18  C   UNL     1       5.588  30.644  57.775  1.00  0.00     0.025 A 
HETATM   19 BR   UNL     1       3.776  30.898  57.261  1.00  0.00    -0.050 Br
HETATM   20  C   UNL     1       6.192  31.699  58.476  1.00  0.00     0.059 A 
HETATM   21  C   UNL     1       7.505  31.549  58.864  1.00  0.00     0.106 A 
HETATM   22  C   UNL     1       8.218  30.411  58.580  1.00  0.00     0.106 A 
HETATM   23  O   UNL     1       8.240  32.462  59.553  1.00  0.00    -0.323 OA
HETATM   24  O   UNL     1       9.490  30.464  59.053  1.00  0.00    -0.323 OA
HETATM   25  C   UNL     1       7.658  29.357  57.892  1.00  0.00     0.054 A 
HETATM   26  C   UNL     1       9.499  31.765  59.676  1.00  0.00     0.352 A 
ENDBRANCH  16  17
ENDBRANCH   1  15
TORSDOF 3
ENDMDL
MODEL 3
REMARK VINA RESULT:      -9.2      3.395      8.699
REMARK  3 active torsions:
REMARK  status: ('A' for Active; 'I' for Inactive)
REMARK    1  A    between atoms: C_6  and  N_7 
REMARK    2  A    between atoms: N_7  and  N_8 
REMARK    3  A    between atoms: C_9  and  C_10 
ROOT
HETATM    1  N   UNL     1       8.348  25.438  57.878  1.00  0.00    -0.108 N 
HETATM    2  H   UNL     1       9.230  25.508  58.381  1.00  0.00     0.208 HD
ENDROOT
BRANCH   1   3
HETATM    3  C   UNL     1       8.296  24.380  57.007  1.00  0.00     0.724 A 
HETATM    4  N   UNL     1       8.185  24.556  55.726  1.00  0.00    -0.062 NA
HETATM    5  C   UNL     1       8.119  23.414  54.906  1.00  0.00     0.091 A 
HETATM    6  C   UNL     1       8.179  22.113  55.414  1.00  0.00     0.062 A 
HETATM    7  C   UNL     1       7.977  23.582  53.526  1.00  0.00     0.033 A 
HETATM    8  C   UNL     1       8.103  20.996  54.576  1.00  0.00     0.019 A 
HETATM    9  C   UNL     1       8.318  21.962  56.871  1.00  0.00     0.272 A 
HETATM   10  C   UNL     1       7.961  21.181  53.202  1.00  0.00     0.001 A 
HETATM   11  C   UNL     1       7.898  22.472  52.677  1.00  0.00     0.002 A 
HETATM   12  N   UNL     1       8.361  23.136  57.571  1.00  0.00    -0.152 N 
HETATM   13  O   UNL     1       8.386  20.863  57.409  1.00  0.00    -0.267 OA
HETATM   14  H   UNL     1       8.446  23.104  58.575  1.00  0.00     0.187 HD
ENDBRANCH   1   3
BRANCH   1  15
HETATM   15  N   UNL     1       7.415  26.431  57.929  1.00  0.00    -0.172 NA
HETATM   16  C   UNL     1       7.850  27.615  57.626  1.00  0.00     0.152 C 
BRANCH  16  17
HETATM   17  C   UNL     1       6.940  28.785  57.604  1.00  0.00     0.003 A 
HETATM   18  C   UNL     1       7.345  30.062  58.056  1.00  0.00     0.025 A 
HETATM   19 BR   UNL     1       9.072  30.415  58.764  1.00  0.00    -0.050 Br
HETATM   20  C   UNL     1       6.459  31.149  57.998  1.00  0.00     0.059 A 
HETATM   21  C   UNL     1       5.198  30.930  57.490  1.00  0.00     0.106 A 
HETATM   22  C   UNL     1       4.800  29.691  57.052  1.00  0.00     0.106 A 
HETATM   23  O   UNL     1       4.221  31.865  57.355  1.00  0.00    -0.323 OA
HETATM   24  O   UNL     1       3.524  29.690  56.587  1.00  0.00    -0.323 OA
HETATM   25  C   UNL     1       5.641  28.601  57.096  1.00  0.00     0.054 A 
HETATM   26  C   UNL     1       3.161  31.073  56.775  1.00  0.00     0.352 A 
ENDBRANCH  16  17
ENDBRANCH   1  15
TORSDOF 3
ENDMDL
MODEL 4
REMARK VINA RESULT:      -9.2      2.432      8.943
REMARK  3 active torsions:
REMARK  status: ('A' for Active; 'I' for Inactive)
REMARK    1  A    between atoms: C_6  and  N_7 
REMARK    2  A    between atoms: N_7  and  N_8 
REMARK    3  A    between atoms: C_9  and  C_10 
ROOT
HETATM    1  N   UNL     1       7.381  26.765  55.475  1.00  0.00    -0.108 N 
HETATM    2  H   UNL     1       6.725  27.114  54.779  1.00  0.00     0.208 HD
ENDROOT
BRANCH   1   3
HETATM    3  C   UNL     1       7.620  25.419  55.379  1.00  0.00     0.724 A 
HETATM    4  N   UNL     1       7.571  24.797  54.240  1.00  0.00    -0.062 NA
HETATM    5  C   UNL     1       7.809  23.411  54.234  1.00  0.00     0.091 A 
HETATM    6  C   UNL     1       8.104  22.688  55.394  1.00  0.00     0.062 A 
HETATM    7  C   UNL     1       7.739  22.720  53.021  1.00  0.00     0.033 A 
HETATM    8  C   UNL     1       8.329  21.308  55.360  1.00  0.00     0.019 A 
HETATM    9  C   UNL     1       8.162  23.436  56.660  1.00  0.00     0.272 A 
HETATM   10  C   UNL     1       8.255  20.634  54.142  1.00  0.00     0.001 A 
HETATM   11  C   UNL     1       7.961  21.339  52.974  1.00  0.00     0.002 A 
HETATM   12  N   UNL     1       7.903  24.774  56.551  1.00  0.00    -0.152 N 
HETATM   13  O   UNL     1       8.418  22.892  57.728  1.00  0.00    -0.267 OA
HETATM   14  H   UNL     1       7.917  25.345  57.383  1.00  0.00     0.187 HD
ENDBRANCH   1   3
BRANCH   1  15
HETATM   15  N   UNL     1       7.798  27.542  56.516  1.00  0.00    -0.172 NA
HETATM   16  C   UNL     1       7.698  28.821  56.327  1.00  0.00     0.152 C 
BRANCH  16  17
HETATM   17  C   UNL     1       8.079  29.786  57.386  1.00  0.00     0.003 A 
HETATM   18  C   UNL     1       9.424  30.159  57.617  1.00  0.00     0.025 A 
HETATM   19 BR   UNL     1      10.884  29.450  56.628  1.00  0.00    -0.050 Br
HETATM   20  C   UNL     1       9.740  31.092  58.615  1.00  0.00     0.059 A 
HETATM   21  C   UNL     1       8.707  31.627  59.352  1.00  0.00     0.106 A 
HETATM   22  C   UNL     1       7.400  31.267  59.132  1.00  0.00     0.106 A 
HETATM   23  O   UNL     1       8.831  32.544  60.347  1.00  0.00    -0.323 OA
HETATM   24  O   UNL     1       6.538  31.911  59.961  1.00  0.00    -0.323 OA
HETATM   25  C   UNL     1       7.052  30.352  58.163  1.00  0.00     0.054 A 
HETATM   26  C   UNL     1       7.449  32.726  60.727  1.00  0.00     0.352 A 
ENDBRANCH  16  17
ENDBRANCH   1  15
TORSDOF 3
ENDMDL
MODEL 5
REMARK VINA RESULT:      -9.1      2.691      8.686
REMARK  3 active torsions:
REMARK  status: ('A' for Active; 'I' for Inactive)
REMARK    1  A    between atoms: C_6  and  N_7 
REMARK    2  A    between atoms: N_7  and  N_8 
REMARK    3  A    between atoms: C_9  and  C_10 
ROOT
HETATM    1  N   UNL     1       8.486  24.928  57.700  1.00  0.00    -0.108 N 
HETATM    2  H   UNL     1       9.333  24.729  58.229  1.00  0.00     0.208 HD
ENDROOT
BRANCH   1   3
HETATM    3  C   UNL     1       8.337  24.139  56.589  1.00  0.00     0.724 A 
HETATM    4  N   UNL     1       8.643  22.877  56.602  1.00  0.00    -0.062 NA
HETATM    5  C   UNL     1       8.476  22.145  55.412  1.00  0.00     0.091 A 
HETATM    6  C   UNL     1       7.990  22.718  54.233  1.00  0.00     0.062 A 
HETATM    7  C   UNL     1       8.821  20.791  55.399  1.00  0.00     0.033 A 
HETATM    8  C   UNL     1       7.842  21.968  53.062  1.00  0.00     0.019 A 
HETATM    9  C   UNL     1       7.643  24.147  54.268  1.00  0.00     0.272 A 
HETATM   10  C   UNL     1       8.190  20.618  53.066  1.00  0.00     0.001 A 
HETATM   11  C   UNL     1       8.679  20.030  54.233  1.00  0.00     0.002 A 
HETATM   12  N   UNL     1       7.855  24.762  55.471  1.00  0.00    -0.152 N 
HETATM   13  O   UNL     1       7.204  24.736  53.287  1.00  0.00    -0.267 OA
HETATM   14  H   UNL     1       7.647  25.745  55.562  1.00  0.00     0.187 HD
ENDBRANCH   1   3
BRANCH   1  15
HETATM   15  N   UNL     1       7.711  26.016  57.974  1.00  0.00    -0.172 NA
HETATM   16  C   UNL     1       8.090  27.121  57.410  1.00  0.00     0.152 C 
BRANCH  16  17
HETATM   17  C   UNL     1       7.322  28.376  57.589  1.00  0.00     0.003 A 
HETATM   18  C   UNL     1       6.076  28.594  56.956  1.00  0.00     0.025 A 
HETATM   19 BR   UNL     1       5.267  27.330  55.791  1.00  0.00    -0.050 Br
HETATM   20  C   UNL     1       5.371  29.788  57.169  1.00  0.00     0.059 A 
HETATM   21  C   UNL     1       5.928  30.728  58.008  1.00  0.00     0.106 A 
HETATM   22  C   UNL     1       7.138  30.521  58.623  1.00  0.00     0.106 A 
HETATM   23  O   UNL     1       5.381  31.930  58.330  1.00  0.00    -0.323 OA
HETATM   24  O   UNL     1       7.505  31.566  59.410  1.00  0.00    -0.323 OA
HETATM   25  C   UNL     1       7.859  29.363  58.436  1.00  0.00     0.054 A 
HETATM   26  C   UNL     1       6.385  32.456  59.227  1.00  0.00     0.352 A 
ENDBRANCH  16  17
ENDBRANCH   1  15
TORSDOF 3
ENDMDL
MODEL 6
REMARK VINA RESULT:      -9.0      2.487      8.686
REMARK  3 active torsions:
REMARK  status: ('A' for Active; 'I' for Inactive)
REMARK    1  A    between atoms: C_6  and  N_7 
REMARK    2  A    between atoms: N_7  and  N_8 
REMARK    3  A    between atoms: C_9  and  C_10 
ROOT
HETATM    1  N   UNL     1       6.863  26.043  54.478  1.00  0.00    -0.108 N 
HETATM    2  H   UNL     1       6.102  26.114  53.805  1.00  0.00     0.208 HD
ENDROOT
BRANCH   1   3
HETATM    3  C   UNL     1       7.313  24.763  54.663  1.00  0.00     0.724 A 
HETATM    4  N   UNL     1       7.394  23.918  53.679  1.00  0.00    -0.062 NA
HETATM    5  C   UNL     1       7.848  22.617  53.962  1.00  0.00     0.091 A 
HETATM    6  C   UNL     1       8.222  22.208  55.246  1.00  0.00     0.062 A 
HETATM    7  C   UNL     1       7.921  21.687  52.922  1.00  0.00     0.033 A 
HETATM    8  C   UNL     1       8.662  20.905  55.499  1.00  0.00     0.019 A 
HETATM    9  C   UNL     1       8.127  23.201  56.327  1.00  0.00     0.272 A 
HETATM   10  C   UNL     1       8.729  19.989  54.450  1.00  0.00     0.001 A 
HETATM   11  C   UNL     1       8.359  20.380  53.163  1.00  0.00     0.002 A 
HETATM   12  N   UNL     1       7.663  24.429  55.942  1.00  0.00    -0.152 N 
HETATM   13  O   UNL     1       8.437  22.938  57.483  1.00  0.00    -0.267 OA
HETATM   14  H   UNL     1       7.564  25.154  56.636  1.00  0.00     0.187 HD
ENDBRANCH   1   3
BRANCH   1  15
HETATM   15  N   UNL     1       7.229  27.102  55.256  1.00  0.00    -0.172 NA
HETATM   16  C   UNL     1       6.249  27.750  55.805  1.00  0.00     0.152 C 
BRANCH  16  17
HETATM   17  C   UNL     1       6.498  28.901  56.705  1.00  0.00     0.003 A 
HETATM   18  C   UNL     1       5.771  30.109  56.602  1.00  0.00     0.025 A 
HETATM   19 BR   UNL     1       4.426  30.406  55.293  1.00  0.00    -0.050 Br
HETATM   20  C   UNL     1       6.023  31.168  57.489  1.00  0.00     0.059 A 
HETATM   21  C   UNL     1       6.992  30.988  58.452  1.00  0.00     0.106 A 
HETATM   22  C   UNL     1       7.702  29.817  58.554  1.00  0.00     0.106 A 
HETATM   23  O   UNL     1       7.358  31.900  59.391  1.00  0.00    -0.323 OA
HETATM   24  O   UNL     1       8.604  29.844  59.569  1.00  0.00    -0.323 OA
HETATM   25  C   UNL     1       7.483  28.759  57.700  1.00  0.00     0.054 A 
HETATM   26  C   UNL     1       8.379  31.165  60.103  1.00  0.00     0.352 A 
ENDBRANCH  16  17
ENDBRANCH   1  15
TORSDOF 3
ENDMDL
MODEL 7
REMARK VINA RESULT:      -8.9      5.190      8.634
REMARK  3 active torsions:
REMARK  status: ('A' for Active; 'I' for Inactive)
REMARK    1  A    between atoms: C_6  and  N_7 
REMARK    2  A    between atoms: N_7  and  N_8 
REMARK    3  A    between atoms: C_9  and  C_10 
ROOT
HETATM    1  N   UNL     1       6.517  26.016  54.167  1.00  0.00    -0.108 N 
HETATM    2  H   UNL     1       7.013  26.792  54.601  1.00  0.00     0.208 HD
ENDROOT
BRANCH   1   3
HETATM    3  C   UNL     1       7.063  24.791  54.450  1.00  0.00     0.724 A 
HETATM    4  N   UNL     1       7.173  23.867  53.544  1.00  0.00    -0.062 NA
HETATM    5  C   UNL     1       7.727  22.631  53.926  1.00  0.00     0.091 A 
HETATM    6  C   UNL     1       8.169  22.369  55.227  1.00  0.00     0.062 A 
HETATM    7  C   UNL     1       7.835  21.616  52.971  1.00  0.00     0.033 A 
HETATM    8  C   UNL     1       8.708  21.128  55.580  1.00  0.00     0.019 A 
HETATM    9  C   UNL     1       8.037  23.449  56.217  1.00  0.00     0.272 A 
HETATM   10  C   UNL     1       8.808  20.126  54.615  1.00  0.00     0.001 A 
HETATM   11  C   UNL     1       8.371  20.370  53.313  1.00  0.00     0.002 A 
HETATM   12  N   UNL     1       7.475  24.601  55.740  1.00  0.00    -0.152 N 
HETATM   13  O   UNL     1       8.400  23.316  57.379  1.00  0.00    -0.267 OA
HETATM   14  H   UNL     1       7.346  25.379  56.370  1.00  0.00     0.187 HD
ENDBRANCH   1   3
BRANCH   1  15
HETATM   15  N   UNL     1       5.545  26.221  53.234  1.00  0.00    -0.172 NA
HETATM   16  C   UNL     1       5.882  26.985  52.241  1.00  0.00     0.152 C 
BRANCH  16  17
HETATM   17  C   UNL     1       4.939  27.267  51.133  1.00  0.00     0.003 A 
HETATM   18  C   UNL     1       4.073  28.385  51.148  1.00  0.00     0.025 A 
HETATM   19 BR   UNL     1       3.999  29.624  52.587  1.00  0.00    -0.050 Br
HETATM   20  C   UNL     1       3.209  28.629  50.069  1.00  0.00     0.059 A 
HETATM   21  C   UNL     1       3.236  27.751  49.008  1.00  0.00     0.106 A 
HETATM   22  C   UNL     1       4.074  26.663  48.991  1.00  0.00     0.106 A 
HETATM   23  O   UNL     1       2.477  27.838  47.884  1.00  0.00    -0.323 OA
HETATM   24  O   UNL     1       3.947  25.928  47.855  1.00  0.00    -0.323 OA
HETATM   25  C   UNL     1       4.933  26.391  50.033  1.00  0.00     0.054 A 
HETATM   26  C   UNL     1       2.937  26.681  47.152  1.00  0.00     0.352 A 
ENDBRANCH  16  17
ENDBRANCH   1  15
TORSDOF 3
ENDMDL
MODEL 8
REMARK VINA RESULT:      -8.8      2.933      4.340
REMARK  3 active torsions:
REMARK  status: ('A' for Active; 'I' for Inactive)
REMARK    1  A    between atoms: C_6  and  N_7 
REMARK    2  A    between atoms: N_7  and  N_8 
REMARK    3  A    between atoms: C_9  and  C_10 
ROOT
HETATM    1  N   UNL     1       7.422  30.669  58.487  1.00  0.00    -0.108 N 
HETATM    2  H   UNL     1       7.401  31.395  57.774  1.00  0.00     0.208 HD
ENDROOT
BRANCH   1   3
HETATM    3  C   UNL     1       7.473  31.157  59.766  1.00  0.00     0.724 A 
HETATM    4  N   UNL     1       6.811  32.217  60.119  1.00  0.00    -0.062 NA
HETATM    5  C   UNL     1       6.935  32.662  61.448  1.00  0.00     0.091 A 
HETATM    6  C   UNL     1       7.728  32.006  62.395  1.00  0.00     0.062 A 
HETATM    7  C   UNL     1       6.248  33.813  61.841  1.00  0.00     0.033 A 
HETATM    8  C   UNL     1       7.839  32.475  63.707  1.00  0.00     0.019 A 
HETATM    9  C   UNL     1       8.450  30.802  61.954  1.00  0.00     0.272 A 
HETATM   10  C   UNL     1       7.147  33.625  64.083  1.00  0.00     0.001 A 
HETATM   11  C   UNL     1       6.353  34.293  63.151  1.00  0.00     0.002 A 
HETATM   12  N   UNL     1       8.266  30.467  60.641  1.00  0.00    -0.152 N 
HETATM   13  O   UNL     1       9.165  30.156  62.712  1.00  0.00    -0.267 OA
HETATM   14  H   UNL     1       8.740  29.657  60.272  1.00  0.00     0.187 HD
ENDBRANCH   1   3
BRANCH   1  15
HETATM   15  N   UNL     1       7.598  29.355  58.163  1.00  0.00    -0.172 NA
HETATM   16  C   UNL     1       6.698  28.854  57.375  1.00  0.00     0.152 C 
BRANCH  16  17
HETATM   17  C   UNL     1       6.780  27.449  56.911  1.00  0.00     0.003 A 
HETATM   18  C   UNL     1       5.965  26.952  55.867  1.00  0.00     0.025 A 
HETATM   19 BR   UNL     1       4.664  28.008  54.971  1.00  0.00    -0.050 Br
HETATM   20  C   UNL     1       6.089  25.621  55.442  1.00  0.00     0.059 A 
HETATM   21  C   UNL     1       7.023  24.826  56.070  1.00  0.00     0.106 A 
HETATM   22  C   UNL     1       7.815  25.304  57.085  1.00  0.00     0.106 A 
HETATM   23  O   UNL     1       7.281  23.522  55.782  1.00  0.00    -0.323 OA
HETATM   24  O   UNL     1       8.670  24.363  57.564  1.00  0.00    -0.323 OA
HETATM   25  C   UNL     1       7.719  26.604  57.529  1.00  0.00     0.054 A 
HETATM   26  C   UNL     1       8.333  23.235  56.730  1.00  0.00     0.352 A 
ENDBRANCH  16  17
ENDBRANCH   1  15
TORSDOF 3
ENDMDL
MODEL 9
REMARK VINA RESULT:      -8.6      5.876      8.057
REMARK  3 active torsions:
REMARK  status: ('A' for Active; 'I' for Inactive)
REMARK    1  A    between atoms: C_6  and  N_7 
REMARK    2  A    between atoms: N_7  and  N_8 
REMARK    3  A    between atoms: C_9  and  C_10 
ROOT
HETATM    1  N   UNL     1       6.010  26.279  50.559  1.00  0.00    -0.108 N 
HETATM    2  H   UNL     1       6.852  26.524  50.043  1.00  0.00     0.208 HD
ENDROOT
BRANCH   1   3
HETATM    3  C   UNL     1       4.907  27.001  50.183  1.00  0.00     0.724 A 
HETATM    4  N   UNL     1       4.448  26.964  48.969  1.00  0.00    -0.062 NA
HETATM    5  C   UNL     1       3.323  27.752  48.665  1.00  0.00     0.091 A 
HETATM    6  C   UNL     1       2.683  28.556  49.612  1.00  0.00     0.062 A 
HETATM    7  C   UNL     1       2.827  27.742  47.358  1.00  0.00     0.033 A 
HETATM    8  C   UNL     1       1.571  29.336  49.279  1.00  0.00     0.019 A 
HETATM    9  C   UNL     1       3.229  28.557  50.978  1.00  0.00     0.272 A 
HETATM   10  C   UNL     1       1.088  29.315  47.971  1.00  0.00     0.001 A 
HETATM   11  C   UNL     1       1.716  28.519  47.012  1.00  0.00     0.002 A 
HETATM   12  N   UNL     1       4.329  27.765  51.159  1.00  0.00    -0.152 N 
HETATM   13  O   UNL     1       2.734  29.225  51.878  1.00  0.00    -0.267 OA
HETATM   14  H   UNL     1       4.760  27.727  52.071  1.00  0.00     0.187 HD
ENDBRANCH   1   3
BRANCH   1  15
HETATM   15  N   UNL     1       6.053  25.464  51.652  1.00  0.00    -0.172 NA
HETATM   16  C   UNL     1       7.240  25.090  52.017  1.00  0.00     0.152 C 
BRANCH  16  17
HETATM   17  C   UNL     1       7.442  24.232  53.209  1.00  0.00     0.003 A 
HETATM   18  C   UNL     1       7.442  24.756  54.522  1.00  0.00     0.025 A 
HETATM   19 BR   UNL     1       7.216  26.604  54.905  1.00  0.00    -0.050 Br
HETATM   20  C   UNL     1       7.616  23.907  55.625  1.00  0.00     0.059 A 
HETATM   21  C   UNL     1       7.783  22.561  55.386  1.00  0.00     0.106 A 
HETATM   22  C   UNL     1       7.786  22.048  54.112  1.00  0.00     0.106 A 
HETATM   23  O   UNL     1       7.956  21.600  56.331  1.00  0.00    -0.323 OA
HETATM   24  O   UNL     1       7.961  20.701  54.095  1.00  0.00    -0.323 OA
HETATM   25  C   UNL     1       7.620  22.852  53.006  1.00  0.00     0.054 A 
HETATM   26  C   UNL     1       8.062  20.419  55.506  1.00  0.00     0.352 A 
ENDBRANCH  16  17
ENDBRANCH   1  15
TORSDOF 3
ENDMDL
MODEL 10
REMARK VINA RESULT:      -8.3      4.497      6.477
REMARK  3 active torsions:
REMARK  status: ('A' for Active; 'I' for Inactive)
REMARK    1  A    between atoms: C_6  and  N_7 
REMARK    2  A    between atoms: N_7  and  N_8 
REMARK    3  A    between atoms: C_9  and  C_10 
ROOT
HETATM    1  N   UNL     1       7.556  31.977  60.011  1.00  0.00    -0.108 N 
HETATM    2  H   UNL     1       8.139  32.713  59.618  1.00  0.00     0.208 HD
ENDROOT
BRANCH   1   3
HETATM    3  C   UNL     1       6.947  32.329  61.187  1.00  0.00     0.724 A 
HETATM    4  N   UNL     1       7.625  32.784  62.197  1.00  0.00    -0.062 NA
HETATM    5  C   UNL     1       6.922  33.103  63.374  1.00  0.00     0.091 A 
HETATM    6  C   UNL     1       5.536  32.961  63.490  1.00  0.00     0.062 A 
HETATM    7  C   UNL     1       7.636  33.573  64.479  1.00  0.00     0.033 A 
HETATM    8  C   UNL     1       4.865  33.279  64.675  1.00  0.00     0.019 A 
HETATM    9  C   UNL     1       4.808  32.455  62.316  1.00  0.00     0.272 A 
HETATM   10  C   UNL     1       5.592  33.747  65.769  1.00  0.00     0.001 A 
HETATM   11  C   UNL     1       6.976  33.893  65.671  1.00  0.00     0.002 A 
HETATM   12  N   UNL     1       5.590  32.167  61.233  1.00  0.00    -0.152 N 
HETATM   13  O   UNL     1       3.592  32.302  62.320  1.00  0.00    -0.267 OA
HETATM   14  H   UNL     1       5.155  31.806  60.397  1.00  0.00     0.187 HD
ENDBRANCH   1   3
BRANCH   1  15
HETATM   15  N   UNL     1       7.570  30.709  59.508  1.00  0.00    -0.172 NA
HETATM   16  C   UNL     1       7.245  30.607  58.257  1.00  0.00     0.152 C 
BRANCH  16  17
HETATM   17  C   UNL     1       7.252  29.295  57.566  1.00  0.00     0.003 A 
HETATM   18  C   UNL     1       8.431  28.736  57.023  1.00  0.00     0.025 A 
HETATM   19 BR   UNL     1      10.120  29.605  57.087  1.00  0.00    -0.050 Br
HETATM   20  C   UNL     1       8.399  27.481  56.396  1.00  0.00     0.059 A 
HETATM   21  C   UNL     1       7.191  26.821  56.331  1.00  0.00     0.106 A 
HETATM   22  C   UNL     1       6.043  27.361  56.856  1.00  0.00     0.106 A 
HETATM   23  O   UNL     1       6.980  25.601  55.770  1.00  0.00    -0.323 OA
HETATM   24  O   UNL     1       4.966  26.551  56.691  1.00  0.00    -0.323 OA
HETATM   25  C   UNL     1       6.037  28.591  57.476  1.00  0.00     0.054 A 
HETATM   26  C   UNL     1       5.565  25.431  56.007  1.00  0.00     0.352 A 
ENDBRANCH  16  17
ENDBRANCH   1  15
TORSDOF 3
ENDMDL
