MODEL 1
REMARK VINA RESULT:      -9.0      0.000      0.000
REMARK  4 active torsions:
REMARK  status: ('A' for Active; 'I' for Inactive)
REMARK    1  A    between atoms: O_2  and  C_3 
REMARK    2  A    between atoms: C_5  and  N_6 
REMARK    3  A    between atoms: C_10  and  C_11 
REMARK    4  A    between atoms: C_22  and  O_23 
ROOT
HETATM    1  N   UNL     1       5.233  26.483  51.514  1.00  0.00    -0.315 N 
HETATM    2  C   UNL     1       4.649  26.804  52.748  1.00  0.00     0.225 C 
HETATM    3  O   UNL     1       3.815  27.658  53.007  1.00  0.00    -0.273 OA
HETATM    4  C   UNL     1       5.202  25.847  53.781  1.00  0.00     0.117 C 
HETATM    5  C   UNL     1       6.513  25.430  53.136  1.00  0.00     0.082 C 
HETATM    6  C   UNL     1       6.133  25.358  51.663  1.00  0.00     0.145 C 
ENDROOT
BRANCH   1   7
HETATM    7  C   UNL     1       5.044  27.168  50.280  1.00  0.00     0.073 A 
HETATM    8  C   UNL     1       4.490  26.481  49.183  1.00  0.00     0.069 A 
HETATM    9  C   UNL     1       4.202  27.136  47.982  1.00  0.00     0.070 A 
HETATM   10  C   UNL     1       4.513  28.486  47.845  1.00  0.00     0.039 A 
HETATM   11  C   UNL     1       5.083  29.186  48.905  1.00  0.00     0.042 A 
HETATM   12  C   UNL     1       5.362  28.534  50.113  1.00  0.00     0.095 A 
BRANCH   9  13
HETATM   13  O   UNL     1       3.615  26.570  46.884  1.00  0.00    -0.356 OA
HETATM   14  C   UNL     1       2.823  25.411  47.121  1.00  0.00     0.210 C 
ENDBRANCH   9  13
BRANCH  12  15
HETATM   15  O   UNL     1       5.926  29.234  51.149  1.00  0.00    -0.354 OA
HETATM   16  C   UNL     1       5.260  30.465  51.427  1.00  0.00     0.210 C 
ENDBRANCH  12  15
ENDBRANCH   1   7
BRANCH   5  17
HETATM   17  C   UNL     1       7.086  24.173  53.677  1.00  0.00     0.111 A 
HETATM   18  N   UNL     1       7.112  23.784  54.934  1.00  0.00    -0.233 NA
HETATM   19  C   UNL     1       7.646  22.517  54.922  1.00  0.00     0.085 A 
HETATM   20  C   UNL     1       7.978  22.134  53.629  1.00  0.00     0.062 A 
HETATM   21  C   UNL     1       7.865  21.623  55.979  1.00  0.00     0.034 A 
HETATM   22  N   UNL     1       7.634  23.213  52.859  1.00  0.00    -0.342 N 
HETATM   23  C   UNL     1       8.526  20.889  53.313  1.00  0.00     0.032 A 
HETATM   24  H   UNL     1       7.729  23.273  51.855  1.00  0.00     0.167 HD
HETATM   25  C   UNL     1       8.732  20.006  54.380  1.00  0.00     0.002 A 
HETATM   26  C   UNL     1       8.408  20.364  55.691  1.00  0.00     0.002 A 
ENDBRANCH   5  17
TORSDOF 4
ENDMDL
MODEL 2
REMARK VINA RESULT:      -8.9      5.958      8.167
REMARK  4 active torsions:
REMARK  status: ('A' for Active; 'I' for Inactive)
REMARK    1  A    between atoms: O_2  and  C_3 
REMARK    2  A    between atoms: C_5  and  N_6 
REMARK    3  A    between atoms: C_10  and  C_11 
REMARK    4  A    between atoms: C_22  and  O_23 
ROOT
HETATM    1  N   UNL     1       7.736  29.236  57.138  1.00  0.00    -0.315 N 
HETATM    2  C   UNL     1       6.676  29.464  56.249  1.00  0.00     0.225 C 
HETATM    3  O   UNL     1       6.056  30.495  56.039  1.00  0.00    -0.273 OA
HETATM    4  C   UNL     1       6.418  28.176  55.501  1.00  0.00     0.117 C 
HETATM    5  C   UNL     1       6.989  27.147  56.462  1.00  0.00     0.082 C 
HETATM    6  C   UNL     1       8.209  27.873  57.014  1.00  0.00     0.145 C 
ENDROOT
BRANCH   1   7
HETATM    7  C   UNL     1       8.269  30.159  58.083  1.00  0.00     0.073 A 
HETATM    8  C   UNL     1       7.523  30.485  59.231  1.00  0.00     0.069 A 
HETATM    9  C   UNL     1       8.044  31.314  60.229  1.00  0.00     0.070 A 
HETATM   10  C   UNL     1       9.310  31.871  60.066  1.00  0.00     0.039 A 
HETATM   11  C   UNL     1      10.061  31.585  58.930  1.00  0.00     0.042 A 
HETATM   12  C   UNL     1       9.545  30.746  57.934  1.00  0.00     0.095 A 
BRANCH   9  13
HETATM   13  O   UNL     1       7.421  31.642  61.402  1.00  0.00    -0.356 OA
HETATM   14  C   UNL     1       8.170  31.431  62.594  1.00  0.00     0.210 C 
ENDBRANCH   9  13
BRANCH  12  15
HETATM   15  O   UNL     1      10.295  30.475  56.818  1.00  0.00    -0.354 OA
HETATM   16  C   UNL     1      11.435  29.661  57.088  1.00  0.00     0.210 C 
ENDBRANCH  12  15
ENDBRANCH   1   7
BRANCH   5  17
HETATM   17  C   UNL     1       7.293  25.835  55.841  1.00  0.00     0.111 A 
HETATM   18  N   UNL     1       7.327  24.660  56.433  1.00  0.00    -0.233 NA
HETATM   19  C   UNL     1       7.547  23.743  55.433  1.00  0.00     0.085 A 
HETATM   20  C   UNL     1       7.677  24.377  54.203  1.00  0.00     0.062 A 
HETATM   21  C   UNL     1       7.633  22.346  55.495  1.00  0.00     0.034 A 
HETATM   22  N   UNL     1       7.535  25.708  54.493  1.00  0.00    -0.342 N 
HETATM   23  C   UNL     1       7.892  23.693  53.005  1.00  0.00     0.032 A 
HETATM   24  H   UNL     1       7.562  26.462  53.821  1.00  0.00     0.167 HD
HETATM   25  C   UNL     1       7.968  22.297  53.085  1.00  0.00     0.002 A 
HETATM   26  C   UNL     1       7.842  21.632  54.308  1.00  0.00     0.002 A 
ENDBRANCH   5  17
TORSDOF 4
ENDMDL
MODEL 3
REMARK VINA RESULT:      -8.9      0.945      2.679
REMARK  4 active torsions:
REMARK  status: ('A' for Active; 'I' for Inactive)
REMARK    1  A    between atoms: O_2  and  C_3 
REMARK    2  A    between atoms: C_5  and  N_6 
REMARK    3  A    between atoms: C_10  and  C_11 
REMARK    4  A    between atoms: C_22  and  O_23 
ROOT
HETATM    1  N   UNL     1       5.347  26.762  51.778  1.00  0.00    -0.315 N 
HETATM    2  C   UNL     1       4.630  26.877  52.978  1.00  0.00     0.225 C 
HETATM    3  O   UNL     1       3.738  27.658  53.271  1.00  0.00    -0.273 OA
HETATM    4  C   UNL     1       5.119  25.791  53.911  1.00  0.00     0.117 C 
HETATM    5  C   UNL     1       6.504  25.513  53.352  1.00  0.00     0.082 C 
HETATM    6  C   UNL     1       6.276  25.654  51.853  1.00  0.00     0.145 C 
ENDROOT
BRANCH   1   7
HETATM    7  C   UNL     1       5.252  27.620  50.645  1.00  0.00     0.073 A 
HETATM    8  C   UNL     1       5.757  28.931  50.723  1.00  0.00     0.069 A 
HETATM    9  C   UNL     1       5.768  29.776  49.609  1.00  0.00     0.070 A 
HETATM   10  C   UNL     1       5.224  29.333  48.406  1.00  0.00     0.039 A 
HETATM   11  C   UNL     1       4.697  28.049  48.306  1.00  0.00     0.042 A 
HETATM   12  C   UNL     1       4.695  27.197  49.418  1.00  0.00     0.095 A 
BRANCH   9  13
HETATM   13  O   UNL     1       6.286  31.042  49.572  1.00  0.00    -0.356 OA
HETATM   14  C   UNL     1       5.627  32.016  50.373  1.00  0.00     0.210 C 
ENDBRANCH   9  13
BRANCH  12  15
HETATM   15  O   UNL     1       4.169  25.935  49.306  1.00  0.00    -0.354 OA
HETATM   16  C   UNL     1       3.257  25.798  48.218  1.00  0.00     0.210 C 
ENDBRANCH  12  15
ENDBRANCH   1   7
BRANCH   5  17
HETATM   17  C   UNL     1       7.075  24.205  53.759  1.00  0.00     0.111 A 
HETATM   18  N   UNL     1       7.139  23.707  54.975  1.00  0.00    -0.233 NA
HETATM   19  C   UNL     1       7.651  22.439  54.833  1.00  0.00     0.085 A 
HETATM   20  C   UNL     1       7.931  22.167  53.499  1.00  0.00     0.062 A 
HETATM   21  C   UNL     1       7.893  21.452  55.797  1.00  0.00     0.034 A 
HETATM   22  N   UNL     1       7.578  23.315  52.840  1.00  0.00    -0.342 N 
HETATM   23  C   UNL     1       8.448  20.948  53.055  1.00  0.00     0.032 A 
HETATM   24  H   UNL     1       7.639  23.462  51.843  1.00  0.00     0.167 HD
HETATM   25  C   UNL     1       8.676  19.972  54.032  1.00  0.00     0.002 A 
HETATM   26  C   UNL     1       8.404  20.216  55.380  1.00  0.00     0.002 A 
ENDBRANCH   5  17
TORSDOF 4
ENDMDL
MODEL 4
REMARK VINA RESULT:      -8.7      5.763      8.375
REMARK  4 active torsions:
REMARK  status: ('A' for Active; 'I' for Inactive)
REMARK    1  A    between atoms: O_2  and  C_3 
REMARK    2  A    between atoms: C_5  and  N_6 
REMARK    3  A    between atoms: C_10  and  C_11 
REMARK    4  A    between atoms: C_22  and  O_23 
ROOT
HETATM    1  N   UNL     1       6.728  26.579  55.961  1.00  0.00    -0.315 N 
HETATM    2  C   UNL     1       5.548  27.308  55.752  1.00  0.00     0.225 C 
HETATM    3  O   UNL     1       4.605  27.054  55.018  1.00  0.00    -0.273 OA
HETATM    4  C   UNL     1       5.587  28.515  56.663  1.00  0.00     0.117 C 
HETATM    5  C   UNL     1       7.080  28.673  56.893  1.00  0.00     0.082 C 
HETATM    6  C   UNL     1       7.544  27.225  56.968  1.00  0.00     0.145 C 
ENDROOT
BRANCH   1   7
HETATM    7  C   UNL     1       7.135  25.403  55.269  1.00  0.00     0.073 A 
HETATM    8  C   UNL     1       7.177  24.174  55.954  1.00  0.00     0.069 A 
HETATM    9  C   UNL     1       7.482  22.980  55.294  1.00  0.00     0.070 A 
HETATM   10  C   UNL     1       7.798  23.007  53.938  1.00  0.00     0.039 A 
HETATM   11  C   UNL     1       7.786  24.211  53.239  1.00  0.00     0.042 A 
HETATM   12  C   UNL     1       7.470  25.407  53.897  1.00  0.00     0.095 A 
BRANCH   9  13
HETATM   13  O   UNL     1       7.493  21.734  55.860  1.00  0.00    -0.356 OA
HETATM   14  C   UNL     1       8.025  20.684  55.059  1.00  0.00     0.210 C 
ENDBRANCH   9  13
BRANCH  12  15
HETATM   15  O   UNL     1       7.466  26.587  53.197  1.00  0.00    -0.354 OA
HETATM   16  C   UNL     1       6.480  26.628  52.167  1.00  0.00     0.210 C 
ENDBRANCH  12  15
ENDBRANCH   1   7
BRANCH   5  17
HETATM   17  C   UNL     1       7.431  29.485  58.084  1.00  0.00     0.111 A 
HETATM   18  N   UNL     1       8.482  29.347  58.863  1.00  0.00    -0.233 NA
HETATM   19  C   UNL     1       8.424  30.389  59.758  1.00  0.00     0.085 A 
HETATM   20  C   UNL     1       7.294  31.167  59.536  1.00  0.00     0.062 A 
HETATM   21  C   UNL     1       9.310  30.746  60.783  1.00  0.00     0.034 A 
HETATM   22  N   UNL     1       6.667  30.557  58.482  1.00  0.00    -0.342 N 
HETATM   23  C   UNL     1       6.983  32.302  60.287  1.00  0.00     0.032 A 
HETATM   24  H   UNL     1       5.811  30.871  58.046  1.00  0.00     0.167 HD
HETATM   25  C   UNL     1       7.883  32.648  61.302  1.00  0.00     0.002 A 
HETATM   26  C   UNL     1       9.028  31.885  61.548  1.00  0.00     0.002 A 
ENDBRANCH   5  17
TORSDOF 4
ENDMDL
MODEL 5
REMARK VINA RESULT:      -8.5      6.622      8.938
REMARK  4 active torsions:
REMARK  status: ('A' for Active; 'I' for Inactive)
REMARK    1  A    between atoms: O_2  and  C_3 
REMARK    2  A    between atoms: C_5  and  N_6 
REMARK    3  A    between atoms: C_10  and  C_11 
REMARK    4  A    between atoms: C_22  and  O_23 
ROOT
HETATM    1  N   UNL     1       7.572  28.147  56.157  1.00  0.00    -0.315 N 
HETATM    2  C   UNL     1       8.611  28.978  55.714  1.00  0.00     0.225 C 
HETATM    3  O   UNL     1       9.182  28.989  54.634  1.00  0.00    -0.273 OA
HETATM    4  C   UNL     1       8.919  29.959  56.823  1.00  0.00     0.117 C 
HETATM    5  C   UNL     1       8.405  29.210  58.041  1.00  0.00     0.082 C 
HETATM    6  C   UNL     1       7.160  28.527  57.492  1.00  0.00     0.145 C 
ENDROOT
BRANCH   1   7
HETATM    7  C   UNL     1       7.008  27.043  55.456  1.00  0.00     0.073 A 
HETATM    8  C   UNL     1       7.521  25.750  55.671  1.00  0.00     0.069 A 
HETATM    9  C   UNL     1       6.940  24.625  55.076  1.00  0.00     0.070 A 
HETATM   10  C   UNL     1       5.860  24.788  54.212  1.00  0.00     0.039 A 
HETATM   11  C   UNL     1       5.346  26.057  53.963  1.00  0.00     0.042 A 
HETATM   12  C   UNL     1       5.920  27.183  54.567  1.00  0.00     0.095 A 
BRANCH   9  13
HETATM   13  O   UNL     1       7.330  23.328  55.268  1.00  0.00    -0.356 OA
HETATM   14  C   UNL     1       8.590  23.137  55.902  1.00  0.00     0.210 C 
ENDBRANCH   9  13
BRANCH  12  15
HETATM   15  O   UNL     1       5.406  28.429  54.310  1.00  0.00    -0.354 OA
HETATM   16  C   UNL     1       4.175  28.682  54.985  1.00  0.00     0.210 C 
ENDBRANCH  12  15
ENDBRANCH   1   7
BRANCH   5  17
HETATM   17  C   UNL     1       8.155  30.070  59.224  1.00  0.00     0.111 A 
HETATM   18  N   UNL     1       8.883  30.155  60.317  1.00  0.00    -0.233 NA
HETATM   19  C   UNL     1       8.311  31.153  61.070  1.00  0.00     0.085 A 
HETATM   20  C   UNL     1       7.189  31.670  60.434  1.00  0.00     0.062 A 
HETATM   21  C   UNL     1       8.702  31.684  62.307  1.00  0.00     0.034 A 
HETATM   22  N   UNL     1       7.098  30.948  59.273  1.00  0.00    -0.342 N 
HETATM   23  C   UNL     1       6.416  32.706  60.960  1.00  0.00     0.032 A 
HETATM   24  H   UNL     1       6.397  31.073  58.557  1.00  0.00     0.167 HD
HETATM   25  C   UNL     1       6.825  33.230  62.192  1.00  0.00     0.002 A 
HETATM   26  C   UNL     1       7.948  32.730  62.857  1.00  0.00     0.002 A 
ENDBRANCH   5  17
TORSDOF 4
ENDMDL
MODEL 6
REMARK VINA RESULT:      -8.5      7.688      9.843
REMARK  4 active torsions:
REMARK  status: ('A' for Active; 'I' for Inactive)
REMARK    1  A    between atoms: O_2  and  C_3 
REMARK    2  A    between atoms: C_5  and  N_6 
REMARK    3  A    between atoms: C_10  and  C_11 
REMARK    4  A    between atoms: C_22  and  O_23 
ROOT
HETATM    1  N   UNL     1       8.316  29.155  57.063  1.00  0.00    -0.315 N 
HETATM    2  C   UNL     1       9.631  29.640  57.104  1.00  0.00     0.225 C 
HETATM    3  O   UNL     1      10.560  29.414  56.343  1.00  0.00    -0.273 OA
HETATM    4  C   UNL     1       9.736  30.585  58.280  1.00  0.00     0.117 C 
HETATM    5  C   UNL     1       8.599  30.098  59.162  1.00  0.00     0.082 C 
HETATM    6  C   UNL     1       7.535  29.734  58.136  1.00  0.00     0.145 C 
ENDROOT
BRANCH   1   7
HETATM    7  C   UNL     1       7.793  28.192  56.154  1.00  0.00     0.073 A 
HETATM    8  C   UNL     1       7.260  28.617  54.922  1.00  0.00     0.069 A 
HETATM    9  C   UNL     1       6.820  27.701  53.962  1.00  0.00     0.070 A 
HETATM   10  C   UNL     1       6.862  26.338  54.244  1.00  0.00     0.039 A 
HETATM   11  C   UNL     1       7.363  25.889  55.463  1.00  0.00     0.042 A 
HETATM   12  C   UNL     1       7.814  26.805  56.421  1.00  0.00     0.095 A 
BRANCH   9  13
HETATM   13  O   UNL     1       6.341  28.015  52.719  1.00  0.00    -0.356 OA
HETATM   14  C   UNL     1       5.847  26.929  51.942  1.00  0.00     0.210 C 
ENDBRANCH   9  13
BRANCH  12  15
HETATM   15  O   UNL     1       8.302  26.349  57.620  1.00  0.00    -0.354 OA
HETATM   16  C   UNL     1       8.668  24.970  57.593  1.00  0.00     0.210 C 
ENDBRANCH  12  15
ENDBRANCH   1   7
BRANCH   5  17
HETATM   17  C   UNL     1       8.151  31.082  60.179  1.00  0.00     0.111 A 
HETATM   18  N   UNL     1       7.221  32.003  60.042  1.00  0.00    -0.233 NA
HETATM   19  C   UNL     1       7.094  32.591  61.278  1.00  0.00     0.085 A 
HETATM   20  C   UNL     1       7.987  32.033  62.185  1.00  0.00     0.062 A 
HETATM   21  C   UNL     1       6.225  33.602  61.709  1.00  0.00     0.034 A 
HETATM   22  N   UNL     1       8.664  31.092  61.454  1.00  0.00    -0.342 N 
HETATM   23  C   UNL     1       8.071  32.425  63.522  1.00  0.00     0.032 A 
HETATM   24  H   UNL     1       9.386  30.481  61.809  1.00  0.00     0.167 HD
HETATM   25  C   UNL     1       7.190  33.431  63.936  1.00  0.00     0.002 A 
HETATM   26  C   UNL     1       6.281  34.012  63.048  1.00  0.00     0.002 A 
ENDBRANCH   5  17
TORSDOF 4
ENDMDL
MODEL 7
REMARK VINA RESULT:      -8.4      3.791      5.952
REMARK  4 active torsions:
REMARK  status: ('A' for Active; 'I' for Inactive)
REMARK    1  A    between atoms: O_2  and  C_3 
REMARK    2  A    between atoms: C_5  and  N_6 
REMARK    3  A    between atoms: C_10  and  C_11 
REMARK    4  A    between atoms: C_22  and  O_23 
ROOT
HETATM    1  N   UNL     1       6.514  27.649  54.991  1.00  0.00    -0.315 N 
HETATM    2  C   UNL     1       6.398  27.684  53.594  1.00  0.00     0.225 C 
HETATM    3  O   UNL     1       6.191  28.640  52.862  1.00  0.00    -0.273 OA
HETATM    4  C   UNL     1       6.628  26.281  53.078  1.00  0.00     0.117 C 
HETATM    5  C   UNL     1       6.276  25.449  54.299  1.00  0.00     0.082 C 
HETATM    6  C   UNL     1       6.821  26.305  55.434  1.00  0.00     0.145 C 
ENDROOT
BRANCH   1   7
HETATM    7  C   UNL     1       6.313  28.735  55.889  1.00  0.00     0.073 A 
HETATM    8  C   UNL     1       5.004  29.104  56.250  1.00  0.00     0.069 A 
HETATM    9  C   UNL     1       4.762  30.103  57.198  1.00  0.00     0.070 A 
HETATM   10  C   UNL     1       5.835  30.784  57.766  1.00  0.00     0.039 A 
HETATM   11  C   UNL     1       7.141  30.457  57.411  1.00  0.00     0.042 A 
HETATM   12  C   UNL     1       7.385  29.449  56.470  1.00  0.00     0.095 A 
BRANCH   9  13
HETATM   13  O   UNL     1       3.531  30.492  57.653  1.00  0.00    -0.356 OA
HETATM   14  C   UNL     1       3.511  31.201  58.887  1.00  0.00     0.210 C 
ENDBRANCH   9  13
BRANCH  12  15
HETATM   15  O   UNL     1       8.676  29.137  56.127  1.00  0.00    -0.354 OA
HETATM   16  C   UNL     1       9.613  29.379  57.176  1.00  0.00     0.210 C 
ENDBRANCH  12  15
ENDBRANCH   1   7
BRANCH   5  17
HETATM   17  C   UNL     1       6.814  24.066  54.269  1.00  0.00     0.111 A 
HETATM   18  N   UNL     1       7.144  23.361  53.208  1.00  0.00    -0.233 NA
HETATM   19  C   UNL     1       7.685  22.192  53.690  1.00  0.00     0.085 A 
HETATM   20  C   UNL     1       7.660  22.173  55.079  1.00  0.00     0.062 A 
HETATM   21  C   UNL     1       8.234  21.103  53.000  1.00  0.00     0.034 A 
HETATM   22  N   UNL     1       7.080  23.365  55.422  1.00  0.00    -0.342 N 
HETATM   23  C   UNL     1       8.159  21.115  55.842  1.00  0.00     0.032 A 
HETATM   24  H   UNL     1       6.916  23.689  56.365  1.00  0.00     0.167 HD
HETATM   25  C   UNL     1       8.710  20.039  55.136  1.00  0.00     0.002 A 
HETATM   26  C   UNL     1       8.749  20.030  53.740  1.00  0.00     0.002 A 
ENDBRANCH   5  17
TORSDOF 4
ENDMDL
MODEL 8
REMARK VINA RESULT:      -8.2      8.187     10.544
REMARK  4 active torsions:
REMARK  status: ('A' for Active; 'I' for Inactive)
REMARK    1  A    between atoms: O_2  and  C_3 
REMARK    2  A    between atoms: C_5  and  N_6 
REMARK    3  A    between atoms: C_10  and  C_11 
REMARK    4  A    between atoms: C_22  and  O_23 
ROOT
HETATM    1  N   UNL     1       8.439  29.321  57.736  1.00  0.00    -0.315 N 
HETATM    2  C   UNL     1       9.615  30.061  57.547  1.00  0.00     0.225 C 
HETATM    3  O   UNL     1      10.468  29.943  56.680  1.00  0.00    -0.273 OA
HETATM    4  C   UNL     1       9.662  31.131  58.615  1.00  0.00     0.117 C 
HETATM    5  C   UNL     1       8.774  30.526  59.688  1.00  0.00     0.082 C 
HETATM    6  C   UNL     1       7.692  29.846  58.860  1.00  0.00     0.145 C 
ENDROOT
BRANCH   1   7
HETATM    7  C   UNL     1       8.023  28.179  56.993  1.00  0.00     0.073 A 
HETATM    8  C   UNL     1       8.563  26.916  57.303  1.00  0.00     0.069 A 
HETATM    9  C   UNL     1       8.117  25.755  56.663  1.00  0.00     0.070 A 
HETATM   10  C   UNL     1       7.153  25.850  55.664  1.00  0.00     0.039 A 
HETATM   11  C   UNL     1       6.618  27.088  55.320  1.00  0.00     0.042 A 
HETATM   12  C   UNL     1       7.055  28.251  55.968  1.00  0.00     0.095 A 
BRANCH   9  13
HETATM   13  O   UNL     1       8.539  24.482  56.934  1.00  0.00    -0.356 OA
HETATM   14  C   UNL     1       8.659  23.608  55.817  1.00  0.00     0.210 C 
ENDBRANCH   9  13
BRANCH  12  15
HETATM   15  O   UNL     1       6.522  29.466  55.618  1.00  0.00    -0.354 OA
HETATM   16  C   UNL     1       5.255  29.360  54.970  1.00  0.00     0.210 C 
ENDBRANCH  12  15
ENDBRANCH   1   7
BRANCH   5  17
HETATM   17  C   UNL     1       8.257  31.505  60.676  1.00  0.00     0.111 A 
HETATM   18  N   UNL     1       7.364  32.450  60.471  1.00  0.00    -0.233 NA
HETATM   19  C   UNL     1       7.138  33.024  61.699  1.00  0.00     0.085 A 
HETATM   20  C   UNL     1       7.932  32.432  62.674  1.00  0.00     0.062 A 
HETATM   21  C   UNL     1       6.256  34.049  62.065  1.00  0.00     0.034 A 
HETATM   22  N   UNL     1       8.652  31.486  61.993  1.00  0.00    -0.342 N 
HETATM   23  C   UNL     1       7.903  32.804  64.019  1.00  0.00     0.032 A 
HETATM   24  H   UNL     1       9.326  30.854  62.401  1.00  0.00     0.167 HD
HETATM   25  C   UNL     1       7.010  33.824  64.368  1.00  0.00     0.002 A 
HETATM   26  C   UNL     1       6.199  34.438  63.410  1.00  0.00     0.002 A 
ENDBRANCH   5  17
TORSDOF 4
ENDMDL
MODEL 9
REMARK VINA RESULT:      -8.2      9.932     12.002
REMARK  4 active torsions:
REMARK  status: ('A' for Active; 'I' for Inactive)
REMARK    1  A    between atoms: O_2  and  C_3 
REMARK    2  A    between atoms: C_5  and  N_6 
REMARK    3  A    between atoms: C_10  and  C_11 
REMARK    4  A    between atoms: C_22  and  O_23 
ROOT
HETATM    1  N   UNL     1       7.886  31.176  59.378  1.00  0.00    -0.315 N 
HETATM    2  C   UNL     1       9.003  32.014  59.509  1.00  0.00     0.225 C 
HETATM    3  O   UNL     1       9.894  32.241  58.705  1.00  0.00    -0.273 OA
HETATM    4  C   UNL     1       8.920  32.682  60.863  1.00  0.00     0.117 C 
HETATM    5  C   UNL     1       8.046  31.703  61.630  1.00  0.00     0.082 C 
HETATM    6  C   UNL     1       7.057  31.257  60.562  1.00  0.00     0.145 C 
ENDROOT
BRANCH   1   7
HETATM    7  C   UNL     1       7.596  30.310  58.285  1.00  0.00     0.073 A 
HETATM    8  C   UNL     1       8.278  29.085  58.170  1.00  0.00     0.069 A 
HETATM    9  C   UNL     1       7.961  28.163  57.167  1.00  0.00     0.070 A 
HETATM   10  C   UNL     1       6.982  28.481  56.229  1.00  0.00     0.039 A 
HETATM   11  C   UNL     1       6.306  29.696  56.304  1.00  0.00     0.042 A 
HETATM   12  C   UNL     1       6.615  30.615  57.315  1.00  0.00     0.095 A 
BRANCH   9  13
HETATM   13  O   UNL     1       8.527  26.928  57.009  1.00  0.00    -0.356 OA
HETATM   14  C   UNL     1       7.762  25.821  57.472  1.00  0.00     0.210 C 
ENDBRANCH   9  13
BRANCH  12  15
HETATM   15  O   UNL     1       5.944  31.810  57.375  1.00  0.00    -0.354 OA
HETATM   16  C   UNL     1       4.562  31.665  57.697  1.00  0.00     0.210 C 
ENDBRANCH  12  15
ENDBRANCH   1   7
BRANCH   5  17
HETATM   17  C   UNL     1       7.413  32.274  62.844  1.00  0.00     0.111 A 
HETATM   18  N   UNL     1       8.019  32.777  63.899  1.00  0.00    -0.233 NA
HETATM   19  C   UNL     1       7.019  33.269  64.704  1.00  0.00     0.085 A 
HETATM   20  C   UNL     1       5.771  33.036  64.140  1.00  0.00     0.062 A 
HETATM   21  C   UNL     1       7.101  33.942  65.930  1.00  0.00     0.034 A 
HETATM   22  N   UNL     1       6.048  32.381  62.969  1.00  0.00    -0.342 N 
HETATM   23  C   UNL     1       4.573  33.440  64.731  1.00  0.00     0.032 A 
HETATM   24  H   UNL     1       5.364  32.069  62.294  1.00  0.00     0.167 HD
HETATM   25  C   UNL     1       4.674  34.118  65.952  1.00  0.00     0.002 A 
HETATM   26  C   UNL     1       5.915  34.367  66.544  1.00  0.00     0.002 A 
ENDBRANCH   5  17
TORSDOF 4
ENDMDL
MODEL 10
REMARK VINA RESULT:      -7.8      2.813      5.173
REMARK  4 active torsions:
REMARK  status: ('A' for Active; 'I' for Inactive)
REMARK    1  A    between atoms: O_2  and  C_3 
REMARK    2  A    between atoms: C_5  and  N_6 
REMARK    3  A    between atoms: C_10  and  C_11 
REMARK    4  A    between atoms: C_22  and  O_23 
ROOT
HETATM    1  N   UNL     1       5.931  27.395  54.038  1.00  0.00    -0.315 N 
HETATM    2  C   UNL     1       6.324  27.260  52.698  1.00  0.00     0.225 C 
HETATM    3  O   UNL     1       6.318  28.095  51.807  1.00  0.00    -0.273 OA
HETATM    4  C   UNL     1       6.836  25.850  52.509  1.00  0.00     0.117 C 
HETATM    5  C   UNL     1       6.136  25.119  53.643  1.00  0.00     0.082 C 
HETATM    6  C   UNL     1       6.165  26.159  54.755  1.00  0.00     0.145 C 
ENDROOT
BRANCH   1   7
HETATM    7  C   UNL     1       5.333  28.539  54.639  1.00  0.00     0.073 A 
HETATM    8  C   UNL     1       6.052  29.273  55.602  1.00  0.00     0.069 A 
HETATM    9  C   UNL     1       5.542  30.454  56.150  1.00  0.00     0.070 A 
HETATM   10  C   UNL     1       4.275  30.893  55.775  1.00  0.00     0.039 A 
HETATM   11  C   UNL     1       3.531  30.175  54.841  1.00  0.00     0.042 A 
HETATM   12  C   UNL     1       4.046  28.998  54.283  1.00  0.00     0.095 A 
BRANCH   9  13
HETATM   13  O   UNL     1       6.186  31.262  57.046  1.00  0.00    -0.356 OA
HETATM   14  C   UNL     1       5.640  31.307  58.360  1.00  0.00     0.210 C 
ENDBRANCH   9  13
BRANCH  12  15
HETATM   15  O   UNL     1       3.302  28.299  53.367  1.00  0.00    -0.354 OA
HETATM   16  C   UNL     1       2.995  29.053  52.195  1.00  0.00     0.210 C 
ENDBRANCH  12  15
ENDBRANCH   1   7
BRANCH   5  17
HETATM   17  C   UNL     1       6.758  23.822  54.007  1.00  0.00     0.111 A 
HETATM   18  N   UNL     1       7.190  22.886  53.189  1.00  0.00    -0.233 NA
HETATM   19  C   UNL     1       7.773  21.932  53.988  1.00  0.00     0.085 A 
HETATM   20  C   UNL     1       7.671  22.281  55.330  1.00  0.00     0.062 A 
HETATM   21  C   UNL     1       8.426  20.742  53.639  1.00  0.00     0.034 A 
HETATM   22  N   UNL     1       7.000  23.476  55.316  1.00  0.00    -0.342 N 
HETATM   23  C   UNL     1       8.189  21.505  56.368  1.00  0.00     0.032 A 
HETATM   24  H   UNL     1       6.764  24.026  56.129  1.00  0.00     0.167 HD
HETATM   25  C   UNL     1       8.844  20.324  56.000  1.00  0.00     0.002 A 
HETATM   26  C   UNL     1       8.963  19.946  54.660  1.00  0.00     0.002 A 
ENDBRANCH   5  17
TORSDOF 4
ENDMDL
