MODEL 1
REMARK VINA RESULT:      -9.9      0.000      0.000
REMARK  10 active torsions:
REMARK  status: ('A' for Active; 'I' for Inactive)
REMARK    1  A    between atoms: N_2  and  C_4 
REMARK    2  A    between atoms: C_4  and  C_5 
REMARK    3  A    between atoms: C_5  and  C_6 
REMARK    4  A    between atoms: C_6  and  N_7 
REMARK       I    between atoms: N_7  and  C_8 
REMARK    5  A    between atoms: C_8  and  C_9 
REMARK    6  A    between atoms: C_9  and  N_10 
REMARK       I    between atoms: N_10  and  C_11 
REMARK    7  A    between atoms: C_11  and  C_12 
REMARK    8  A    between atoms: C_19  and  C_20 
REMARK    9  A    between atoms: C_21  and  C_22 
REMARK   10  A    between atoms: N_30  and  C_31 
ROOT
HETATM    1  C   UNL     1       7.716  28.530  54.878  1.00  0.00     0.104 C 
HETATM    2  C   UNL     1       7.853  27.360  54.225  1.00  0.00     0.050 C 
ENDROOT
BRANCH   1   3
HETATM    3  C   UNL     1       8.952  29.069  55.523  1.00  0.00     0.268 C 
HETATM    4  N   UNL     1       8.953  28.997  56.899  1.00  0.00    -0.356 N 
HETATM    5  H   UNL     1       8.065  28.785  57.348  1.00  0.00     0.162 HD
HETATM    6  O   UNL     1       9.871  29.533  54.861  1.00  0.00    -0.266 OA
BRANCH   4   7
HETATM    7  C   UNL     1       9.998  29.614  57.689  1.00  0.00     0.124 C 
BRANCH   7   8
HETATM    8  C   UNL     1       9.440  30.644  58.671  1.00  0.00     0.047 C 
BRANCH   8   9
HETATM    9  C   UNL     1       8.049  30.265  59.173  1.00  0.00     0.235 C 
BRANCH   9  10
HETATM   10  N   UNL     1       7.896  30.636  60.643  1.00  0.00    -0.079 N 
HETATM   11  C   UNL     1       7.226  31.968  60.857  1.00  0.00     0.269 C 
HETATM   12  H   UNL     1       7.301  29.923  61.086  1.00  0.00     0.278 HD
HETATM   13  C   UNL     1       9.218  30.583  61.367  1.00  0.00     0.269 C 
ENDBRANCH   9  10
ENDBRANCH   8   9
ENDBRANCH   7   8
ENDBRANCH   4   7
ENDBRANCH   1   3
BRANCH   1  14
HETATM   14  N   UNL     1       6.596  29.337  54.866  1.00  0.00    -0.318 N 
HETATM   15  C   UNL     1       5.630  29.279  55.860  1.00  0.00     0.256 C 
HETATM   16  O   UNL     1       5.734  28.610  56.884  1.00  0.00    -0.267 OA
HETATM   17  H   UNL     1       6.693  30.237  54.402  1.00  0.00     0.169 HD
BRANCH  15  18
HETATM   18  C   UNL     1       4.476  30.199  55.697  1.00  0.00     0.032 A 
HETATM   19  C   UNL     1       3.847  30.778  56.805  1.00  0.00     0.017 A 
HETATM   20  C   UNL     1       2.779  31.658  56.613  1.00  0.00     0.001 A 
HETATM   21  C   UNL     1       2.340  31.958  55.322  1.00  0.00     0.000 A 
HETATM   22  C   UNL     1       2.974  31.388  54.218  1.00  0.00     0.001 A 
HETATM   23  C   UNL     1       4.046  30.516  54.403  1.00  0.00     0.017 A 
ENDBRANCH  15  18
ENDBRANCH   1  14
BRANCH   2  24
HETATM   24  C   UNL     1       6.964  26.841  53.239  1.00  0.00     0.015 A 
HETATM   25  C   UNL     1       6.642  25.485  52.946  1.00  0.00     0.099 A 
HETATM   26  N   UNL     1       5.747  25.433  51.949  1.00  0.00    -0.166 NA
HETATM   27  N   UNL     1       5.525  26.718  51.572  1.00  0.00    -0.244 N 
HETATM   28  C   UNL     1       6.212  27.600  52.376  1.00  0.00     0.132 A 
BRANCH  25  29
HETATM   29  C   UNL     1       7.129  24.244  53.562  1.00  0.00    -0.005 A 
HETATM   30  C   UNL     1       7.839  23.282  52.828  1.00  0.00     0.015 A 
HETATM   31  C   UNL     1       8.287  22.103  53.434  1.00  0.00     0.020 A 
HETATM   32  C   UNL     1       8.042  21.885  54.787  1.00  0.00     0.011 A 
HETATM   33 BR   UNL     1       8.657  20.296  55.603  1.00  0.00    -0.051 Br
HETATM   34  C   UNL     1       7.356  22.833  55.539  1.00  0.00     0.020 A 
HETATM   35  C   UNL     1       6.903  24.006  54.927  1.00  0.00     0.015 A 
ENDBRANCH  25  29
BRANCH  27  36
HETATM   36  C   UNL     1       4.656  27.014  50.487  1.00  0.00     0.058 A 
HETATM   37  C   UNL     1       4.454  26.051  49.484  1.00  0.00     0.031 A 
HETATM   38  C   UNL     1       3.601  26.317  48.412  1.00  0.00     0.002 A 
HETATM   39  C   UNL     1       2.948  27.545  48.327  1.00  0.00     0.000 A 
HETATM   40  C   UNL     1       3.149  28.510  49.314  1.00  0.00     0.002 A 
HETATM   41  C   UNL     1       4.000  28.250  50.394  1.00  0.00     0.031 A 
ENDBRANCH  27  36
ENDBRANCH   2  24
TORSDOF 10
ENDMDL
MODEL 2
REMARK VINA RESULT:      -9.5      2.756      6.375
REMARK  10 active torsions:
REMARK  status: ('A' for Active; 'I' for Inactive)
REMARK    1  A    between atoms: N_2  and  C_4 
REMARK    2  A    between atoms: C_4  and  C_5 
REMARK    3  A    between atoms: C_5  and  C_6 
REMARK    4  A    between atoms: C_6  and  N_7 
REMARK       I    between atoms: N_7  and  C_8 
REMARK    5  A    between atoms: C_8  and  C_9 
REMARK    6  A    between atoms: C_9  and  N_10 
REMARK       I    between atoms: N_10  and  C_11 
REMARK    7  A    between atoms: C_11  and  C_12 
REMARK    8  A    between atoms: C_19  and  C_20 
REMARK    9  A    between atoms: C_21  and  C_22 
REMARK   10  A    between atoms: N_30  and  C_31 
ROOT
HETATM    1  C   UNL     1       5.018  29.345  55.250  1.00  0.00     0.104 C 
HETATM    2  C   UNL     1       4.572  28.260  54.588  1.00  0.00     0.050 C 
ENDROOT
BRANCH   1   3
HETATM    3  C   UNL     1       3.967  30.244  55.819  1.00  0.00     0.268 C 
HETATM    4  N   UNL     1       3.899  31.485  55.226  1.00  0.00    -0.356 N 
HETATM    5  H   UNL     1       4.674  31.748  54.620  1.00  0.00     0.162 HD
HETATM    6  O   UNL     1       3.242  29.883  56.737  1.00  0.00    -0.266 OA
BRANCH   4   7
HETATM    7  C   UNL     1       3.049  32.532  55.754  1.00  0.00     0.124 C 
BRANCH   7   8
HETATM    8  C   UNL     1       3.837  33.544  56.585  1.00  0.00     0.047 C 
BRANCH   8   9
HETATM    9  C   UNL     1       3.401  33.551  58.049  1.00  0.00     0.235 C 
BRANCH   9  10
HETATM   10  N   UNL     1       3.868  32.280  58.747  1.00  0.00    -0.079 N 
HETATM   11  C   UNL     1       3.327  32.130  60.144  1.00  0.00     0.269 C 
HETATM   12  H   UNL     1       3.522  31.478  58.201  1.00  0.00     0.278 HD
HETATM   13  C   UNL     1       5.371  32.166  58.743  1.00  0.00     0.269 C 
ENDBRANCH   9  10
ENDBRANCH   8   9
ENDBRANCH   7   8
ENDBRANCH   4   7
ENDBRANCH   1   3
BRANCH   1  14
HETATM   14  N   UNL     1       6.332  29.607  55.581  1.00  0.00    -0.318 N 
HETATM   15  C   UNL     1       6.858  29.298  56.827  1.00  0.00     0.256 C 
HETATM   16  O   UNL     1       6.259  28.666  57.692  1.00  0.00    -0.267 OA
HETATM   17  H   UNL     1       6.999  29.611  54.813  1.00  0.00     0.169 HD
BRANCH  15  18
HETATM   18  C   UNL     1       8.284  29.657  57.036  1.00  0.00     0.032 A 
HETATM   19  C   UNL     1       9.260  29.339  56.085  1.00  0.00     0.017 A 
HETATM   20  C   UNL     1      10.587  29.714  56.304  1.00  0.00     0.001 A 
HETATM   21  C   UNL     1      10.940  30.403  57.466  1.00  0.00     0.000 A 
HETATM   22  C   UNL     1       9.965  30.729  58.409  1.00  0.00     0.001 A 
HETATM   23  C   UNL     1       8.636  30.365  58.192  1.00  0.00     0.017 A 
ENDBRANCH  15  18
ENDBRANCH   1  14
BRANCH   2  24
HETATM   24  C   UNL     1       5.327  27.089  54.294  1.00  0.00     0.015 A 
HETATM   25  C   UNL     1       5.720  26.569  53.028  1.00  0.00     0.099 A 
HETATM   26  N   UNL     1       6.437  25.448  53.196  1.00  0.00    -0.166 NA
HETATM   27  N   UNL     1       6.473  25.219  54.534  1.00  0.00    -0.244 N 
HETATM   28  C   UNL     1       5.851  26.231  55.230  1.00  0.00     0.132 A 
BRANCH  25  29
HETATM   29  C   UNL     1       5.460  27.078  51.675  1.00  0.00    -0.005 A 
HETATM   30  C   UNL     1       5.020  26.240  50.639  1.00  0.00     0.015 A 
HETATM   31  C   UNL     1       4.786  26.746  49.357  1.00  0.00     0.020 A 
HETATM   32  C   UNL     1       4.973  28.102  49.103  1.00  0.00     0.011 A 
HETATM   33 BR   UNL     1       4.646  28.783  47.371  1.00  0.00    -0.051 Br
HETATM   34  C   UNL     1       5.392  28.956  50.119  1.00  0.00     0.020 A 
HETATM   35  C   UNL     1       5.632  28.444  51.398  1.00  0.00     0.015 A 
ENDBRANCH  25  29
BRANCH  27  36
HETATM   36  C   UNL     1       7.117  24.063  55.053  1.00  0.00     0.058 A 
HETATM   37  C   UNL     1       7.283  22.938  54.228  1.00  0.00     0.031 A 
HETATM   38  C   UNL     1       7.918  21.794  54.714  1.00  0.00     0.002 A 
HETATM   39  C   UNL     1       8.386  21.760  56.025  1.00  0.00     0.000 A 
HETATM   40  C   UNL     1       8.219  22.869  56.854  1.00  0.00     0.002 A 
HETATM   41  C   UNL     1       7.587  24.021  56.373  1.00  0.00     0.031 A 
ENDBRANCH  27  36
ENDBRANCH   2  24
TORSDOF 10
ENDMDL
MODEL 3
REMARK VINA RESULT:      -9.1      2.974      6.397
REMARK  10 active torsions:
REMARK  status: ('A' for Active; 'I' for Inactive)
REMARK    1  A    between atoms: N_2  and  C_4 
REMARK    2  A    between atoms: C_4  and  C_5 
REMARK    3  A    between atoms: C_5  and  C_6 
REMARK    4  A    between atoms: C_6  and  N_7 
REMARK       I    between atoms: N_7  and  C_8 
REMARK    5  A    between atoms: C_8  and  C_9 
REMARK    6  A    between atoms: C_9  and  N_10 
REMARK       I    between atoms: N_10  and  C_11 
REMARK    7  A    between atoms: C_11  and  C_12 
REMARK    8  A    between atoms: C_19  and  C_20 
REMARK    9  A    between atoms: C_21  and  C_22 
REMARK   10  A    between atoms: N_30  and  C_31 
ROOT
HETATM    1  C   UNL     1       4.732  29.631  54.371  1.00  0.00     0.104 C 
HETATM    2  C   UNL     1       5.112  28.913  55.445  1.00  0.00     0.050 C 
ENDROOT
BRANCH   1   3
HETATM    3  C   UNL     1       4.104  30.957  54.657  1.00  0.00     0.268 C 
HETATM    4  N   UNL     1       4.986  31.922  55.094  1.00  0.00    -0.356 N 
HETATM    5  H   UNL     1       5.912  31.604  55.373  1.00  0.00     0.162 HD
HETATM    6  O   UNL     1       2.904  31.144  54.509  1.00  0.00    -0.266 OA
BRANCH   4   7
HETATM    7  C   UNL     1       4.526  33.212  55.565  1.00  0.00     0.124 C 
BRANCH   7   8
HETATM    8  C   UNL     1       4.399  33.253  57.087  1.00  0.00     0.047 C 
BRANCH   8   9
HETATM    9  C   UNL     1       5.412  32.338  57.774  1.00  0.00     0.235 C 
BRANCH   9  10
HETATM   10  N   UNL     1       4.736  31.530  58.874  1.00  0.00    -0.079 N 
HETATM   11  C   UNL     1       3.486  30.825  58.418  1.00  0.00     0.269 C 
HETATM   12  H   UNL     1       5.398  30.805  59.182  1.00  0.00     0.278 HD
HETATM   13  C   UNL     1       4.455  32.377  60.090  1.00  0.00     0.269 C 
ENDBRANCH   9  10
ENDBRANCH   8   9
ENDBRANCH   7   8
ENDBRANCH   4   7
ENDBRANCH   1   3
BRANCH   1  14
HETATM   14  N   UNL     1       5.014  29.327  53.054  1.00  0.00    -0.318 N 
HETATM   15  C   UNL     1       4.110  28.661  52.238  1.00  0.00     0.256 C 
HETATM   16  O   UNL     1       2.957  28.392  52.561  1.00  0.00    -0.267 OA
HETATM   17  H   UNL     1       5.659  29.950  52.574  1.00  0.00     0.169 HD
BRANCH  15  18
HETATM   18  C   UNL     1       4.566  28.391  50.851  1.00  0.00     0.032 A 
HETATM   19  C   UNL     1       4.235  27.200  50.196  1.00  0.00     0.017 A 
HETATM   20  C   UNL     1       4.662  26.990  48.883  1.00  0.00     0.001 A 
HETATM   21  C   UNL     1       5.415  27.965  48.225  1.00  0.00     0.000 A 
HETATM   22  C   UNL     1       5.736  29.157  48.874  1.00  0.00     0.001 A 
HETATM   23  C   UNL     1       5.306  29.375  50.183  1.00  0.00     0.017 A 
ENDBRANCH  15  18
ENDBRANCH   1  14
BRANCH   2  24
HETATM   24  C   UNL     1       6.044  27.836  55.446  1.00  0.00     0.015 A 
HETATM   25  C   UNL     1       7.304  27.741  56.103  1.00  0.00     0.099 A 
HETATM   26  N   UNL     1       7.861  26.547  55.855  1.00  0.00    -0.166 NA
HETATM   27  N   UNL     1       7.007  25.897  55.023  1.00  0.00    -0.244 N 
HETATM   28  C   UNL     1       5.868  26.638  54.799  1.00  0.00     0.132 A 
BRANCH  25  29
HETATM   29  C   UNL     1       8.002  28.714  56.954  1.00  0.00    -0.005 A 
HETATM   30  C   UNL     1       9.252  29.245  56.601  1.00  0.00     0.015 A 
HETATM   31  C   UNL     1       9.902  30.164  57.431  1.00  0.00     0.020 A 
HETATM   32  C   UNL     1       9.297  30.574  58.616  1.00  0.00     0.011 A 
HETATM   33 BR   UNL     1      10.173  31.824  59.730  1.00  0.00    -0.051 Br
HETATM   34  C   UNL     1       8.050  30.075  58.979  1.00  0.00     0.020 A 
HETATM   35  C   UNL     1       7.408  29.149  58.149  1.00  0.00     0.015 A 
ENDBRANCH  25  29
BRANCH  27  36
HETATM   36  C   UNL     1       7.329  24.608  54.518  1.00  0.00     0.058 A 
HETATM   37  C   UNL     1       7.304  23.502  55.384  1.00  0.00     0.031 A 
HETATM   38  C   UNL     1       7.611  22.227  54.910  1.00  0.00     0.002 A 
HETATM   39  C   UNL     1       7.951  22.043  53.571  1.00  0.00     0.000 A 
HETATM   40  C   UNL     1       7.986  23.136  52.706  1.00  0.00     0.002 A 
HETATM   41  C   UNL     1       7.676  24.418  53.173  1.00  0.00     0.031 A 
ENDBRANCH  27  36
ENDBRANCH   2  24
TORSDOF 10
ENDMDL
MODEL 4
REMARK VINA RESULT:      -9.1      2.925      6.651
REMARK  10 active torsions:
REMARK  status: ('A' for Active; 'I' for Inactive)
REMARK    1  A    between atoms: N_2  and  C_4 
REMARK    2  A    between atoms: C_4  and  C_5 
REMARK    3  A    between atoms: C_5  and  C_6 
REMARK    4  A    between atoms: C_6  and  N_7 
REMARK       I    between atoms: N_7  and  C_8 
REMARK    5  A    between atoms: C_8  and  C_9 
REMARK    6  A    between atoms: C_9  and  N_10 
REMARK       I    between atoms: N_10  and  C_11 
REMARK    7  A    between atoms: C_11  and  C_12 
REMARK    8  A    between atoms: C_19  and  C_20 
REMARK    9  A    between atoms: C_21  and  C_22 
REMARK   10  A    between atoms: N_30  and  C_31 
ROOT
HETATM    1  C   UNL     1       4.739  29.440  54.935  1.00  0.00     0.104 C 
HETATM    2  C   UNL     1       4.302  28.469  54.110  1.00  0.00     0.050 C 
ENDROOT
BRANCH   1   3
HETATM    3  C   UNL     1       3.681  30.221  55.646  1.00  0.00     0.268 C 
HETATM    4  N   UNL     1       2.971  31.083  54.838  1.00  0.00    -0.356 N 
HETATM    5  H   UNL     1       3.350  31.260  53.910  1.00  0.00     0.162 HD
HETATM    6  O   UNL     1       3.483  30.090  56.847  1.00  0.00    -0.266 OA
BRANCH   4   7
HETATM    7  C   UNL     1       2.019  32.026  55.388  1.00  0.00     0.124 C 
BRANCH   7   8
HETATM    8  C   UNL     1       2.393  33.472  55.062  1.00  0.00     0.047 C 
BRANCH   8   9
HETATM    9  C   UNL     1       2.850  34.241  56.300  1.00  0.00     0.235 C 
BRANCH   9  10
HETATM   10  N   UNL     1       4.364  34.158  56.448  1.00  0.00    -0.079 N 
HETATM   11  C   UNL     1       4.808  33.607  57.778  1.00  0.00     0.269 C 
HETATM   12  H   UNL     1       4.714  33.516  55.723  1.00  0.00     0.278 HD
HETATM   13  C   UNL     1       5.021  35.488  56.177  1.00  0.00     0.269 C 
ENDBRANCH   9  10
ENDBRANCH   8   9
ENDBRANCH   7   8
ENDBRANCH   4   7
ENDBRANCH   1   3
BRANCH   1  14
HETATM   14  N   UNL     1       6.052  29.665  55.296  1.00  0.00    -0.318 N 
HETATM   15  C   UNL     1       6.604  29.132  56.452  1.00  0.00     0.256 C 
HETATM   16  O   UNL     1       6.032  28.329  57.183  1.00  0.00    -0.267 OA
HETATM   17  H   UNL     1       6.707  29.835  54.536  1.00  0.00     0.169 HD
BRANCH  15  18
HETATM   18  C   UNL     1       8.024  29.479  56.711  1.00  0.00     0.032 A 
HETATM   19  C   UNL     1       9.005  29.307  55.728  1.00  0.00     0.017 A 
HETATM   20  C   UNL     1      10.328  29.666  56.000  1.00  0.00     0.001 A 
HETATM   21  C   UNL     1      10.670  30.195  57.245  1.00  0.00     0.000 A 
HETATM   22  C   UNL     1       9.690  30.376  58.222  1.00  0.00     0.001 A 
HETATM   23  C   UNL     1       8.366  30.027  57.954  1.00  0.00     0.017 A 
ENDBRANCH  15  18
ENDBRANCH   1  14
BRANCH   2  24
HETATM   24  C   UNL     1       5.071  27.370  53.629  1.00  0.00     0.015 A 
HETATM   25  C   UNL     1       5.490  27.083  52.298  1.00  0.00     0.099 A 
HETATM   26  N   UNL     1       6.211  25.953  52.280  1.00  0.00    -0.166 NA
HETATM   27  N   UNL     1       6.225  25.492  53.557  1.00  0.00    -0.244 N 
HETATM   28  C   UNL     1       5.584  26.363  54.408  1.00  0.00     0.132 A 
BRANCH  25  29
HETATM   29  C   UNL     1       5.250  27.822  51.052  1.00  0.00    -0.005 A 
HETATM   30  C   UNL     1       4.624  27.227  49.946  1.00  0.00     0.015 A 
HETATM   31  C   UNL     1       4.413  27.948  48.767  1.00  0.00     0.020 A 
HETATM   32  C   UNL     1       4.812  29.280  48.689  1.00  0.00     0.011 A 
HETATM   33 BR   UNL     1       4.516  30.253  47.097  1.00  0.00    -0.051 Br
HETATM   34  C   UNL     1       5.419  29.897  49.779  1.00  0.00     0.020 A 
HETATM   35  C   UNL     1       5.635  29.169  50.953  1.00  0.00     0.015 A 
ENDBRANCH  25  29
BRANCH  27  36
HETATM   36  C   UNL     1       6.868  24.265  53.876  1.00  0.00     0.058 A 
HETATM   37  C   UNL     1       6.920  23.842  55.215  1.00  0.00     0.031 A 
HETATM   38  C   UNL     1       7.541  22.639  55.551  1.00  0.00     0.002 A 
HETATM   39  C   UNL     1       8.120  21.851  54.559  1.00  0.00     0.000 A 
HETATM   40  C   UNL     1       8.080  22.267  53.229  1.00  0.00     0.002 A 
HETATM   41  C   UNL     1       7.457  23.470  52.883  1.00  0.00     0.031 A 
ENDBRANCH  27  36
ENDBRANCH   2  24
TORSDOF 10
ENDMDL
MODEL 5
REMARK VINA RESULT:      -8.9      3.045      6.542
REMARK  10 active torsions:
REMARK  status: ('A' for Active; 'I' for Inactive)
REMARK    1  A    between atoms: N_2  and  C_4 
REMARK    2  A    between atoms: C_4  and  C_5 
REMARK    3  A    between atoms: C_5  and  C_6 
REMARK    4  A    between atoms: C_6  and  N_7 
REMARK       I    between atoms: N_7  and  C_8 
REMARK    5  A    between atoms: C_8  and  C_9 
REMARK    6  A    between atoms: C_9  and  N_10 
REMARK       I    between atoms: N_10  and  C_11 
REMARK    7  A    between atoms: C_11  and  C_12 
REMARK    8  A    between atoms: C_19  and  C_20 
REMARK    9  A    between atoms: C_21  and  C_22 
REMARK   10  A    between atoms: N_30  and  C_31 
ROOT
HETATM    1  C   UNL     1       4.639  29.877  54.219  1.00  0.00     0.104 C 
HETATM    2  C   UNL     1       4.988  29.174  55.313  1.00  0.00     0.050 C 
ENDROOT
BRANCH   1   3
HETATM    3  C   UNL     1       4.025  31.217  54.468  1.00  0.00     0.268 C 
HETATM    4  N   UNL     1       4.935  32.225  54.703  1.00  0.00    -0.356 N 
HETATM    5  H   UNL     1       5.895  31.942  54.885  1.00  0.00     0.162 HD
HETATM    6  O   UNL     1       2.811  31.378  54.462  1.00  0.00    -0.266 OA
BRANCH   4   7
HETATM    7  C   UNL     1       4.511  33.547  55.116  1.00  0.00     0.124 C 
BRANCH   7   8
HETATM    8  C   UNL     1       4.728  33.774  56.612  1.00  0.00     0.047 C 
BRANCH   8   9
HETATM    9  C   UNL     1       3.449  33.554  57.418  1.00  0.00     0.235 C 
BRANCH   9  10
HETATM   10  N   UNL     1       3.725  32.651  58.614  1.00  0.00    -0.079 N 
HETATM   11  C   UNL     1       5.012  32.976  59.326  1.00  0.00     0.269 C 
HETATM   12  H   UNL     1       2.962  32.787  59.291  1.00  0.00     0.278 HD
HETATM   13  C   UNL     1       3.684  31.194  58.229  1.00  0.00     0.269 C 
ENDBRANCH   9  10
ENDBRANCH   8   9
ENDBRANCH   7   8
ENDBRANCH   4   7
ENDBRANCH   1   3
BRANCH   1  14
HETATM   14  N   UNL     1       4.940  29.544  52.913  1.00  0.00    -0.318 N 
HETATM   15  C   UNL     1       4.050  28.860  52.098  1.00  0.00     0.256 C 
HETATM   16  O   UNL     1       2.892  28.597  52.409  1.00  0.00    -0.267 OA
HETATM   17  H   UNL     1       5.593  30.158  52.430  1.00  0.00     0.169 HD
BRANCH  15  18
HETATM   18  C   UNL     1       4.528  28.561  50.724  1.00  0.00     0.032 A 
HETATM   19  C   UNL     1       5.242  29.507  49.982  1.00  0.00     0.017 A 
HETATM   20  C   UNL     1       5.697  29.183  48.702  1.00  0.00     0.001 A 
HETATM   21  C   UNL     1       5.439  27.921  48.164  1.00  0.00     0.000 A 
HETATM   22  C   UNL     1       4.735  26.974  48.908  1.00  0.00     0.001 A 
HETATM   23  C   UNL     1       4.286  27.289  50.191  1.00  0.00     0.017 A 
ENDBRANCH  15  18
ENDBRANCH   1  14
BRANCH   2  24
HETATM   24  C   UNL     1       5.904  28.084  55.351  1.00  0.00     0.015 A 
HETATM   25  C   UNL     1       7.116  27.956  56.088  1.00  0.00     0.099 A 
HETATM   26  N   UNL     1       7.673  26.760  55.850  1.00  0.00    -0.166 NA
HETATM   27  N   UNL     1       6.868  26.141  54.949  1.00  0.00    -0.244 N 
HETATM   28  C   UNL     1       5.756  26.902  54.667  1.00  0.00     0.132 A 
BRANCH  25  29
HETATM   29  C   UNL     1       7.768  28.901  57.006  1.00  0.00    -0.005 A 
HETATM   30  C   UNL     1       7.055  29.566  58.014  1.00  0.00     0.015 A 
HETATM   31  C   UNL     1       7.695  30.467  58.871  1.00  0.00     0.020 A 
HETATM   32  C   UNL     1       9.062  30.697  58.737  1.00  0.00     0.011 A 
HETATM   33 BR   UNL     1       9.925  31.908  59.903  1.00  0.00    -0.051 Br
HETATM   34  C   UNL     1       9.793  30.036  57.755  1.00  0.00     0.020 A 
HETATM   35  C   UNL     1       9.147  29.142  56.896  1.00  0.00     0.015 A 
ENDBRANCH  25  29
BRANCH  27  36
HETATM   36  C   UNL     1       7.207  24.858  54.437  1.00  0.00     0.058 A 
HETATM   37  C   UNL     1       7.225  23.753  55.305  1.00  0.00     0.031 A 
HETATM   38  C   UNL     1       7.549  22.484  54.824  1.00  0.00     0.002 A 
HETATM   39  C   UNL     1       7.863  22.307  53.478  1.00  0.00     0.000 A 
HETATM   40  C   UNL     1       7.855  23.400  52.612  1.00  0.00     0.002 A 
HETATM   41  C   UNL     1       7.528  24.675  53.085  1.00  0.00     0.031 A 
ENDBRANCH  27  36
ENDBRANCH   2  24
TORSDOF 10
ENDMDL
MODEL 6
REMARK VINA RESULT:      -8.9      1.834      7.610
REMARK  10 active torsions:
REMARK  status: ('A' for Active; 'I' for Inactive)
REMARK    1  A    between atoms: N_2  and  C_4 
REMARK    2  A    between atoms: C_4  and  C_5 
REMARK    3  A    between atoms: C_5  and  C_6 
REMARK    4  A    between atoms: C_6  and  N_7 
REMARK       I    between atoms: N_7  and  C_8 
REMARK    5  A    between atoms: C_8  and  C_9 
REMARK    6  A    between atoms: C_9  and  N_10 
REMARK       I    between atoms: N_10  and  C_11 
REMARK    7  A    between atoms: C_11  and  C_12 
REMARK    8  A    between atoms: C_19  and  C_20 
REMARK    9  A    between atoms: C_21  and  C_22 
REMARK   10  A    between atoms: N_30  and  C_31 
ROOT
HETATM    1  C   UNL     1       6.159  28.202  53.199  1.00  0.00     0.104 C 
HETATM    2  C   UNL     1       7.205  27.574  53.770  1.00  0.00     0.050 C 
ENDROOT
BRANCH   1   3
HETATM    3  C   UNL     1       5.543  27.514  52.023  1.00  0.00     0.268 C 
HETATM    4  N   UNL     1       5.078  28.366  51.045  1.00  0.00    -0.356 N 
HETATM    5  H   UNL     1       5.008  29.351  51.290  1.00  0.00     0.162 HD
HETATM    6  O   UNL     1       5.468  26.294  51.961  1.00  0.00    -0.266 OA
BRANCH   4   7
HETATM    7  C   UNL     1       4.315  27.878  49.915  1.00  0.00     0.124 C 
BRANCH   7   8
HETATM    8  C   UNL     1       5.103  27.975  48.609  1.00  0.00     0.047 C 
BRANCH   8   9
HETATM    9  C   UNL     1       4.554  27.037  47.535  1.00  0.00     0.235 C 
BRANCH   9  10
HETATM   10  N   UNL     1       3.166  26.543  47.922  1.00  0.00    -0.079 N 
HETATM   11  C   UNL     1       3.035  25.042  47.897  1.00  0.00     0.269 C 
HETATM   12  H   UNL     1       2.984  26.846  48.889  1.00  0.00     0.278 HD
HETATM   13  C   UNL     1       2.094  27.184  47.078  1.00  0.00     0.269 C 
ENDBRANCH   9  10
ENDBRANCH   8   9
ENDBRANCH   7   8
ENDBRANCH   4   7
ENDBRANCH   1   3
BRANCH   1  14
HETATM   14  N   UNL     1       5.519  29.321  53.693  1.00  0.00    -0.318 N 
HETATM   15  C   UNL     1       4.453  29.235  54.578  1.00  0.00     0.256 C 
HETATM   16  O   UNL     1       4.064  28.189  55.089  1.00  0.00    -0.267 OA
HETATM   17  H   UNL     1       6.079  30.168  53.764  1.00  0.00     0.169 HD
BRANCH  15  18
HETATM   18  C   UNL     1       3.860  30.527  55.005  1.00  0.00     0.032 A 
HETATM   19  C   UNL     1       3.129  31.321  54.114  1.00  0.00     0.017 A 
HETATM   20  C   UNL     1       2.565  32.519  54.558  1.00  0.00     0.001 A 
HETATM   21  C   UNL     1       2.730  32.924  55.883  1.00  0.00     0.000 A 
HETATM   22  C   UNL     1       3.450  32.128  56.774  1.00  0.00     0.001 A 
HETATM   23  C   UNL     1       4.008  30.926  56.339  1.00  0.00     0.017 A 
ENDBRANCH  15  18
ENDBRANCH   1  14
BRANCH   2  24
HETATM   24  C   UNL     1       7.708  27.808  55.082  1.00  0.00     0.015 A 
HETATM   25  C   UNL     1       8.050  26.866  56.093  1.00  0.00     0.099 A 
HETATM   26  N   UNL     1       8.501  27.505  57.182  1.00  0.00    -0.166 NA
HETATM   27  N   UNL     1       8.414  28.832  56.903  1.00  0.00    -0.244 N 
HETATM   28  C   UNL     1       7.984  29.044  55.613  1.00  0.00     0.132 A 
BRANCH  25  29
HETATM   29  C   UNL     1       7.979  25.398  56.080  1.00  0.00    -0.005 A 
HETATM   30  C   UNL     1       7.344  24.696  55.044  1.00  0.00     0.015 A 
HETATM   31  C   UNL     1       7.282  23.299  55.057  1.00  0.00     0.020 A 
HETATM   32  C   UNL     1       7.871  22.590  56.100  1.00  0.00     0.011 A 
HETATM   33 BR   UNL     1       7.793  20.702  56.109  1.00  0.00    -0.051 Br
HETATM   34  C   UNL     1       8.522  23.264  57.130  1.00  0.00     0.020 A 
HETATM   35  C   UNL     1       8.574  24.661  57.116  1.00  0.00     0.015 A 
ENDBRANCH  25  29
BRANCH  27  36
HETATM   36  C   UNL     1       8.767  29.801  57.882  1.00  0.00     0.058 A 
HETATM   37  C   UNL     1       7.946  29.973  59.009  1.00  0.00     0.031 A 
HETATM   38  C   UNL     1       8.276  30.914  59.985  1.00  0.00     0.002 A 
HETATM   39  C   UNL     1       9.421  31.694  59.844  1.00  0.00     0.000 A 
HETATM   40  C   UNL     1      10.238  31.535  58.725  1.00  0.00     0.002 A 
HETATM   41  C   UNL     1       9.916  30.591  57.743  1.00  0.00     0.031 A 
ENDBRANCH  27  36
ENDBRANCH   2  24
TORSDOF 10
ENDMDL
MODEL 7
REMARK VINA RESULT:      -8.8      2.984      7.029
REMARK  10 active torsions:
REMARK  status: ('A' for Active; 'I' for Inactive)
REMARK    1  A    between atoms: N_2  and  C_4 
REMARK    2  A    between atoms: C_4  and  C_5 
REMARK    3  A    between atoms: C_5  and  C_6 
REMARK    4  A    between atoms: C_6  and  N_7 
REMARK       I    between atoms: N_7  and  C_8 
REMARK    5  A    between atoms: C_8  and  C_9 
REMARK    6  A    between atoms: C_9  and  N_10 
REMARK       I    between atoms: N_10  and  C_11 
REMARK    7  A    between atoms: C_11  and  C_12 
REMARK    8  A    between atoms: C_19  and  C_20 
REMARK    9  A    between atoms: C_21  and  C_22 
REMARK   10  A    between atoms: N_30  and  C_31 
ROOT
HETATM    1  C   UNL     1       4.851  29.663  55.112  1.00  0.00     0.104 C 
HETATM    2  C   UNL     1       4.372  28.719  54.280  1.00  0.00     0.050 C 
ENDROOT
BRANCH   1   3
HETATM    3  C   UNL     1       3.829  30.470  55.846  1.00  0.00     0.268 C 
HETATM    4  N   UNL     1       3.883  31.823  55.593  1.00  0.00    -0.356 N 
HETATM    5  H   UNL     1       4.711  32.167  55.111  1.00  0.00     0.162 HD
HETATM    6  O   UNL     1       3.023  29.947  56.606  1.00  0.00    -0.266 OA
BRANCH   4   7
HETATM    7  C   UNL     1       3.072  32.766  56.336  1.00  0.00     0.124 C 
BRANCH   7   8
HETATM    8  C   UNL     1       2.476  33.845  55.431  1.00  0.00     0.047 C 
BRANCH   8   9
HETATM    9  C   UNL     1       3.314  34.069  54.174  1.00  0.00     0.235 C 
BRANCH   9  10
HETATM   10  N   UNL     1       2.442  33.961  52.929  1.00  0.00    -0.079 N 
HETATM   11  C   UNL     1       2.319  32.555  52.404  1.00  0.00     0.269 C 
HETATM   12  H   UNL     1       1.495  34.274  53.183  1.00  0.00     0.278 HD
HETATM   13  C   UNL     1       2.911  34.896  51.843  1.00  0.00     0.269 C 
ENDBRANCH   9  10
ENDBRANCH   8   9
ENDBRANCH   7   8
ENDBRANCH   4   7
ENDBRANCH   1   3
BRANCH   1  14
HETATM   14  N   UNL     1       6.175  29.839  55.460  1.00  0.00    -0.318 N 
HETATM   15  C   UNL     1       6.692  29.381  56.663  1.00  0.00     0.256 C 
HETATM   16  O   UNL     1       6.070  28.686  57.462  1.00  0.00    -0.267 OA
HETATM   17  H   UNL     1       6.840  29.897  54.692  1.00  0.00     0.169 HD
BRANCH  15  18
HETATM   18  C   UNL     1       8.131  29.662  56.899  1.00  0.00     0.032 A 
HETATM   19  C   UNL     1       8.575  30.208  58.109  1.00  0.00     0.017 A 
HETATM   20  C   UNL     1       9.939  30.436  58.305  1.00  0.00     0.001 A 
HETATM   21  C   UNL     1      10.855  30.123  57.299  1.00  0.00     0.000 A 
HETATM   22  C   UNL     1      10.413  29.570  56.097  1.00  0.00     0.001 A 
HETATM   23  C   UNL     1       9.053  29.331  55.899  1.00  0.00     0.017 A 
ENDBRANCH  15  18
ENDBRANCH   1  14
BRANCH   2  24
HETATM   24  C   UNL     1       5.097  27.601  53.775  1.00  0.00     0.015 A 
HETATM   25  C   UNL     1       5.482  27.314  52.434  1.00  0.00     0.099 A 
HETATM   26  N   UNL     1       6.167  26.162  52.392  1.00  0.00    -0.166 NA
HETATM   27  N   UNL     1       6.191  25.689  53.664  1.00  0.00    -0.244 N 
HETATM   28  C   UNL     1       5.592  26.571  54.536  1.00  0.00     0.132 A 
BRANCH  25  29
HETATM   29  C   UNL     1       5.241  28.072  51.199  1.00  0.00    -0.005 A 
HETATM   30  C   UNL     1       5.616  29.418  51.071  1.00  0.00     0.015 A 
HETATM   31  C   UNL     1       5.370  30.122  49.887  1.00  0.00     0.020 A 
HETATM   32  C   UNL     1       4.761  29.478  48.814  1.00  0.00     0.011 A 
HETATM   33 BR   UNL     1       4.439  30.430  47.213  1.00  0.00    -0.051 Br
HETATM   34  C   UNL     1       4.396  28.139  48.911  1.00  0.00     0.020 A 
HETATM   35  C   UNL     1       4.637  27.441  50.099  1.00  0.00     0.015 A 
ENDBRANCH  25  29
BRANCH  27  36
HETATM   36  C   UNL     1       6.801  24.440  53.961  1.00  0.00     0.058 A 
HETATM   37  C   UNL     1       7.354  23.678  52.917  1.00  0.00     0.031 A 
HETATM   38  C   UNL     1       7.963  22.452  53.185  1.00  0.00     0.002 A 
HETATM   39  C   UNL     1       8.021  21.972  54.491  1.00  0.00     0.000 A 
HETATM   40  C   UNL     1       7.469  22.718  55.532  1.00  0.00     0.002 A 
HETATM   41  C   UNL     1       6.859  23.950  55.273  1.00  0.00     0.031 A 
ENDBRANCH  27  36
ENDBRANCH   2  24
TORSDOF 10
ENDMDL
MODEL 8
REMARK VINA RESULT:      -8.7      2.102      7.465
REMARK  10 active torsions:
REMARK  status: ('A' for Active; 'I' for Inactive)
REMARK    1  A    between atoms: N_2  and  C_4 
REMARK    2  A    between atoms: C_4  and  C_5 
REMARK    3  A    between atoms: C_5  and  C_6 
REMARK    4  A    between atoms: C_6  and  N_7 
REMARK       I    between atoms: N_7  and  C_8 
REMARK    5  A    between atoms: C_8  and  C_9 
REMARK    6  A    between atoms: C_9  and  N_10 
REMARK       I    between atoms: N_10  and  C_11 
REMARK    7  A    between atoms: C_11  and  C_12 
REMARK    8  A    between atoms: C_19  and  C_20 
REMARK    9  A    between atoms: C_21  and  C_22 
REMARK   10  A    between atoms: N_30  and  C_31 
ROOT
HETATM    1  C   UNL     1       5.764  27.146  52.621  1.00  0.00     0.104 C 
HETATM    2  C   UNL     1       6.890  26.724  53.229  1.00  0.00     0.050 C 
ENDROOT
BRANCH   1   3
HETATM    3  C   UNL     1       5.285  26.312  51.476  1.00  0.00     0.268 C 
HETATM    4  N   UNL     1       5.307  26.953  50.257  1.00  0.00    -0.356 N 
HETATM    5  H   UNL     1       5.443  27.962  50.271  1.00  0.00     0.162 HD
HETATM    6  O   UNL     1       4.908  25.158  51.636  1.00  0.00    -0.266 OA
BRANCH   4   7
HETATM    7  C   UNL     1       4.733  26.349  49.072  1.00  0.00     0.124 C 
BRANCH   7   8
HETATM    8  C   UNL     1       4.033  27.380  48.187  1.00  0.00     0.047 C 
BRANCH   8   9
HETATM    9  C   UNL     1       3.019  28.215  48.968  1.00  0.00     0.235 C 
BRANCH   9  10
HETATM   10  N   UNL     1       1.741  28.389  48.158  1.00  0.00    -0.079 N 
HETATM   11  C   UNL     1       1.090  27.086  47.777  1.00  0.00     0.269 C 
HETATM   12  H   UNL     1       1.068  28.904  48.742  1.00  0.00     0.278 HD
HETATM   13  C   UNL     1       1.971  29.246  46.938  1.00  0.00     0.269 C 
ENDBRANCH   9  10
ENDBRANCH   8   9
ENDBRANCH   7   8
ENDBRANCH   4   7
ENDBRANCH   1   3
BRANCH   1  14
HETATM   14  N   UNL     1       4.943  28.167  53.056  1.00  0.00    -0.318 N 
HETATM   15  C   UNL     1       4.979  29.436  52.496  1.00  0.00     0.256 C 
HETATM   16  O   UNL     1       5.638  29.734  51.505  1.00  0.00    -0.267 OA
HETATM   17  H   UNL     1       4.049  27.889  53.454  1.00  0.00     0.169 HD
BRANCH  15  18
HETATM   18  C   UNL     1       4.046  30.430  53.085  1.00  0.00     0.032 A 
HETATM   19  C   UNL     1       3.731  30.411  54.448  1.00  0.00     0.017 A 
HETATM   20  C   UNL     1       2.868  31.377  54.972  1.00  0.00     0.001 A 
HETATM   21  C   UNL     1       2.323  32.356  54.140  1.00  0.00     0.000 A 
HETATM   22  C   UNL     1       2.645  32.381  52.783  1.00  0.00     0.001 A 
HETATM   23  C   UNL     1       3.513  31.424  52.256  1.00  0.00     0.017 A 
ENDBRANCH  15  18
ENDBRANCH   1  14
BRANCH   2  24
HETATM   24  C   UNL     1       7.330  27.099  54.531  1.00  0.00     0.015 A 
HETATM   25  C   UNL     1       7.750  26.269  55.609  1.00  0.00     0.099 A 
HETATM   26  N   UNL     1       8.097  27.025  56.660  1.00  0.00    -0.166 NA
HETATM   27  N   UNL     1       7.868  28.312  56.292  1.00  0.00    -0.244 N 
HETATM   28  C   UNL     1       7.450  28.390  54.983  1.00  0.00     0.132 A 
BRANCH  25  29
HETATM   29  C   UNL     1       7.845  24.805  55.694  1.00  0.00    -0.005 A 
HETATM   30  C   UNL     1       8.271  24.157  56.863  1.00  0.00     0.015 A 
HETATM   31  C   UNL     1       8.361  22.762  56.918  1.00  0.00     0.020 A 
HETATM   32  C   UNL     1       8.009  22.002  55.806  1.00  0.00     0.011 A 
HETATM   33 BR   UNL     1       8.124  20.118  55.888  1.00  0.00    -0.051 Br
HETATM   34  C   UNL     1       7.568  22.622  54.641  1.00  0.00     0.020 A 
HETATM   35  C   UNL     1       7.487  24.018  54.589  1.00  0.00     0.015 A 
ENDBRANCH  25  29
BRANCH  27  36
HETATM   36  C   UNL     1       8.084  29.377  57.210  1.00  0.00     0.058 A 
HETATM   37  C   UNL     1       6.981  30.088  57.713  1.00  0.00     0.031 A 
HETATM   38  C   UNL     1       7.169  31.132  58.619  1.00  0.00     0.002 A 
HETATM   39  C   UNL     1       8.455  31.480  59.025  1.00  0.00     0.000 A 
HETATM   40  C   UNL     1       9.555  30.785  58.525  1.00  0.00     0.002 A 
HETATM   41  C   UNL     1       9.376  29.735  57.619  1.00  0.00     0.031 A 
ENDBRANCH  27  36
ENDBRANCH   2  24
TORSDOF 10
ENDMDL
MODEL 9
REMARK VINA RESULT:      -8.6      2.684      7.743
REMARK  10 active torsions:
REMARK  status: ('A' for Active; 'I' for Inactive)
REMARK    1  A    between atoms: N_2  and  C_4 
REMARK    2  A    between atoms: C_4  and  C_5 
REMARK    3  A    between atoms: C_5  and  C_6 
REMARK    4  A    between atoms: C_6  and  N_7 
REMARK       I    between atoms: N_7  and  C_8 
REMARK    5  A    between atoms: C_8  and  C_9 
REMARK    6  A    between atoms: C_9  and  N_10 
REMARK       I    between atoms: N_10  and  C_11 
REMARK    7  A    between atoms: C_11  and  C_12 
REMARK    8  A    between atoms: C_19  and  C_20 
REMARK    9  A    between atoms: C_21  and  C_22 
REMARK   10  A    between atoms: N_30  and  C_31 
ROOT
HETATM    1  C   UNL     1       5.662  27.364  56.507  1.00  0.00     0.104 C 
HETATM    2  C   UNL     1       4.483  27.763  55.992  1.00  0.00     0.050 C 
ENDROOT
BRANCH   1   3
HETATM    3  C   UNL     1       5.994  25.916  56.340  1.00  0.00     0.268 C 
HETATM    4  N   UNL     1       6.266  25.541  55.042  1.00  0.00    -0.356 N 
HETATM    5  H   UNL     1       6.024  26.207  54.312  1.00  0.00     0.162 HD
HETATM    6  O   UNL     1       6.013  25.148  57.293  1.00  0.00    -0.266 OA
BRANCH   4   7
HETATM    7  C   UNL     1       6.452  24.151  54.678  1.00  0.00     0.124 C 
BRANCH   7   8
HETATM    8  C   UNL     1       6.827  23.992  53.205  1.00  0.00     0.047 C 
BRANCH   8   9
HETATM    9  C   UNL     1       8.110  23.183  53.022  1.00  0.00     0.235 C 
BRANCH   9  10
HETATM   10  N   UNL     1       8.094  21.954  53.923  1.00  0.00    -0.079 N 
HETATM   11  C   UNL     1       9.292  21.862  54.832  1.00  0.00     0.269 C 
HETATM   12  H   UNL     1       7.262  22.018  54.525  1.00  0.00     0.278 HD
HETATM   13  C   UNL     1       7.933  20.684  53.125  1.00  0.00     0.269 C 
ENDBRANCH   9  10
ENDBRANCH   8   9
ENDBRANCH   7   8
ENDBRANCH   4   7
ENDBRANCH   1   3
BRANCH   1  14
HETATM   14  N   UNL     1       6.641  28.190  57.022  1.00  0.00    -0.318 N 
HETATM   15  C   UNL     1       7.746  28.580  56.280  1.00  0.00     0.256 C 
HETATM   16  O   UNL     1       7.897  28.336  55.086  1.00  0.00    -0.267 OA
HETATM   17  H   UNL     1       6.347  28.842  57.745  1.00  0.00     0.169 HD
BRANCH  15  18
HETATM   18  C   UNL     1       8.720  29.456  56.979  1.00  0.00     0.032 A 
HETATM   19  C   UNL     1      10.071  29.475  56.616  1.00  0.00     0.017 A 
HETATM   20  C   UNL     1      10.954  30.330  57.280  1.00  0.00     0.001 A 
HETATM   21  C   UNL     1      10.492  31.161  58.301  1.00  0.00     0.000 A 
HETATM   22  C   UNL     1       9.143  31.150  58.657  1.00  0.00     0.001 A 
HETATM   23  C   UNL     1       8.255  30.305  57.991  1.00  0.00     0.017 A 
ENDBRANCH  15  18
ENDBRANCH   1  14
BRANCH   2  24
HETATM   24  C   UNL     1       4.113  29.104  55.685  1.00  0.00     0.015 A 
HETATM   25  C   UNL     1       3.945  29.720  54.412  1.00  0.00     0.099 A 
HETATM   26  N   UNL     1       3.578  31.000  54.568  1.00  0.00    -0.166 NA
HETATM   27  N   UNL     1       3.550  31.225  55.906  1.00  0.00    -0.244 N 
HETATM   28  C   UNL     1       3.821  30.074  56.612  1.00  0.00     0.132 A 
BRANCH  25  29
HETATM   29  C   UNL     1       4.107  29.160  53.063  1.00  0.00    -0.005 A 
HETATM   30  C   UNL     1       3.132  29.332  52.069  1.00  0.00     0.015 A 
HETATM   31  C   UNL     1       3.304  28.784  50.793  1.00  0.00     0.020 A 
HETATM   32  C   UNL     1       4.463  28.072  50.497  1.00  0.00     0.011 A 
HETATM   33 BR   UNL     1       4.696  27.341  48.770  1.00  0.00    -0.051 Br
HETATM   34  C   UNL     1       5.452  27.904  51.462  1.00  0.00     0.020 A 
HETATM   35  C   UNL     1       5.271  28.447  52.738  1.00  0.00     0.015 A 
ENDBRANCH  25  29
BRANCH  27  36
HETATM   36  C   UNL     1       3.247  32.517  56.417  1.00  0.00     0.058 A 
HETATM   37  C   UNL     1       3.759  32.902  57.667  1.00  0.00     0.031 A 
HETATM   38  C   UNL     1       3.480  34.167  58.185  1.00  0.00     0.002 A 
HETATM   39  C   UNL     1       2.683  35.055  57.466  1.00  0.00     0.000 A 
HETATM   40  C   UNL     1       2.163  34.678  56.228  1.00  0.00     0.002 A 
HETATM   41  C   UNL     1       2.442  33.413  55.700  1.00  0.00     0.031 A 
ENDBRANCH  27  36
ENDBRANCH   2  24
TORSDOF 10
ENDMDL
MODEL 10
REMARK VINA RESULT:      -8.5      3.643      6.813
REMARK  10 active torsions:
REMARK  status: ('A' for Active; 'I' for Inactive)
REMARK    1  A    between atoms: N_2  and  C_4 
REMARK    2  A    between atoms: C_4  and  C_5 
REMARK    3  A    between atoms: C_5  and  C_6 
REMARK    4  A    between atoms: C_6  and  N_7 
REMARK       I    between atoms: N_7  and  C_8 
REMARK    5  A    between atoms: C_8  and  C_9 
REMARK    6  A    between atoms: C_9  and  N_10 
REMARK       I    between atoms: N_10  and  C_11 
REMARK    7  A    between atoms: C_11  and  C_12 
REMARK    8  A    between atoms: C_19  and  C_20 
REMARK    9  A    between atoms: C_21  and  C_22 
REMARK   10  A    between atoms: N_30  and  C_31 
ROOT
HETATM    1  C   UNL     1       5.146  28.982  54.151  1.00  0.00     0.104 C 
HETATM    2  C   UNL     1       4.699  29.850  53.222  1.00  0.00     0.050 C 
ENDROOT
BRANCH   1   3
HETATM    3  C   UNL     1       4.919  29.372  55.576  1.00  0.00     0.268 C 
HETATM    4  N   UNL     1       6.014  29.937  56.193  1.00  0.00    -0.356 N 
HETATM    5  H   UNL     1       6.906  29.851  55.711  1.00  0.00     0.162 HD
HETATM    6  O   UNL     1       3.840  29.192  56.127  1.00  0.00    -0.266 OA
BRANCH   4   7
HETATM    7  C   UNL     1       6.018  30.228  57.612  1.00  0.00     0.124 C 
BRANCH   7   8
HETATM    8  C   UNL     1       7.420  30.557  58.123  1.00  0.00     0.047 C 
BRANCH   8   9
HETATM    9  C   UNL     1       8.386  29.386  57.949  1.00  0.00     0.235 C 
BRANCH   9  10
HETATM   10  N   UNL     1       9.813  29.895  57.788  1.00  0.00    -0.079 N 
HETATM   11  C   UNL     1      10.017  31.287  58.326  1.00  0.00     0.269 C 
HETATM   12  H   UNL     1      10.430  29.270  58.324  1.00  0.00     0.278 HD
HETATM   13  C   UNL     1      10.274  29.806  56.355  1.00  0.00     0.269 C 
ENDBRANCH   9  10
ENDBRANCH   8   9
ENDBRANCH   7   8
ENDBRANCH   4   7
ENDBRANCH   1   3
BRANCH   1  14
HETATM   14  N   UNL     1       5.639  27.717  53.904  1.00  0.00    -0.318 N 
HETATM   15  C   UNL     1       6.998  27.436  53.918  1.00  0.00     0.256 C 
HETATM   16  O   UNL     1       7.865  28.234  54.260  1.00  0.00    -0.267 OA
HETATM   17  H   UNL     1       5.029  26.939  54.146  1.00  0.00     0.169 HD
BRANCH  15  18
HETATM   18  C   UNL     1       7.372  26.030  53.617  1.00  0.00     0.032 A 
HETATM   19  C   UNL     1       7.584  25.101  54.641  1.00  0.00     0.017 A 
HETATM   20  C   UNL     1       7.911  23.781  54.321  1.00  0.00     0.001 A 
HETATM   21  C   UNL     1       8.027  23.391  52.985  1.00  0.00     0.000 A 
HETATM   22  C   UNL     1       7.807  24.315  51.964  1.00  0.00     0.001 A 
HETATM   23  C   UNL     1       7.471  25.633  52.278  1.00  0.00     0.017 A 
ENDBRANCH  15  18
ENDBRANCH   1  14
BRANCH   2  24
HETATM   24  C   UNL     1       4.452  29.555  51.851  1.00  0.00     0.015 A 
HETATM   25  C   UNL     1       4.632  30.386  50.708  1.00  0.00     0.099 A 
HETATM   26  N   UNL     1       4.292  29.717  49.597  1.00  0.00    -0.166 NA
HETATM   27  N   UNL     1       3.860  28.497  50.008  1.00  0.00    -0.244 N 
HETATM   28  C   UNL     1       3.996  28.352  51.370  1.00  0.00     0.132 A 
BRANCH  25  29
HETATM   29  C   UNL     1       5.114  31.771  50.613  1.00  0.00    -0.005 A 
HETATM   30  C   UNL     1       4.790  32.735  51.579  1.00  0.00     0.015 A 
HETATM   31  C   UNL     1       5.253  34.050  51.464  1.00  0.00     0.020 A 
HETATM   32  C   UNL     1       6.060  34.407  50.387  1.00  0.00     0.011 A 
HETATM   33 BR   UNL     1       6.692  36.182  50.241  1.00  0.00    -0.051 Br
HETATM   34  C   UNL     1       6.409  33.464  49.426  1.00  0.00     0.020 A 
HETATM   35  C   UNL     1       5.937  32.152  49.542  1.00  0.00     0.015 A 
ENDBRANCH  25  29
BRANCH  27  36
HETATM   36  C   UNL     1       3.368  27.549  49.069  1.00  0.00     0.058 A 
HETATM   37  C   UNL     1       2.115  27.759  48.470  1.00  0.00     0.031 A 
HETATM   38  C   UNL     1       1.614  26.846  47.541  1.00  0.00     0.002 A 
HETATM   39  C   UNL     1       2.355  25.715  47.207  1.00  0.00     0.000 A 
HETATM   40  C   UNL     1       3.596  25.494  47.803  1.00  0.00     0.002 A 
HETATM   41  C   UNL     1       4.107  26.407  48.732  1.00  0.00     0.031 A 
ENDBRANCH  27  36
ENDBRANCH   2  24
TORSDOF 10
ENDMDL
