MODEL 1
REMARK VINA RESULT:     -10.7      0.000      0.000
REMARK  8 active torsions:
REMARK  status: ('A' for Active; 'I' for Inactive)
REMARK    1  A    between atoms: C_3  and  S_4 
REMARK    2  A    between atoms: S_4  and  C_5 
REMARK    3  A    between atoms: C_5  and  C_6 
REMARK       I    between atoms: C_6  and  N_7 
REMARK    4  A    between atoms: N_7  and  C_8 
REMARK    5  A    between atoms: C_8  and  C_9 
REMARK    6  A    between atoms: C_18  and  C_19 
REMARK    7  A    between atoms: C_19  and  O_20 
REMARK    8  A    between atoms: O_20  and  C_21 
ROOT
HETATM    1  C   UNL     1       4.935  28.927  56.661  1.00  0.00     0.160 C 
HETATM    2  N   UNL     1       6.148  28.367  57.200  1.00  0.00    -0.314 N 
HETATM    3  C   UNL     1       7.135  29.009  57.892  1.00  0.00     0.191 A 
HETATM    4  N   UNL     1       8.071  28.153  58.230  1.00  0.00    -0.123 NA
HETATM    5  N   UNL     1       7.708  26.924  57.744  1.00  0.00    -0.132 NA
HETATM    6  C   UNL     1       6.553  27.052  57.119  1.00  0.00     0.154 A 
ENDROOT
BRANCH   3   7
HETATM    7  S   UNL     1       7.140  30.700  58.244  1.00  0.00    -0.081 SA
BRANCH   7   8
HETATM    8  C   UNL     1       8.910  30.996  58.527  1.00  0.00     0.185 C 
BRANCH   8   9
HETATM    9  C   UNL     1       9.203  31.350  59.975  1.00  0.00     0.227 C 
HETATM   10  N   UNL     1       8.525  30.605  60.908  1.00  0.00    -0.356 N 
HETATM   11  H   UNL     1       7.894  29.875  60.583  1.00  0.00     0.162 HD
HETATM   12  O   UNL     1       9.952  32.280  60.271  1.00  0.00    -0.273 OA
BRANCH  10  13
HETATM   13  C   UNL     1       8.593  30.863  62.326  1.00  0.00     0.161 C 
BRANCH  13  14
HETATM   14  C   UNL     1       7.643  31.955  62.750  1.00  0.00    -0.041 A 
HETATM   15  C   UNL     1       7.937  32.752  63.868  1.00  0.00     0.009 A 
HETATM   16  C   UNL     1       7.083  33.790  64.245  1.00  0.00     0.001 A 
HETATM   17  C   UNL     1       5.925  34.044  63.512  1.00  0.00     0.000 A 
HETATM   18  C   UNL     1       5.619  33.258  62.403  1.00  0.00     0.001 A 
HETATM   19  C   UNL     1       6.474  32.222  62.021  1.00  0.00     0.009 A 
ENDBRANCH  13  14
ENDBRANCH  10  13
ENDBRANCH   8   9
ENDBRANCH   7   8
ENDBRANCH   3   7
BRANCH   6  20
HETATM   20  C   UNL     1       5.789  25.953  56.464  1.00  0.00     0.256 C 
BRANCH  20  21
HETATM   21  O   UNL     1       6.262  25.849  55.121  1.00  0.00    -0.344 OA
BRANCH  21  22
HETATM   22  C   UNL     1       6.779  24.638  54.748  1.00  0.00     0.070 A 
HETATM   23  C   UNL     1       7.094  23.580  55.604  1.00  0.00     0.049 A 
HETATM   24  C   UNL     1       7.633  22.381  55.102  1.00  0.00    -0.023 A 
HETATM   25  C   UNL     1       7.851  22.245  53.712  1.00  0.00    -0.026 A 
HETATM   26  C   UNL     1       7.966  21.314  55.953  1.00  0.00     0.012 A 
HETATM   27  C   UNL     1       7.516  23.307  52.861  1.00  0.00     0.015 A 
HETATM   28  C   UNL     1       8.399  21.052  53.214  1.00  0.00     0.012 A 
HETATM   29  C   UNL     1       6.982  24.489  53.376  1.00  0.00     0.037 A 
HETATM   30  C   UNL     1       8.728  20.004  54.075  1.00  0.00     0.001 A 
HETATM   31  C   UNL     1       8.510  20.134  55.443  1.00  0.00     0.001 A 
ENDBRANCH  21  22
ENDBRANCH  20  21
ENDBRANCH   6  20
TORSDOF 8
ENDMDL
MODEL 2
REMARK VINA RESULT:     -10.3      0.839      1.701
REMARK  8 active torsions:
REMARK  status: ('A' for Active; 'I' for Inactive)
REMARK    1  A    between atoms: C_3  and  S_4 
REMARK    2  A    between atoms: S_4  and  C_5 
REMARK    3  A    between atoms: C_5  and  C_6 
REMARK       I    between atoms: C_6  and  N_7 
REMARK    4  A    between atoms: N_7  and  C_8 
REMARK    5  A    between atoms: C_8  and  C_9 
REMARK    6  A    between atoms: C_18  and  C_19 
REMARK    7  A    between atoms: C_19  and  O_20 
REMARK    8  A    between atoms: O_20  and  C_21 
ROOT
HETATM    1  C   UNL     1       5.125  29.349  56.726  1.00  0.00     0.160 C 
HETATM    2  N   UNL     1       6.352  28.888  57.322  1.00  0.00    -0.314 N 
HETATM    3  C   UNL     1       7.217  29.589  58.114  1.00  0.00     0.191 A 
HETATM    4  N   UNL     1       8.215  28.816  58.477  1.00  0.00    -0.123 NA
HETATM    5  N   UNL     1       8.018  27.586  57.907  1.00  0.00    -0.132 NA
HETATM    6  C   UNL     1       6.900  27.629  57.207  1.00  0.00     0.154 A 
ENDROOT
BRANCH   3   7
HETATM    7  S   UNL     1       7.018  31.249  58.547  1.00  0.00    -0.081 SA
BRANCH   7   8
HETATM    8  C   UNL     1       8.724  31.711  58.969  1.00  0.00     0.185 C 
BRANCH   8   9
HETATM    9  C   UNL     1       8.985  31.621  60.463  1.00  0.00     0.227 C 
HETATM   10  N   UNL     1       8.016  30.973  61.188  1.00  0.00    -0.356 N 
HETATM   11  H   UNL     1       7.210  30.594  60.695  1.00  0.00     0.162 HD
HETATM   12  O   UNL     1       9.970  32.150  60.976  1.00  0.00    -0.273 OA
BRANCH  10  13
HETATM   13  C   UNL     1       8.036  30.881  62.629  1.00  0.00     0.161 C 
BRANCH  13  14
HETATM   14  C   UNL     1       7.250  31.991  63.280  1.00  0.00    -0.041 A 
HETATM   15  C   UNL     1       5.861  32.073  63.099  1.00  0.00     0.009 A 
HETATM   16  C   UNL     1       5.119  33.074  63.729  1.00  0.00     0.001 A 
HETATM   17  C   UNL     1       5.757  34.006  64.546  1.00  0.00     0.000 A 
HETATM   18  C   UNL     1       7.136  33.940  64.731  1.00  0.00     0.001 A 
HETATM   19  C   UNL     1       7.879  32.936  64.105  1.00  0.00     0.009 A 
ENDBRANCH  13  14
ENDBRANCH  10  13
ENDBRANCH   8   9
ENDBRANCH   7   8
ENDBRANCH   3   7
BRANCH   6  20
HETATM   20  C   UNL     1       6.304  26.495  56.446  1.00  0.00     0.256 C 
BRANCH  20  21
HETATM   21  O   UNL     1       7.221  26.150  55.409  1.00  0.00    -0.344 OA
BRANCH  21  22
HETATM   22  C   UNL     1       7.563  24.828  55.309  1.00  0.00     0.070 A 
HETATM   23  C   UNL     1       7.580  24.071  54.135  1.00  0.00     0.049 A 
HETATM   24  C   UNL     1       7.940  22.711  54.160  1.00  0.00    -0.023 A 
HETATM   25  C   UNL     1       8.294  22.107  55.388  1.00  0.00    -0.026 A 
HETATM   26  C   UNL     1       7.950  21.934  52.989  1.00  0.00     0.012 A 
HETATM   27  C   UNL     1       8.288  22.881  56.556  1.00  0.00     0.015 A 
HETATM   28  C   UNL     1       8.642  20.747  55.412  1.00  0.00     0.012 A 
HETATM   29  C   UNL     1       7.929  24.229  56.513  1.00  0.00     0.037 A 
HETATM   30  C   UNL     1       8.642  19.990  54.239  1.00  0.00     0.001 A 
HETATM   31  C   UNL     1       8.298  20.583  53.029  1.00  0.00     0.001 A 
ENDBRANCH  21  22
ENDBRANCH  20  21
ENDBRANCH   6  20
TORSDOF 8
ENDMDL
MODEL 3
REMARK VINA RESULT:     -10.1      1.600     11.303
REMARK  8 active torsions:
REMARK  status: ('A' for Active; 'I' for Inactive)
REMARK    1  A    between atoms: C_3  and  S_4 
REMARK    2  A    between atoms: S_4  and  C_5 
REMARK    3  A    between atoms: C_5  and  C_6 
REMARK       I    between atoms: C_6  and  N_7 
REMARK    4  A    between atoms: N_7  and  C_8 
REMARK    5  A    between atoms: C_8  and  C_9 
REMARK    6  A    between atoms: C_18  and  C_19 
REMARK    7  A    between atoms: C_19  and  O_20 
REMARK    8  A    between atoms: O_20  and  C_21 
ROOT
HETATM    1  C   UNL     1       4.892  29.393  56.883  1.00  0.00     0.160 C 
HETATM    2  N   UNL     1       6.171  29.001  57.415  1.00  0.00    -0.314 N 
HETATM    3  C   UNL     1       6.741  27.760  57.403  1.00  0.00     0.191 A 
HETATM    4  N   UNL     1       7.925  27.807  57.970  1.00  0.00    -0.123 NA
HETATM    5  N   UNL     1       8.140  29.098  58.376  1.00  0.00    -0.132 NA
HETATM    6  C   UNL     1       7.084  29.817  58.047  1.00  0.00     0.154 A 
ENDROOT
BRANCH   3   7
HETATM    7  S   UNL     1       5.991  26.347  56.751  1.00  0.00    -0.081 SA
BRANCH   7   8
HETATM    8  C   UNL     1       6.010  26.727  54.974  1.00  0.00     0.185 C 
BRANCH   8   9
HETATM    9  C   UNL     1       5.967  25.468  54.123  1.00  0.00     0.227 C 
HETATM   10  N   UNL     1       7.185  24.883  53.882  1.00  0.00    -0.356 N 
HETATM   11  H   UNL     1       8.018  25.310  54.283  1.00  0.00     0.162 HD
HETATM   12  O   UNL     1       4.913  25.052  53.645  1.00  0.00    -0.273 OA
BRANCH  10  13
HETATM   13  C   UNL     1       7.356  23.745  53.010  1.00  0.00     0.161 C 
BRANCH  13  14
HETATM   14  C   UNL     1       7.744  22.502  53.770  1.00  0.00    -0.041 A 
HETATM   15  C   UNL     1       7.612  22.458  55.167  1.00  0.00     0.009 A 
HETATM   16  C   UNL     1       7.932  21.298  55.875  1.00  0.00     0.001 A 
HETATM   17  C   UNL     1       8.389  20.169  55.198  1.00  0.00     0.000 A 
HETATM   18  C   UNL     1       8.529  20.200  53.811  1.00  0.00     0.001 A 
HETATM   19  C   UNL     1       8.205  21.358  53.100  1.00  0.00     0.009 A 
ENDBRANCH  13  14
ENDBRANCH  10  13
ENDBRANCH   8   9
ENDBRANCH   7   8
ENDBRANCH   3   7
BRANCH   6  20
HETATM   20  C   UNL     1       6.914  31.278  58.286  1.00  0.00     0.256 C 
BRANCH  20  21
HETATM   21  O   UNL     1       8.079  31.734  58.974  1.00  0.00    -0.344 OA
BRANCH  21  22
HETATM   22  C   UNL     1       7.909  32.117  60.277  1.00  0.00     0.070 A 
HETATM   23  C   UNL     1       7.003  33.074  60.740  1.00  0.00     0.049 A 
HETATM   24  C   UNL     1       6.927  33.392  62.109  1.00  0.00    -0.023 A 
HETATM   25  C   UNL     1       7.774  32.729  63.025  1.00  0.00    -0.026 A 
HETATM   26  C   UNL     1       6.030  34.362  62.587  1.00  0.00     0.012 A 
HETATM   27  C   UNL     1       8.667  31.759  62.551  1.00  0.00     0.015 A 
HETATM   28  C   UNL     1       7.704  33.055  64.389  1.00  0.00     0.012 A 
HETATM   29  C   UNL     1       8.729  31.455  61.190  1.00  0.00     0.037 A 
HETATM   30  C   UNL     1       6.809  34.024  64.846  1.00  0.00     0.001 A 
HETATM   31  C   UNL     1       5.972  34.676  63.946  1.00  0.00     0.001 A 
ENDBRANCH  21  22
ENDBRANCH  20  21
ENDBRANCH   6  20
TORSDOF 8
ENDMDL
MODEL 4
REMARK VINA RESULT:      -9.6      1.939      2.363
REMARK  8 active torsions:
REMARK  status: ('A' for Active; 'I' for Inactive)
REMARK    1  A    between atoms: C_3  and  S_4 
REMARK    2  A    between atoms: S_4  and  C_5 
REMARK    3  A    between atoms: C_5  and  C_6 
REMARK       I    between atoms: C_6  and  N_7 
REMARK    4  A    between atoms: N_7  and  C_8 
REMARK    5  A    between atoms: C_8  and  C_9 
REMARK    6  A    between atoms: C_18  and  C_19 
REMARK    7  A    between atoms: C_19  and  O_20 
REMARK    8  A    between atoms: O_20  and  C_21 
ROOT
HETATM    1  C   UNL     1       4.656  27.903  56.805  1.00  0.00     0.160 C 
HETATM    2  N   UNL     1       5.961  28.307  57.259  1.00  0.00    -0.314 N 
HETATM    3  C   UNL     1       6.441  29.576  57.415  1.00  0.00     0.191 A 
HETATM    4  N   UNL     1       7.674  29.534  57.866  1.00  0.00    -0.123 NA
HETATM    5  N   UNL     1       8.024  28.216  57.999  1.00  0.00    -0.132 NA
HETATM    6  C   UNL     1       6.996  27.476  57.630  1.00  0.00     0.154 A 
ENDROOT
BRANCH   3   7
HETATM    7  S   UNL     1       5.549  31.009  57.051  1.00  0.00    -0.081 SA
BRANCH   7   8
HETATM    8  C   UNL     1       6.052  32.095  58.419  1.00  0.00     0.185 C 
BRANCH   8   9
HETATM    9  C   UNL     1       5.032  32.100  59.545  1.00  0.00     0.227 C 
HETATM   10  N   UNL     1       5.483  32.602  60.741  1.00  0.00    -0.356 N 
HETATM   11  H   UNL     1       6.442  32.940  60.796  1.00  0.00     0.162 HD
HETATM   12  O   UNL     1       3.905  31.629  59.395  1.00  0.00    -0.273 OA
BRANCH  10  13
HETATM   13  C   UNL     1       4.694  32.592  61.950  1.00  0.00     0.161 C 
BRANCH  13  14
HETATM   14  C   UNL     1       5.516  32.936  63.167  1.00  0.00    -0.041 A 
HETATM   15  C   UNL     1       6.909  32.765  63.149  1.00  0.00     0.009 A 
HETATM   16  C   UNL     1       7.683  33.118  64.257  1.00  0.00     0.001 A 
HETATM   17  C   UNL     1       7.074  33.644  65.394  1.00  0.00     0.000 A 
HETATM   18  C   UNL     1       5.692  33.816  65.427  1.00  0.00     0.001 A 
HETATM   19  C   UNL     1       4.917  33.468  64.319  1.00  0.00     0.009 A 
ENDBRANCH  13  14
ENDBRANCH  10  13
ENDBRANCH   8   9
ENDBRANCH   7   8
ENDBRANCH   3   7
BRANCH   6  20
HETATM   20  C   UNL     1       6.944  25.987  57.643  1.00  0.00     0.256 C 
BRANCH  20  21
HETATM   21  O   UNL     1       8.187  25.513  57.124  1.00  0.00    -0.344 OA
BRANCH  21  22
HETATM   22  C   UNL     1       8.118  24.544  56.161  1.00  0.00     0.070 A 
HETATM   23  C   UNL     1       8.523  23.214  56.304  1.00  0.00     0.049 A 
HETATM   24  C   UNL     1       8.413  22.308  55.233  1.00  0.00    -0.023 A 
HETATM   25  C   UNL     1       7.880  22.749  54.000  1.00  0.00    -0.026 A 
HETATM   26  C   UNL     1       8.828  20.971  55.358  1.00  0.00     0.012 A 
HETATM   27  C   UNL     1       7.462  24.080  53.874  1.00  0.00     0.015 A 
HETATM   28  C   UNL     1       7.781  21.846  52.929  1.00  0.00     0.012 A 
HETATM   29  C   UNL     1       7.578  24.966  54.947  1.00  0.00     0.037 A 
HETATM   30  C   UNL     1       8.202  20.523  53.071  1.00  0.00     0.001 A 
HETATM   31  C   UNL     1       8.723  20.086  54.284  1.00  0.00     0.001 A 
ENDBRANCH  21  22
ENDBRANCH  20  21
ENDBRANCH   6  20
TORSDOF 8
ENDMDL
MODEL 5
REMARK VINA RESULT:      -9.5      1.440      2.356
REMARK  8 active torsions:
REMARK  status: ('A' for Active; 'I' for Inactive)
REMARK    1  A    between atoms: C_3  and  S_4 
REMARK    2  A    between atoms: S_4  and  C_5 
REMARK    3  A    between atoms: C_5  and  C_6 
REMARK       I    between atoms: C_6  and  N_7 
REMARK    4  A    between atoms: N_7  and  C_8 
REMARK    5  A    between atoms: C_8  and  C_9 
REMARK    6  A    between atoms: C_18  and  C_19 
REMARK    7  A    between atoms: C_19  and  O_20 
REMARK    8  A    between atoms: O_20  and  C_21 
ROOT
HETATM    1  C   UNL     1       6.924  28.123  57.578  1.00  0.00     0.160 C 
HETATM    2  N   UNL     1       6.131  28.679  56.512  1.00  0.00    -0.314 N 
HETATM    3  C   UNL     1       5.290  29.754  56.563  1.00  0.00     0.191 A 
HETATM    4  N   UNL     1       4.760  29.962  55.380  1.00  0.00    -0.123 NA
HETATM    5  N   UNL     1       5.247  29.002  54.531  1.00  0.00    -0.132 NA
HETATM    6  C   UNL     1       6.068  28.226  55.212  1.00  0.00     0.154 A 
ENDROOT
BRANCH   3   7
HETATM    7  S   UNL     1       4.971  30.678  57.987  1.00  0.00    -0.081 SA
BRANCH   7   8
HETATM    8  C   UNL     1       6.288  31.926  57.900  1.00  0.00     0.185 C 
BRANCH   8   9
HETATM    9  C   UNL     1       7.298  31.767  59.024  1.00  0.00     0.227 C 
HETATM   10  N   UNL     1       6.764  31.462  60.252  1.00  0.00    -0.356 N 
HETATM   11  H   UNL     1       5.754  31.355  60.330  1.00  0.00     0.162 HD
HETATM   12  O   UNL     1       8.499  31.959  58.842  1.00  0.00    -0.273 OA
BRANCH  10  13
HETATM   13  C   UNL     1       7.553  31.376  61.457  1.00  0.00     0.161 C 
BRANCH  13  14
HETATM   14  C   UNL     1       7.208  32.467  62.440  1.00  0.00    -0.041 A 
HETATM   15  C   UNL     1       6.178  33.375  62.154  1.00  0.00     0.009 A 
HETATM   16  C   UNL     1       5.825  34.364  63.075  1.00  0.00     0.001 A 
HETATM   17  C   UNL     1       6.499  34.458  64.291  1.00  0.00     0.000 A 
HETATM   18  C   UNL     1       7.528  33.565  64.586  1.00  0.00     0.001 A 
HETATM   19  C   UNL     1       7.878  32.572  63.669  1.00  0.00     0.009 A 
ENDBRANCH  13  14
ENDBRANCH  10  13
ENDBRANCH   8   9
ENDBRANCH   7   8
ENDBRANCH   3   7
BRANCH   6  20
HETATM   20  C   UNL     1       6.833  27.071  54.664  1.00  0.00     0.256 C 
BRANCH  20  21
HETATM   21  O   UNL     1       5.984  25.926  54.736  1.00  0.00    -0.344 OA
BRANCH  21  22
HETATM   22  C   UNL     1       6.605  24.709  54.823  1.00  0.00     0.070 A 
HETATM   23  C   UNL     1       6.933  23.877  53.750  1.00  0.00     0.049 A 
HETATM   24  C   UNL     1       7.563  22.637  53.966  1.00  0.00    -0.023 A 
HETATM   25  C   UNL     1       7.873  22.234  55.285  1.00  0.00    -0.026 A 
HETATM   26  C   UNL     1       7.889  21.785  52.897  1.00  0.00     0.012 A 
HETATM   27  C   UNL     1       7.553  23.085  56.351  1.00  0.00     0.015 A 
HETATM   28  C   UNL     1       8.491  20.992  55.499  1.00  0.00     0.012 A 
HETATM   29  C   UNL     1       6.928  24.312  56.120  1.00  0.00     0.037 A 
HETATM   30  C   UNL     1       8.803  20.156  54.425  1.00  0.00     0.001 A 
HETATM   31  C   UNL     1       8.504  20.553  53.126  1.00  0.00     0.001 A 
ENDBRANCH  21  22
ENDBRANCH  20  21
ENDBRANCH   6  20
TORSDOF 8
ENDMDL
MODEL 6
REMARK VINA RESULT:      -9.3      2.270      3.171
REMARK  8 active torsions:
REMARK  status: ('A' for Active; 'I' for Inactive)
REMARK    1  A    between atoms: C_3  and  S_4 
REMARK    2  A    between atoms: S_4  and  C_5 
REMARK    3  A    between atoms: C_5  and  C_6 
REMARK       I    between atoms: C_6  and  N_7 
REMARK    4  A    between atoms: N_7  and  C_8 
REMARK    5  A    between atoms: C_8  and  C_9 
REMARK    6  A    between atoms: C_18  and  C_19 
REMARK    7  A    between atoms: C_19  and  O_20 
REMARK    8  A    between atoms: O_20  and  C_21 
ROOT
HETATM    1  C   UNL     1       5.996  28.834  57.391  1.00  0.00     0.160 C 
HETATM    2  N   UNL     1       5.481  28.914  56.048  1.00  0.00    -0.314 N 
HETATM    3  C   UNL     1       4.380  29.593  55.610  1.00  0.00     0.191 A 
HETATM    4  N   UNL     1       4.247  29.436  54.313  1.00  0.00    -0.123 NA
HETATM    5  N   UNL     1       5.268  28.630  53.884  1.00  0.00    -0.132 NA
HETATM    6  C   UNL     1       6.009  28.310  54.928  1.00  0.00     0.154 A 
ENDROOT
BRANCH   3   7
HETATM    7  S   UNL     1       3.323  30.502  56.629  1.00  0.00    -0.081 SA
BRANCH   7   8
HETATM    8  C   UNL     1       4.414  31.861  57.146  1.00  0.00     0.185 C 
BRANCH   8   9
HETATM    9  C   UNL     1       4.435  32.030  58.656  1.00  0.00     0.227 C 
HETATM   10  N   UNL     1       5.500  32.743  59.149  1.00  0.00    -0.356 N 
HETATM   11  H   UNL     1       6.185  33.112  58.493  1.00  0.00     0.162 HD
HETATM   12  O   UNL     1       3.584  31.508  59.373  1.00  0.00    -0.273 OA
BRANCH  10  13
HETATM   13  C   UNL     1       5.748  32.917  60.561  1.00  0.00     0.161 C 
BRANCH  13  14
HETATM   14  C   UNL     1       7.078  32.342  60.979  1.00  0.00    -0.041 A 
HETATM   15  C   UNL     1       7.179  31.582  62.154  1.00  0.00     0.009 A 
HETATM   16  C   UNL     1       8.398  31.013  62.530  1.00  0.00     0.001 A 
HETATM   17  C   UNL     1       9.529  31.198  61.737  1.00  0.00     0.000 A 
HETATM   18  C   UNL     1       9.443  31.954  60.570  1.00  0.00     0.001 A 
HETATM   19  C   UNL     1       8.224  32.520  60.190  1.00  0.00     0.009 A 
ENDBRANCH  13  14
ENDBRANCH  10  13
ENDBRANCH   8   9
ENDBRANCH   7   8
ENDBRANCH   3   7
BRANCH   6  20
HETATM   20  C   UNL     1       7.236  27.465  54.901  1.00  0.00     0.256 C 
BRANCH  20  21
HETATM   21  O   UNL     1       6.957  26.285  55.653  1.00  0.00    -0.344 OA
BRANCH  21  22
HETATM   22  C   UNL     1       7.236  25.092  55.044  1.00  0.00     0.070 A 
HETATM   23  C   UNL     1       7.349  23.852  55.679  1.00  0.00     0.049 A 
HETATM   24  C   UNL     1       7.653  22.691  54.945  1.00  0.00    -0.023 A 
HETATM   25  C   UNL     1       7.839  22.781  53.547  1.00  0.00    -0.026 A 
HETATM   26  C   UNL     1       7.782  21.440  55.572  1.00  0.00     0.012 A 
HETATM   27  C   UNL     1       7.707  24.026  52.919  1.00  0.00     0.015 A 
HETATM   28  C   UNL     1       8.153  21.622  52.817  1.00  0.00     0.012 A 
HETATM   29  C   UNL     1       7.405  25.168  53.662  1.00  0.00     0.037 A 
HETATM   30  C   UNL     1       8.281  20.389  53.458  1.00  0.00     0.001 A 
HETATM   31  C   UNL     1       8.095  20.298  54.834  1.00  0.00     0.001 A 
ENDBRANCH  21  22
ENDBRANCH  20  21
ENDBRANCH   6  20
TORSDOF 8
ENDMDL
MODEL 7
REMARK VINA RESULT:      -9.2      2.011      2.755
REMARK  8 active torsions:
REMARK  status: ('A' for Active; 'I' for Inactive)
REMARK    1  A    between atoms: C_3  and  S_4 
REMARK    2  A    between atoms: S_4  and  C_5 
REMARK    3  A    between atoms: C_5  and  C_6 
REMARK       I    between atoms: C_6  and  N_7 
REMARK    4  A    between atoms: N_7  and  C_8 
REMARK    5  A    between atoms: C_8  and  C_9 
REMARK    6  A    between atoms: C_18  and  C_19 
REMARK    7  A    between atoms: C_19  and  O_20 
REMARK    8  A    between atoms: O_20  and  C_21 
ROOT
HETATM    1  C   UNL     1       4.431  28.818  54.553  1.00  0.00     0.160 C 
HETATM    2  N   UNL     1       5.450  28.656  55.556  1.00  0.00    -0.314 N 
HETATM    3  C   UNL     1       5.529  29.259  56.780  1.00  0.00     0.191 A 
HETATM    4  N   UNL     1       6.599  28.841  57.415  1.00  0.00    -0.123 NA
HETATM    5  N   UNL     1       7.250  27.955  56.596  1.00  0.00    -0.132 NA
HETATM    6  C   UNL     1       6.563  27.847  55.475  1.00  0.00     0.154 A 
ENDROOT
BRANCH   3   7
HETATM    7  S   UNL     1       4.389  30.411  57.375  1.00  0.00    -0.081 SA
BRANCH   7   8
HETATM    8  C   UNL     1       5.484  31.582  58.231  1.00  0.00     0.185 C 
BRANCH   8   9
HETATM    9  C   UNL     1       4.776  32.291  59.374  1.00  0.00     0.227 C 
HETATM   10  N   UNL     1       5.519  33.249  60.018  1.00  0.00    -0.356 N 
HETATM   11  H   UNL     1       6.468  33.429  59.693  1.00  0.00     0.162 HD
HETATM   12  O   UNL     1       3.640  31.973  59.722  1.00  0.00    -0.273 OA
BRANCH  10  13
HETATM   13  C   UNL     1       5.056  33.952  61.190  1.00  0.00     0.161 C 
BRANCH  13  14
HETATM   14  C   UNL     1       5.941  33.706  62.386  1.00  0.00    -0.041 A 
HETATM   15  C   UNL     1       7.073  32.884  62.269  1.00  0.00     0.009 A 
HETATM   16  C   UNL     1       7.920  32.681  63.361  1.00  0.00     0.001 A 
HETATM   17  C   UNL     1       7.645  33.294  64.582  1.00  0.00     0.000 A 
HETATM   18  C   UNL     1       6.522  34.109  64.713  1.00  0.00     0.001 A 
HETATM   19  C   UNL     1       5.677  34.317  63.621  1.00  0.00     0.009 A 
ENDBRANCH  13  14
ENDBRANCH  10  13
ENDBRANCH   8   9
ENDBRANCH   7   8
ENDBRANCH   3   7
BRANCH   6  20
HETATM   20  C   UNL     1       6.908  26.968  54.322  1.00  0.00     0.256 C 
BRANCH  20  21
HETATM   21  O   UNL     1       6.046  25.832  54.381  1.00  0.00    -0.344 OA
BRANCH  21  22
HETATM   22  C   UNL     1       6.650  24.615  54.547  1.00  0.00     0.070 A 
HETATM   23  C   UNL     1       6.986  23.719  53.529  1.00  0.00     0.049 A 
HETATM   24  C   UNL     1       7.596  22.486  53.826  1.00  0.00    -0.023 A 
HETATM   25  C   UNL     1       7.878  22.155  55.170  1.00  0.00    -0.026 A 
HETATM   26  C   UNL     1       7.929  21.570  52.813  1.00  0.00     0.012 A 
HETATM   27  C   UNL     1       7.551  23.068  56.181  1.00  0.00     0.015 A 
HETATM   28  C   UNL     1       8.477  20.920  55.465  1.00  0.00     0.012 A 
HETATM   29  C   UNL     1       6.946  24.287  55.870  1.00  0.00     0.037 A 
HETATM   30  C   UNL     1       8.797  20.021  54.447  1.00  0.00     0.001 A 
HETATM   31  C   UNL     1       8.524  20.347  53.122  1.00  0.00     0.001 A 
ENDBRANCH  21  22
ENDBRANCH  20  21
ENDBRANCH   6  20
TORSDOF 8
ENDMDL
MODEL 8
REMARK VINA RESULT:      -9.1      2.061     11.237
REMARK  8 active torsions:
REMARK  status: ('A' for Active; 'I' for Inactive)
REMARK    1  A    between atoms: C_3  and  S_4 
REMARK    2  A    between atoms: S_4  and  C_5 
REMARK    3  A    between atoms: C_5  and  C_6 
REMARK       I    between atoms: C_6  and  N_7 
REMARK    4  A    between atoms: N_7  and  C_8 
REMARK    5  A    between atoms: C_8  and  C_9 
REMARK    6  A    between atoms: C_18  and  C_19 
REMARK    7  A    between atoms: C_19  and  O_20 
REMARK    8  A    between atoms: O_20  and  C_21 
ROOT
HETATM    1  C   UNL     1       3.965  30.019  55.757  1.00  0.00     0.160 C 
HETATM    2  N   UNL     1       5.156  29.615  56.460  1.00  0.00    -0.314 N 
HETATM    3  C   UNL     1       5.880  28.468  56.296  1.00  0.00     0.191 A 
HETATM    4  N   UNL     1       6.910  28.472  57.110  1.00  0.00    -0.123 NA
HETATM    5  N   UNL     1       6.863  29.632  57.836  1.00  0.00    -0.132 NA
HETATM    6  C   UNL     1       5.805  30.320  57.449  1.00  0.00     0.154 A 
ENDROOT
BRANCH   3   7
HETATM    7  S   UNL     1       5.473  27.206  55.189  1.00  0.00    -0.081 SA
BRANCH   7   8
HETATM    8  C   UNL     1       6.660  27.516  53.849  1.00  0.00     0.185 C 
BRANCH   8   9
HETATM    9  C   UNL     1       6.829  26.305  52.947  1.00  0.00     0.227 C 
HETATM   10  N   UNL     1       7.629  25.308  53.450  1.00  0.00    -0.356 N 
HETATM   11  H   UNL     1       8.039  25.433  54.373  1.00  0.00     0.162 HD
HETATM   12  O   UNL     1       6.326  26.264  51.825  1.00  0.00    -0.273 OA
BRANCH  10  13
HETATM   13  C   UNL     1       7.991  24.131  52.697  1.00  0.00     0.161 C 
BRANCH  13  14
HETATM   14  C   UNL     1       7.974  22.886  53.548  1.00  0.00    -0.041 A 
HETATM   15  C   UNL     1       7.817  22.984  54.939  1.00  0.00     0.009 A 
HETATM   16  C   UNL     1       7.762  21.835  55.731  1.00  0.00     0.001 A 
HETATM   17  C   UNL     1       7.863  20.576  55.143  1.00  0.00     0.000 A 
HETATM   18  C   UNL     1       8.024  20.464  53.763  1.00  0.00     0.001 A 
HETATM   19  C   UNL     1       8.075  21.612  52.969  1.00  0.00     0.009 A 
ENDBRANCH  13  14
ENDBRANCH  10  13
ENDBRANCH   8   9
ENDBRANCH   7   8
ENDBRANCH   3   7
BRANCH   6  20
HETATM   20  C   UNL     1       5.395  31.655  57.968  1.00  0.00     0.256 C 
BRANCH  20  21
HETATM   21  O   UNL     1       6.535  32.234  58.602  1.00  0.00    -0.344 OA
BRANCH  21  22
HETATM   22  C   UNL     1       6.373  32.642  59.898  1.00  0.00     0.070 A 
HETATM   23  C   UNL     1       7.292  32.463  60.936  1.00  0.00     0.049 A 
HETATM   24  C   UNL     1       7.007  32.918  62.236  1.00  0.00    -0.023 A 
HETATM   25  C   UNL     1       5.780  33.570  62.492  1.00  0.00    -0.026 A 
HETATM   26  C   UNL     1       7.916  32.734  63.293  1.00  0.00     0.012 A 
HETATM   27  C   UNL     1       4.874  33.759  61.440  1.00  0.00     0.015 A 
HETATM   28  C   UNL     1       5.493  34.014  63.794  1.00  0.00     0.012 A 
HETATM   29  C   UNL     1       5.172  33.301  60.155  1.00  0.00     0.037 A 
HETATM   30  C   UNL     1       6.406  33.819  64.831  1.00  0.00     0.001 A 
HETATM   31  C   UNL     1       7.617  33.180  64.580  1.00  0.00     0.001 A 
ENDBRANCH  21  22
ENDBRANCH  20  21
ENDBRANCH   6  20
TORSDOF 8
ENDMDL
MODEL 9
REMARK VINA RESULT:      -8.9      2.505      3.357
REMARK  8 active torsions:
REMARK  status: ('A' for Active; 'I' for Inactive)
REMARK    1  A    between atoms: C_3  and  S_4 
REMARK    2  A    between atoms: S_4  and  C_5 
REMARK    3  A    between atoms: C_5  and  C_6 
REMARK       I    between atoms: C_6  and  N_7 
REMARK    4  A    between atoms: N_7  and  C_8 
REMARK    5  A    between atoms: C_8  and  C_9 
REMARK    6  A    between atoms: C_18  and  C_19 
REMARK    7  A    between atoms: C_19  and  O_20 
REMARK    8  A    between atoms: O_20  and  C_21 
ROOT
HETATM    1  C   UNL     1       3.806  30.728  53.004  1.00  0.00     0.160 C 
HETATM    2  N   UNL     1       3.920  29.880  54.162  1.00  0.00    -0.314 N 
HETATM    3  C   UNL     1       3.644  30.193  55.463  1.00  0.00     0.191 A 
HETATM    4  N   UNL     1       3.856  29.147  56.228  1.00  0.00    -0.123 NA
HETATM    5  N   UNL     1       4.293  28.126  55.426  1.00  0.00    -0.132 NA
HETATM    6  C   UNL     1       4.337  28.567  54.183  1.00  0.00     0.154 A 
ENDROOT
BRANCH   3   7
HETATM    7  S   UNL     1       3.112  31.745  56.002  1.00  0.00    -0.081 SA
BRANCH   7   8
HETATM    8  C   UNL     1       3.657  31.722  57.736  1.00  0.00     0.185 C 
BRANCH   8   9
HETATM    9  C   UNL     1       5.138  32.033  57.870  1.00  0.00     0.227 C 
HETATM   10  N   UNL     1       5.812  31.282  58.802  1.00  0.00    -0.356 N 
HETATM   11  H   UNL     1       5.295  30.576  59.323  1.00  0.00     0.162 HD
HETATM   12  O   UNL     1       5.666  32.937  57.225  1.00  0.00    -0.273 OA
BRANCH  10  13
HETATM   13  C   UNL     1       7.196  31.504  59.145  1.00  0.00     0.161 C 
BRANCH  13  14
HETATM   14  C   UNL     1       7.365  31.913  60.586  1.00  0.00    -0.041 A 
HETATM   15  C   UNL     1       6.265  32.384  61.320  1.00  0.00     0.009 A 
HETATM   16  C   UNL     1       6.403  32.728  62.666  1.00  0.00     0.001 A 
HETATM   17  C   UNL     1       7.641  32.608  63.294  1.00  0.00     0.000 A 
HETATM   18  C   UNL     1       8.743  32.146  62.577  1.00  0.00     0.001 A 
HETATM   19  C   UNL     1       8.606  31.797  61.232  1.00  0.00     0.009 A 
ENDBRANCH  13  14
ENDBRANCH  10  13
ENDBRANCH   8   9
ENDBRANCH   7   8
ENDBRANCH   3   7
BRANCH   6  20
HETATM   20  C   UNL     1       4.737  27.771  52.988  1.00  0.00     0.256 C 
BRANCH  20  21
HETATM   21  O   UNL     1       6.151  27.589  53.051  1.00  0.00    -0.344 OA
BRANCH  21  22
HETATM   22  C   UNL     1       6.598  26.302  53.181  1.00  0.00     0.070 A 
HETATM   23  C   UNL     1       6.619  25.555  54.361  1.00  0.00     0.049 A 
HETATM   24  C   UNL     1       7.115  24.238  54.372  1.00  0.00    -0.023 A 
HETATM   25  C   UNL     1       7.590  23.664  53.172  1.00  0.00    -0.026 A 
HETATM   26  C   UNL     1       7.153  23.480  55.555  1.00  0.00     0.012 A 
HETATM   27  C   UNL     1       7.548  24.417  51.991  1.00  0.00     0.015 A 
HETATM   28  C   UNL     1       8.094  22.353  53.187  1.00  0.00     0.012 A 
HETATM   29  C   UNL     1       7.053  25.722  51.998  1.00  0.00     0.037 A 
HETATM   30  C   UNL     1       8.128  21.616  54.372  1.00  0.00     0.001 A 
HETATM   31  C   UNL     1       7.657  22.178  55.554  1.00  0.00     0.001 A 
ENDBRANCH  21  22
ENDBRANCH  20  21
ENDBRANCH   6  20
TORSDOF 8
ENDMDL
MODEL 10
REMARK VINA RESULT:      -8.7      2.199      3.866
REMARK  8 active torsions:
REMARK  status: ('A' for Active; 'I' for Inactive)
REMARK    1  A    between atoms: C_3  and  S_4 
REMARK    2  A    between atoms: S_4  and  C_5 
REMARK    3  A    between atoms: C_5  and  C_6 
REMARK       I    between atoms: C_6  and  N_7 
REMARK    4  A    between atoms: N_7  and  C_8 
REMARK    5  A    between atoms: C_8  and  C_9 
REMARK    6  A    between atoms: C_18  and  C_19 
REMARK    7  A    between atoms: C_19  and  O_20 
REMARK    8  A    between atoms: O_20  and  C_21 
ROOT
HETATM    1  C   UNL     1       4.702  28.764  56.740  1.00  0.00     0.160 C 
HETATM    2  N   UNL     1       5.895  28.098  57.194  1.00  0.00    -0.314 N 
HETATM    3  C   UNL     1       7.007  28.657  57.758  1.00  0.00     0.191 A 
HETATM    4  N   UNL     1       7.876  27.719  58.054  1.00  0.00    -0.123 NA
HETATM    5  N   UNL     1       7.340  26.518  57.669  1.00  0.00    -0.132 NA
HETATM    6  C   UNL     1       6.150  26.745  57.146  1.00  0.00     0.154 A 
ENDROOT
BRANCH   3   7
HETATM    7  S   UNL     1       7.223  30.351  58.018  1.00  0.00    -0.081 SA
BRANCH   7   8
HETATM    8  C   UNL     1       9.035  30.483  57.992  1.00  0.00     0.185 C 
BRANCH   8   9
HETATM    9  C   UNL     1       9.558  31.357  59.121  1.00  0.00     0.227 C 
HETATM   10  N   UNL     1       8.915  31.204  60.324  1.00  0.00    -0.356 N 
HETATM   11  H   UNL     1       8.157  30.528  60.389  1.00  0.00     0.162 HD
HETATM   12  O   UNL     1      10.454  32.179  58.935  1.00  0.00    -0.273 OA
BRANCH  10  13
HETATM   13  C   UNL     1       9.200  32.020  61.481  1.00  0.00     0.161 C 
BRANCH  13  14
HETATM   14  C   UNL     1       7.962  32.306  62.292  1.00  0.00    -0.041 A 
HETATM   15  C   UNL     1       6.690  32.093  61.738  1.00  0.00     0.009 A 
HETATM   16  C   UNL     1       5.538  32.318  62.495  1.00  0.00     0.001 A 
HETATM   17  C   UNL     1       5.643  32.759  63.813  1.00  0.00     0.000 A 
HETATM   18  C   UNL     1       6.900  32.978  64.374  1.00  0.00     0.001 A 
HETATM   19  C   UNL     1       8.053  32.750  63.621  1.00  0.00     0.009 A 
ENDBRANCH  13  14
ENDBRANCH  10  13
ENDBRANCH   8   9
ENDBRANCH   7   8
ENDBRANCH   3   7
BRANCH   6  20
HETATM   20  C   UNL     1       5.216  25.710  56.622  1.00  0.00     0.256 C 
BRANCH  20  21
HETATM   21  O   UNL     1       5.898  25.008  55.583  1.00  0.00    -0.344 OA
BRANCH  21  22
HETATM   22  C   UNL     1       5.634  25.407  54.300  1.00  0.00     0.070 A 
HETATM   23  C   UNL     1       5.098  26.640  53.918  1.00  0.00     0.049 A 
HETATM   24  C   UNL     1       4.860  26.932  52.562  1.00  0.00    -0.023 A 
HETATM   25  C   UNL     1       5.174  25.970  51.577  1.00  0.00    -0.026 A 
HETATM   26  C   UNL     1       4.309  28.163  52.164  1.00  0.00     0.012 A 
HETATM   27  C   UNL     1       5.727  24.744  51.971  1.00  0.00     0.015 A 
HETATM   28  C   UNL     1       4.926  26.260  50.225  1.00  0.00     0.012 A 
HETATM   29  C   UNL     1       5.957  24.470  53.321  1.00  0.00     0.037 A 
HETATM   30  C   UNL     1       4.375  27.486  49.849  1.00  0.00     0.001 A 
HETATM   31  C   UNL     1       4.068  28.436  50.817  1.00  0.00     0.001 A 
ENDBRANCH  21  22
ENDBRANCH  20  21
ENDBRANCH   6  20
TORSDOF 8
ENDMDL
