MODEL 1
REMARK VINA RESULT:      -9.3      0.000      0.000
REMARK  8 active torsions:
REMARK  status: ('A' for Active; 'I' for Inactive)
REMARK    1  A    between atoms: C_2  and  C_3 
REMARK    2  A    between atoms: C_3  and  O_4 
REMARK    3  A    between atoms: O_4  and  C_5 
REMARK    4  A    between atoms: C_7  and  C_8 
REMARK    5  A    between atoms: N_9  and  C_10 
REMARK    6  A    between atoms: C_10  and  C_11 
REMARK    7  A    between atoms: C_24  and  C_25 
REMARK    8  A    between atoms: C_26  and  O_27 
ROOT
HETATM    1  C   UNL     1       7.989  25.895  54.750  1.00  0.00     0.159 A 
HETATM    2  N   UNL     1       7.889  27.057  55.676  1.00  0.00    -0.329 N 
HETATM    3  C   UNL     1       7.938  26.712  57.028  1.00  0.00     0.273 A 
HETATM    4  O   UNL     1       7.921  27.444  58.001  1.00  0.00    -0.266 OA
HETATM    5  C   UNL     1       8.037  25.302  57.005  1.00  0.00     0.129 A 
HETATM    6  C   UNL     1       8.083  24.796  55.739  1.00  0.00     0.034 A 
HETATM    7  N   UNL     1       8.105  24.278  57.866  1.00  0.00    -0.272 N 
HETATM    8  H   UNL     1       8.095  24.291  58.882  1.00  0.00     0.189 HD
HETATM    9  N   UNL     1       8.184  23.088  57.216  1.00  0.00    -0.173 NA
HETATM   10  C   UNL     1       8.226  23.406  55.893  1.00  0.00     0.101 A 
ENDROOT
BRANCH   1  11
HETATM   11  C   UNL     1       6.739  25.667  53.934  1.00  0.00    -0.028 A 
HETATM   12  C   UNL     1       6.737  25.991  52.565  1.00  0.00     0.046 A 
HETATM   13  C   UNL     1       5.609  25.779  51.764  1.00  0.00     0.069 A 
HETATM   14  C   UNL     1       4.454  25.250  52.336  1.00  0.00     0.037 A 
HETATM   15  C   UNL     1       4.430  24.931  53.694  1.00  0.00     0.003 A 
HETATM   16  C   UNL     1       5.561  25.136  54.486  1.00  0.00     0.010 A 
BRANCH  13  17
HETATM   17  O   UNL     1       5.770  26.131  50.453  1.00  0.00    -0.348 OA
BRANCH  17  18
HETATM   18  C   UNL     1       4.818  27.043  49.907  1.00  0.00     0.202 C 
BRANCH  18  19
HETATM   19  C   UNL     1       4.389  26.502  48.576  1.00  0.00    -0.011 C 
HETATM   20  C   UNL     1       3.439  25.574  48.399  1.00  0.00     0.009 C 
ENDBRANCH  18  19
ENDBRANCH  17  18
ENDBRANCH  13  17
ENDBRANCH   1  11
BRANCH   2  21
HETATM   21  C   UNL     1       7.915  28.424  55.206  1.00  0.00     0.165 C 
BRANCH  21  22
HETATM   22  C   UNL     1       6.600  29.123  55.428  1.00  0.00    -0.037 A 
HETATM   23  C   UNL     1       6.464  30.106  56.413  1.00  0.00     0.028 A 
HETATM   24  C   UNL     1       5.229  30.712  56.579  1.00  0.00     0.116 A 
HETATM   25  N   UNL     1       4.137  30.407  55.847  1.00  0.00    -0.273 NA
HETATM   26  C   UNL     1       4.287  29.456  54.900  1.00  0.00     0.116 A 
HETATM   27  C   UNL     1       5.480  28.797  54.656  1.00  0.00     0.028 A 
ENDBRANCH  21  22
ENDBRANCH   2  21
BRANCH  10  28
HETATM   28  C   UNL     1       8.368  22.358  54.879  1.00  0.00     0.028 A 
HETATM   29  C   UNL     1       8.794  21.061  55.220  1.00  0.00     0.078 A 
HETATM   30  C   UNL     1       8.899  20.058  54.259  1.00  0.00     0.037 A 
HETATM   31  C   UNL     1       8.602  20.340  52.928  1.00  0.00     0.003 A 
HETATM   32  C   UNL     1       8.207  21.625  52.561  1.00  0.00     0.001 A 
HETATM   33  C   UNL     1       8.094  22.629  53.530  1.00  0.00     0.017 A 
BRANCH  29  34
HETATM   34  O   UNL     1       9.135  20.714  56.502  1.00  0.00    -0.360 OA
HETATM   35  H   UNL     1       9.428  19.775  56.459  1.00  0.00     0.217 HD
ENDBRANCH  29  34
ENDBRANCH  10  28
TORSDOF 8
ENDMDL
MODEL 2
REMARK VINA RESULT:      -9.1      2.368      6.729
REMARK  8 active torsions:
REMARK  status: ('A' for Active; 'I' for Inactive)
REMARK    1  A    between atoms: C_2  and  C_3 
REMARK    2  A    between atoms: C_3  and  O_4 
REMARK    3  A    between atoms: O_4  and  C_5 
REMARK    4  A    between atoms: C_7  and  C_8 
REMARK    5  A    between atoms: N_9  and  C_10 
REMARK    6  A    between atoms: C_10  and  C_11 
REMARK    7  A    between atoms: C_24  and  C_25 
REMARK    8  A    between atoms: C_26  and  O_27 
ROOT
HETATM    1  C   UNL     1       6.409  27.315  53.841  1.00  0.00     0.159 A 
HETATM    2  N   UNL     1       5.135  27.114  53.097  1.00  0.00    -0.329 N 
HETATM    3  C   UNL     1       4.123  28.008  53.453  1.00  0.00     0.273 A 
HETATM    4  O   UNL     1       3.001  28.110  52.990  1.00  0.00    -0.266 OA
HETATM    5  C   UNL     1       4.717  28.791  54.468  1.00  0.00     0.129 A 
HETATM    6  C   UNL     1       6.014  28.445  54.713  1.00  0.00     0.034 A 
HETATM    7  N   UNL     1       4.393  29.800  55.288  1.00  0.00    -0.272 N 
HETATM    8  H   UNL     1       3.512  30.299  55.376  1.00  0.00     0.189 HD
HETATM    9  N   UNL     1       5.434  30.140  56.091  1.00  0.00    -0.173 NA
HETATM   10  C   UNL     1       6.462  29.338  55.701  1.00  0.00     0.101 A 
ENDROOT
BRANCH   1  11
HETATM   11  C   UNL     1       6.772  26.154  54.737  1.00  0.00    -0.028 A 
HETATM   12  C   UNL     1       7.586  25.121  54.238  1.00  0.00     0.046 A 
HETATM   13  C   UNL     1       7.965  24.036  55.036  1.00  0.00     0.069 A 
HETATM   14  C   UNL     1       7.514  23.965  56.353  1.00  0.00     0.037 A 
HETATM   15  C   UNL     1       6.697  24.974  56.866  1.00  0.00     0.003 A 
HETATM   16  C   UNL     1       6.330  26.058  56.068  1.00  0.00     0.010 A 
BRANCH  13  17
HETATM   17  O   UNL     1       8.768  23.124  54.410  1.00  0.00    -0.348 OA
BRANCH  17  18
HETATM   18  C   UNL     1       8.951  21.869  55.063  1.00  0.00     0.202 C 
BRANCH  18  19
HETATM   19  C   UNL     1       8.132  20.854  54.324  1.00  0.00    -0.011 C 
HETATM   20  C   UNL     1       8.147  20.679  52.996  1.00  0.00     0.009 C 
ENDBRANCH  18  19
ENDBRANCH  17  18
ENDBRANCH  13  17
ENDBRANCH   1  11
BRANCH   2  21
HETATM   21  C   UNL     1       5.024  26.190  51.990  1.00  0.00     0.165 C 
BRANCH  21  22
HETATM   22  C   UNL     1       5.059  26.896  50.660  1.00  0.00    -0.037 A 
HETATM   23  C   UNL     1       5.584  28.186  50.544  1.00  0.00     0.028 A 
HETATM   24  C   UNL     1       5.587  28.790  49.296  1.00  0.00     0.116 A 
HETATM   25  N   UNL     1       5.103  28.209  48.178  1.00  0.00    -0.273 NA
HETATM   26  C   UNL     1       4.601  26.962  48.310  1.00  0.00     0.116 A 
HETATM   27  C   UNL     1       4.559  26.274  49.511  1.00  0.00     0.028 A 
ENDBRANCH  21  22
ENDBRANCH   2  21
BRANCH  10  28
HETATM   28  C   UNL     1       7.783  29.464  56.323  1.00  0.00     0.028 A 
HETATM   29  C   UNL     1       7.923  29.771  57.689  1.00  0.00     0.078 A 
HETATM   30  C   UNL     1       9.178  29.861  58.286  1.00  0.00     0.037 A 
HETATM   31  C   UNL     1      10.325  29.669  57.519  1.00  0.00     0.003 A 
HETATM   32  C   UNL     1      10.212  29.393  56.158  1.00  0.00     0.001 A 
HETATM   33  C   UNL     1       8.949  29.295  55.563  1.00  0.00     0.017 A 
BRANCH  29  34
HETATM   34  O   UNL     1       6.844  30.006  58.503  1.00  0.00    -0.360 OA
HETATM   35  H   UNL     1       6.231  29.249  58.365  1.00  0.00     0.217 HD
ENDBRANCH  29  34
ENDBRANCH  10  28
TORSDOF 8
ENDMDL
MODEL 3
REMARK VINA RESULT:      -9.0      2.307      4.948
REMARK  8 active torsions:
REMARK  status: ('A' for Active; 'I' for Inactive)
REMARK    1  A    between atoms: C_2  and  C_3 
REMARK    2  A    between atoms: C_3  and  O_4 
REMARK    3  A    between atoms: O_4  and  C_5 
REMARK    4  A    between atoms: C_7  and  C_8 
REMARK    5  A    between atoms: N_9  and  C_10 
REMARK    6  A    between atoms: C_10  and  C_11 
REMARK    7  A    between atoms: C_24  and  C_25 
REMARK    8  A    between atoms: C_26  and  O_27 
ROOT
HETATM    1  C   UNL     1       5.346  25.242  54.039  1.00  0.00     0.159 A 
HETATM    2  N   UNL     1       4.886  26.263  53.058  1.00  0.00    -0.329 N 
HETATM    3  C   UNL     1       5.631  26.293  51.878  1.00  0.00     0.273 A 
HETATM    4  O   UNL     1       5.464  26.986  50.891  1.00  0.00    -0.266 OA
HETATM    5  C   UNL     1       6.619  25.304  52.087  1.00  0.00     0.129 A 
HETATM    6  C   UNL     1       6.490  24.673  53.290  1.00  0.00     0.034 A 
HETATM    7  N   UNL     1       7.674  24.777  51.451  1.00  0.00    -0.272 N 
HETATM    8  H   UNL     1       8.056  25.009  50.538  1.00  0.00     0.189 HD
HETATM    9  N   UNL     1       8.271  23.811  52.197  1.00  0.00    -0.173 NA
HETATM   10  C   UNL     1       7.508  23.703  53.318  1.00  0.00     0.101 A 
ENDROOT
BRANCH   1  11
HETATM   11  C   UNL     1       5.889  25.836  55.318  1.00  0.00    -0.028 A 
HETATM   12  C   UNL     1       6.963  26.742  55.259  1.00  0.00     0.046 A 
HETATM   13  C   UNL     1       7.486  27.333  56.414  1.00  0.00     0.069 A 
HETATM   14  C   UNL     1       6.945  27.006  57.655  1.00  0.00     0.037 A 
HETATM   15  C   UNL     1       5.885  26.102  57.739  1.00  0.00     0.003 A 
HETATM   16  C   UNL     1       5.361  25.522  56.582  1.00  0.00     0.010 A 
BRANCH  13  17
HETATM   17  O   UNL     1       8.519  28.201  56.189  1.00  0.00    -0.348 OA
BRANCH  17  18
HETATM   18  C   UNL     1       8.431  29.483  56.810  1.00  0.00     0.202 C 
BRANCH  18  19
HETATM   19  C   UNL     1       9.760  29.765  57.446  1.00  0.00    -0.011 C 
HETATM   20  C   UNL     1      10.945  29.608  56.843  1.00  0.00     0.009 C 
ENDBRANCH  18  19
ENDBRANCH  17  18
ENDBRANCH  13  17
ENDBRANCH   1  11
BRANCH   2  21
HETATM   21  C   UNL     1       3.673  27.027  53.250  1.00  0.00     0.165 C 
BRANCH  21  22
HETATM   22  C   UNL     1       3.958  28.431  53.714  1.00  0.00    -0.037 A 
HETATM   23  C   UNL     1       4.184  28.711  55.065  1.00  0.00     0.028 A 
HETATM   24  C   UNL     1       4.436  30.023  55.436  1.00  0.00     0.116 A 
HETATM   25  N   UNL     1       4.470  31.057  54.570  1.00  0.00    -0.273 NA
HETATM   26  C   UNL     1       4.251  30.767  53.269  1.00  0.00     0.116 A 
HETATM   27  C   UNL     1       3.996  29.489  52.800  1.00  0.00     0.028 A 
ENDBRANCH  21  22
ENDBRANCH   2  21
BRANCH  10  28
HETATM   28  C   UNL     1       7.826  22.706  54.343  1.00  0.00     0.028 A 
HETATM   29  C   UNL     1       7.909  21.337  54.033  1.00  0.00     0.078 A 
HETATM   30  C   UNL     1       8.241  20.392  55.002  1.00  0.00     0.037 A 
HETATM   31  C   UNL     1       8.473  20.800  56.313  1.00  0.00     0.003 A 
HETATM   32  C   UNL     1       8.368  22.148  56.652  1.00  0.00     0.001 A 
HETATM   33  C   UNL     1       8.043  23.094  55.674  1.00  0.00     0.017 A 
BRANCH  29  34
HETATM   34  O   UNL     1       7.661  20.854  52.772  1.00  0.00    -0.360 OA
HETATM   35  H   UNL     1       7.108  21.535  52.326  1.00  0.00     0.217 HD
ENDBRANCH  29  34
ENDBRANCH  10  28
TORSDOF 8
ENDMDL
MODEL 4
REMARK VINA RESULT:      -8.7      2.478      8.189
REMARK  8 active torsions:
REMARK  status: ('A' for Active; 'I' for Inactive)
REMARK    1  A    between atoms: C_2  and  C_3 
REMARK    2  A    between atoms: C_3  and  O_4 
REMARK    3  A    between atoms: O_4  and  C_5 
REMARK    4  A    between atoms: C_7  and  C_8 
REMARK    5  A    between atoms: N_9  and  C_10 
REMARK    6  A    between atoms: C_10  and  C_11 
REMARK    7  A    between atoms: C_24  and  C_25 
REMARK    8  A    between atoms: C_26  and  O_27 
ROOT
HETATM    1  C   UNL     1       6.721  27.638  53.771  1.00  0.00     0.159 A 
HETATM    2  N   UNL     1       6.676  26.365  53.001  1.00  0.00    -0.329 N 
HETATM    3  C   UNL     1       5.417  26.063  52.476  1.00  0.00     0.273 A 
HETATM    4  O   UNL     1       5.091  25.122  51.777  1.00  0.00    -0.266 OA
HETATM    5  C   UNL     1       4.607  27.129  52.930  1.00  0.00     0.129 A 
HETATM    6  C   UNL     1       5.303  28.051  53.656  1.00  0.00     0.034 A 
HETATM    7  N   UNL     1       3.329  27.528  52.865  1.00  0.00    -0.272 N 
HETATM    8  H   UNL     1       2.539  27.081  52.408  1.00  0.00     0.189 HD
HETATM    9  N   UNL     1       3.139  28.692  53.538  1.00  0.00    -0.173 NA
HETATM   10  C   UNL     1       4.373  29.052  53.986  1.00  0.00     0.101 A 
ENDROOT
BRANCH   1  11
HETATM   11  C   UNL     1       7.020  27.443  55.240  1.00  0.00    -0.028 A 
HETATM   12  C   UNL     1       8.118  28.105  55.817  1.00  0.00     0.046 A 
HETATM   13  C   UNL     1       8.421  27.970  57.177  1.00  0.00     0.069 A 
HETATM   14  C   UNL     1       7.630  27.149  57.976  1.00  0.00     0.037 A 
HETATM   15  C   UNL     1       6.541  26.474  57.422  1.00  0.00     0.003 A 
HETATM   16  C   UNL     1       6.237  26.620  56.068  1.00  0.00     0.010 A 
BRANCH  13  17
HETATM   17  O   UNL     1       9.510  28.688  57.588  1.00  0.00    -0.348 OA
BRANCH  17  18
HETATM   18  C   UNL     1      10.133  29.530  56.620  1.00  0.00     0.202 C 
BRANCH  18  19
HETATM   19  C   UNL     1      10.707  30.707  57.351  1.00  0.00    -0.011 C 
HETATM   20  C   UNL     1      10.102  31.351  58.357  1.00  0.00     0.009 C 
ENDBRANCH  18  19
ENDBRANCH  17  18
ENDBRANCH  13  17
ENDBRANCH   1  11
BRANCH   2  21
HETATM   21  C   UNL     1       7.868  25.610  52.685  1.00  0.00     0.165 C 
BRANCH  21  22
HETATM   22  C   UNL     1       7.883  24.268  53.368  1.00  0.00    -0.037 A 
HETATM   23  C   UNL     1       7.989  24.168  54.759  1.00  0.00     0.028 A 
HETATM   24  C   UNL     1       8.004  22.907  55.334  1.00  0.00     0.116 A 
HETATM   25  N   UNL     1       7.929  21.758  54.630  1.00  0.00    -0.273 NA
HETATM   26  C   UNL     1       7.825  21.874  53.288  1.00  0.00     0.116 A 
HETATM   27  C   UNL     1       7.798  23.088  52.622  1.00  0.00     0.028 A 
ENDBRANCH  21  22
ENDBRANCH   2  21
BRANCH  10  28
HETATM   28  C   UNL     1       4.563  30.305  54.720  1.00  0.00     0.028 A 
HETATM   29  C   UNL     1       4.208  31.545  54.158  1.00  0.00     0.078 A 
HETATM   30  C   UNL     1       4.361  32.733  54.869  1.00  0.00     0.037 A 
HETATM   31  C   UNL     1       4.899  32.706  56.154  1.00  0.00     0.003 A 
HETATM   32  C   UNL     1       5.286  31.493  56.720  1.00  0.00     0.001 A 
HETATM   33  C   UNL     1       5.122  30.301  56.007  1.00  0.00     0.017 A 
BRANCH  29  34
HETATM   34  O   UNL     1       3.703  31.657  52.887  1.00  0.00    -0.360 OA
HETATM   35  H   UNL     1       3.528  32.616  52.750  1.00  0.00     0.217 HD
ENDBRANCH  29  34
ENDBRANCH  10  28
TORSDOF 8
ENDMDL
MODEL 5
REMARK VINA RESULT:      -8.7      6.684     10.640
REMARK  8 active torsions:
REMARK  status: ('A' for Active; 'I' for Inactive)
REMARK    1  A    between atoms: C_2  and  C_3 
REMARK    2  A    between atoms: C_3  and  O_4 
REMARK    3  A    between atoms: O_4  and  C_5 
REMARK    4  A    between atoms: C_7  and  C_8 
REMARK    5  A    between atoms: N_9  and  C_10 
REMARK    6  A    between atoms: C_10  and  C_11 
REMARK    7  A    between atoms: C_24  and  C_25 
REMARK    8  A    between atoms: C_26  and  O_27 
ROOT
HETATM    1  C   UNL     1       5.733  32.925  59.675  1.00  0.00     0.159 A 
HETATM    2  N   UNL     1       4.946  32.524  58.476  1.00  0.00    -0.329 N 
HETATM    3  C   UNL     1       3.760  31.850  58.774  1.00  0.00     0.273 A 
HETATM    4  O   UNL     1       2.904  31.443  58.010  1.00  0.00    -0.266 OA
HETATM    5  C   UNL     1       3.773  31.769  60.185  1.00  0.00     0.129 A 
HETATM    6  C   UNL     1       4.862  32.375  60.740  1.00  0.00     0.034 A 
HETATM    7  N   UNL     1       3.023  31.270  61.177  1.00  0.00    -0.272 N 
HETATM    8  H   UNL     1       2.147  30.757  61.126  1.00  0.00     0.189 HD
HETATM    9  N   UNL     1       3.583  31.512  62.391  1.00  0.00    -0.173 NA
HETATM   10  C   UNL     1       4.698  32.246  62.130  1.00  0.00     0.101 A 
ENDROOT
BRANCH   1  11
HETATM   11  C   UNL     1       7.070  32.230  59.777  1.00  0.00    -0.028 A 
HETATM   12  C   UNL     1       7.214  30.926  59.269  1.00  0.00     0.046 A 
HETATM   13  C   UNL     1       8.438  30.250  59.323  1.00  0.00     0.069 A 
HETATM   14  C   UNL     1       9.538  30.873  59.908  1.00  0.00     0.037 A 
HETATM   15  C   UNL     1       9.416  32.163  60.427  1.00  0.00     0.003 A 
HETATM   16  C   UNL     1       8.195  32.836  60.362  1.00  0.00     0.010 A 
BRANCH  13  17
HETATM   17  O   UNL     1       8.419  28.997  58.775  1.00  0.00    -0.348 OA
BRANCH  17  18
HETATM   18  C   UNL     1       8.353  28.915  57.353  1.00  0.00     0.202 C 
BRANCH  18  19
HETATM   19  C   UNL     1       9.760  28.825  56.842  1.00  0.00    -0.011 C 
HETATM   20  C   UNL     1      10.441  29.840  56.294  1.00  0.00     0.009 C 
ENDBRANCH  18  19
ENDBRANCH  17  18
ENDBRANCH  13  17
ENDBRANCH   1  11
BRANCH   2  21
HETATM   21  C   UNL     1       5.300  32.953  57.141  1.00  0.00     0.165 C 
BRANCH  21  22
HETATM   22  C   UNL     1       4.465  34.119  56.683  1.00  0.00    -0.037 A 
HETATM   23  C   UNL     1       3.595  33.998  55.595  1.00  0.00     0.028 A 
HETATM   24  C   UNL     1       2.854  35.105  55.212  1.00  0.00     0.116 A 
HETATM   25  N   UNL     1       2.924  36.306  55.824  1.00  0.00    -0.273 NA
HETATM   26  C   UNL     1       3.769  36.403  56.874  1.00  0.00     0.116 A 
HETATM   27  C   UNL     1       4.547  35.354  57.334  1.00  0.00     0.028 A 
ENDBRANCH  21  22
ENDBRANCH   2  21
BRANCH  10  28
HETATM   28  C   UNL     1       5.538  32.740  63.224  1.00  0.00     0.028 A 
HETATM   29  C   UNL     1       4.983  33.425  64.321  1.00  0.00     0.078 A 
HETATM   30  C   UNL     1       5.779  33.869  65.376  1.00  0.00     0.037 A 
HETATM   31  C   UNL     1       7.155  33.656  65.341  1.00  0.00     0.003 A 
HETATM   32  C   UNL     1       7.731  33.007  64.251  1.00  0.00     0.001 A 
HETATM   33  C   UNL     1       6.928  32.555  63.198  1.00  0.00     0.017 A 
BRANCH  29  34
HETATM   34  O   UNL     1       3.643  33.702  64.413  1.00  0.00    -0.360 OA
HETATM   35  H   UNL     1       3.290  33.637  63.496  1.00  0.00     0.217 HD
ENDBRANCH  29  34
ENDBRANCH  10  28
TORSDOF 8
ENDMDL
MODEL 6
REMARK VINA RESULT:      -8.7      5.794     10.342
REMARK  8 active torsions:
REMARK  status: ('A' for Active; 'I' for Inactive)
REMARK    1  A    between atoms: C_2  and  C_3 
REMARK    2  A    between atoms: C_3  and  O_4 
REMARK    3  A    between atoms: O_4  and  C_5 
REMARK    4  A    between atoms: C_7  and  C_8 
REMARK    5  A    between atoms: N_9  and  C_10 
REMARK    6  A    between atoms: C_10  and  C_11 
REMARK    7  A    between atoms: C_24  and  C_25 
REMARK    8  A    between atoms: C_26  and  O_27 
ROOT
HETATM    1  C   UNL     1       5.708  32.884  59.636  1.00  0.00     0.159 A 
HETATM    2  N   UNL     1       4.906  32.469  58.452  1.00  0.00    -0.329 N 
HETATM    3  C   UNL     1       3.728  31.793  58.773  1.00  0.00     0.273 A 
HETATM    4  O   UNL     1       2.862  31.376  58.024  1.00  0.00    -0.266 OA
HETATM    5  C   UNL     1       3.760  31.725  60.184  1.00  0.00     0.129 A 
HETATM    6  C   UNL     1       4.855  32.340  60.718  1.00  0.00     0.034 A 
HETATM    7  N   UNL     1       3.026  31.232  61.191  1.00  0.00    -0.272 N 
HETATM    8  H   UNL     1       2.151  30.716  61.156  1.00  0.00     0.189 HD
HETATM    9  N   UNL     1       3.601  31.487  62.395  1.00  0.00    -0.173 NA
HETATM   10  C   UNL     1       4.710  32.224  62.112  1.00  0.00     0.101 A 
ENDROOT
BRANCH   1  11
HETATM   11  C   UNL     1       7.050  32.194  59.726  1.00  0.00    -0.028 A 
HETATM   12  C   UNL     1       7.182  30.873  59.264  1.00  0.00     0.046 A 
HETATM   13  C   UNL     1       8.409  30.201  59.309  1.00  0.00     0.069 A 
HETATM   14  C   UNL     1       9.524  30.847  59.838  1.00  0.00     0.037 A 
HETATM   15  C   UNL     1       9.413  32.155  60.312  1.00  0.00     0.003 A 
HETATM   16  C   UNL     1       8.189  32.824  60.256  1.00  0.00     0.010 A 
BRANCH  13  17
HETATM   17  O   UNL     1       8.377  28.928  58.809  1.00  0.00    -0.348 OA
BRANCH  17  18
HETATM   18  C   UNL     1       8.459  28.788  57.392  1.00  0.00     0.202 C 
BRANCH  18  19
HETATM   19  C   UNL     1       9.881  29.053  56.996  1.00  0.00    -0.011 C 
HETATM   20  C   UNL     1      10.256  29.759  55.922  1.00  0.00     0.009 C 
ENDBRANCH  18  19
ENDBRANCH  17  18
ENDBRANCH  13  17
ENDBRANCH   1  11
BRANCH   2  21
HETATM   21  C   UNL     1       5.241  32.887  57.109  1.00  0.00     0.165 C 
BRANCH  21  22
HETATM   22  C   UNL     1       4.986  31.799  56.099  1.00  0.00    -0.037 A 
HETATM   23  C   UNL     1       4.081  31.987  55.050  1.00  0.00     0.028 A 
HETATM   24  C   UNL     1       3.881  30.950  54.153  1.00  0.00     0.116 A 
HETATM   25  N   UNL     1       4.505  29.755  54.233  1.00  0.00    -0.273 NA
HETATM   26  C   UNL     1       5.376  29.592  55.252  1.00  0.00     0.116 A 
HETATM   27  C   UNL     1       5.647  30.570  56.195  1.00  0.00     0.028 A 
ENDBRANCH  21  22
ENDBRANCH   2  21
BRANCH  10  28
HETATM   28  C   UNL     1       5.563  32.731  63.190  1.00  0.00     0.028 A 
HETATM   29  C   UNL     1       5.020  33.419  64.291  1.00  0.00     0.078 A 
HETATM   30  C   UNL     1       5.828  33.875  65.330  1.00  0.00     0.037 A 
HETATM   31  C   UNL     1       7.205  33.672  65.275  1.00  0.00     0.003 A 
HETATM   32  C   UNL     1       7.769  33.020  64.181  1.00  0.00     0.001 A 
HETATM   33  C   UNL     1       6.953  32.556  63.143  1.00  0.00     0.017 A 
BRANCH  29  34
HETATM   34  O   UNL     1       3.679  33.686  64.401  1.00  0.00    -0.360 OA
HETATM   35  H   UNL     1       3.467  34.312  63.671  1.00  0.00     0.217 HD
ENDBRANCH  29  34
ENDBRANCH  10  28
TORSDOF 8
ENDMDL
MODEL 7
REMARK VINA RESULT:      -8.6      2.397      6.789
REMARK  8 active torsions:
REMARK  status: ('A' for Active; 'I' for Inactive)
REMARK    1  A    between atoms: C_2  and  C_3 
REMARK    2  A    between atoms: C_3  and  O_4 
REMARK    3  A    between atoms: O_4  and  C_5 
REMARK    4  A    between atoms: C_7  and  C_8 
REMARK    5  A    between atoms: N_9  and  C_10 
REMARK    6  A    between atoms: C_10  and  C_11 
REMARK    7  A    between atoms: C_24  and  C_25 
REMARK    8  A    between atoms: C_26  and  O_27 
ROOT
HETATM    1  C   UNL     1       4.029  28.028  53.852  1.00  0.00     0.159 A 
HETATM    2  N   UNL     1       4.056  28.906  55.055  1.00  0.00    -0.329 N 
HETATM    3  C   UNL     1       3.918  30.266  54.767  1.00  0.00     0.273 A 
HETATM    4  O   UNL     1       3.863  31.204  55.541  1.00  0.00    -0.266 OA
HETATM    5  C   UNL     1       3.832  30.298  53.357  1.00  0.00     0.129 A 
HETATM    6  C   UNL     1       3.877  29.055  52.796  1.00  0.00     0.034 A 
HETATM    7  N   UNL     1       3.714  31.197  52.370  1.00  0.00    -0.272 N 
HETATM    8  H   UNL     1       3.654  32.209  52.427  1.00  0.00     0.189 HD
HETATM    9  N   UNL     1       3.688  30.595  51.152  1.00  0.00    -0.173 NA
HETATM   10  C   UNL     1       3.734  29.260  51.412  1.00  0.00     0.101 A 
ENDROOT
BRANCH   1  11
HETATM   11  C   UNL     1       5.334  27.308  53.603  1.00  0.00    -0.028 A 
HETATM   12  C   UNL     1       5.337  25.909  53.458  1.00  0.00     0.046 A 
HETATM   13  C   UNL     1       6.517  25.202  53.206  1.00  0.00     0.069 A 
HETATM   14  C   UNL     1       7.723  25.894  53.112  1.00  0.00     0.037 A 
HETATM   15  C   UNL     1       7.745  27.282  53.262  1.00  0.00     0.003 A 
HETATM   16  C   UNL     1       6.563  27.983  53.504  1.00  0.00     0.010 A 
BRANCH  13  17
HETATM   17  O   UNL     1       6.353  23.850  53.078  1.00  0.00    -0.348 OA
BRANCH  17  18
HETATM   18  C   UNL     1       7.533  23.050  53.111  1.00  0.00     0.202 C 
BRANCH  18  19
HETATM   19  C   UNL     1       7.582  22.378  54.451  1.00  0.00    -0.011 C 
HETATM   20  C   UNL     1       7.888  22.990  55.602  1.00  0.00     0.009 C 
ENDBRANCH  18  19
ENDBRANCH  17  18
ENDBRANCH  13  17
ENDBRANCH   1  11
BRANCH   2  21
HETATM   21  C   UNL     1       4.052  28.375  56.399  1.00  0.00     0.165 C 
BRANCH  21  22
HETATM   22  C   UNL     1       5.446  28.163  56.927  1.00  0.00    -0.037 A 
HETATM   23  C   UNL     1       6.005  26.884  56.990  1.00  0.00     0.028 A 
HETATM   24  C   UNL     1       7.291  26.746  57.490  1.00  0.00     0.116 A 
HETATM   25  N   UNL     1       8.041  27.778  57.930  1.00  0.00    -0.273 NA
HETATM   26  C   UNL     1       7.485  29.006  57.860  1.00  0.00     0.116 A 
HETATM   27  C   UNL     1       6.211  29.246  57.373  1.00  0.00     0.028 A 
ENDBRANCH  21  22
ENDBRANCH   2  21
BRANCH  10  28
HETATM   28  C   UNL     1       3.671  28.286  50.320  1.00  0.00     0.028 A 
HETATM   29  C   UNL     1       2.565  28.230  49.452  1.00  0.00     0.078 A 
HETATM   30  C   UNL     1       2.518  27.323  48.396  1.00  0.00     0.037 A 
HETATM   31  C   UNL     1       3.572  26.433  48.201  1.00  0.00     0.003 A 
HETATM   32  C   UNL     1       4.665  26.449  49.066  1.00  0.00     0.001 A 
HETATM   33  C   UNL     1       4.712  27.367  50.121  1.00  0.00     0.017 A 
BRANCH  29  34
HETATM   34  O   UNL     1       1.474  29.050  49.598  1.00  0.00    -0.360 OA
HETATM   35  H   UNL     1       0.980  28.995  48.749  1.00  0.00     0.217 HD
ENDBRANCH  29  34
ENDBRANCH  10  28
TORSDOF 8
ENDMDL
MODEL 8
REMARK VINA RESULT:      -8.6      2.881      7.000
REMARK  8 active torsions:
REMARK  status: ('A' for Active; 'I' for Inactive)
REMARK    1  A    between atoms: C_2  and  C_3 
REMARK    2  A    between atoms: C_3  and  O_4 
REMARK    3  A    between atoms: O_4  and  C_5 
REMARK    4  A    between atoms: C_7  and  C_8 
REMARK    5  A    between atoms: N_9  and  C_10 
REMARK    6  A    between atoms: C_10  and  C_11 
REMARK    7  A    between atoms: C_24  and  C_25 
REMARK    8  A    between atoms: C_26  and  O_27 
ROOT
HETATM    1  C   UNL     1       5.811  28.381  52.139  1.00  0.00     0.159 A 
HETATM    2  N   UNL     1       5.020  28.774  50.940  1.00  0.00    -0.329 N 
HETATM    3  C   UNL     1       3.915  29.579  51.227  1.00  0.00     0.273 A 
HETATM    4  O   UNL     1       3.120  30.081  50.454  1.00  0.00    -0.266 OA
HETATM    5  C   UNL     1       3.950  29.697  52.634  1.00  0.00     0.129 A 
HETATM    6  C   UNL     1       5.012  29.047  53.194  1.00  0.00     0.034 A 
HETATM    7  N   UNL     1       3.244  30.268  53.620  1.00  0.00    -0.272 N 
HETATM    8  H   UNL     1       2.396  30.825  53.564  1.00  0.00     0.189 HD
HETATM    9  N   UNL     1       3.794  30.013  54.836  1.00  0.00    -0.173 NA
HETATM   10  C   UNL     1       4.924  29.301  54.574  1.00  0.00     0.101 A 
ENDROOT
BRANCH   1  11
HETATM   11  C   UNL     1       5.785  26.897  52.418  1.00  0.00    -0.028 A 
HETATM   12  C   UNL     1       6.995  26.209  52.622  1.00  0.00     0.046 A 
HETATM   13  C   UNL     1       7.019  24.839  52.903  1.00  0.00     0.069 A 
HETATM   14  C   UNL     1       5.820  24.132  52.967  1.00  0.00     0.037 A 
HETATM   15  C   UNL     1       4.608  24.792  52.758  1.00  0.00     0.003 A 
HETATM   16  C   UNL     1       4.589  26.161  52.488  1.00  0.00     0.010 A 
BRANCH  13  17
HETATM   17  O   UNL     1       8.271  24.320  53.088  1.00  0.00    -0.348 OA
BRANCH  17  18
HETATM   18  C   UNL     1       8.417  23.334  54.109  1.00  0.00     0.202 C 
BRANCH  18  19
HETATM   19  C   UNL     1       8.799  22.047  53.439  1.00  0.00    -0.011 C 
HETATM   20  C   UNL     1       7.955  21.041  53.180  1.00  0.00     0.009 C 
ENDBRANCH  18  19
ENDBRANCH  17  18
ENDBRANCH  13  17
ENDBRANCH   1  11
BRANCH   2  21
HETATM   21  C   UNL     1       5.464  28.486  49.594  1.00  0.00     0.165 C 
BRANCH  21  22
HETATM   22  C   UNL     1       4.469  27.644  48.840  1.00  0.00    -0.037 A 
HETATM   23  C   UNL     1       3.682  28.196  47.825  1.00  0.00     0.028 A 
HETATM   24  C   UNL     1       2.778  27.377  47.167  1.00  0.00     0.116 A 
HETATM   25  N   UNL     1       2.603  26.069  47.451  1.00  0.00    -0.273 NA
HETATM   26  C   UNL     1       3.373  25.553  48.434  1.00  0.00     0.116 A 
HETATM   27  C   UNL     1       4.306  26.289  49.145  1.00  0.00     0.028 A 
ENDBRANCH  21  22
ENDBRANCH   2  21
BRANCH  10  28
HETATM   28  C   UNL     1       5.815  28.890  55.662  1.00  0.00     0.028 A 
HETATM   29  C   UNL     1       5.456  27.862  56.554  1.00  0.00     0.078 A 
HETATM   30  C   UNL     1       6.316  27.451  57.570  1.00  0.00     0.037 A 
HETATM   31  C   UNL     1       7.548  28.081  57.730  1.00  0.00     0.003 A 
HETATM   32  C   UNL     1       7.913  29.122  56.878  1.00  0.00     0.001 A 
HETATM   33  C   UNL     1       7.050  29.526  55.853  1.00  0.00     0.017 A 
BRANCH  29  34
HETATM   34  O   UNL     1       4.248  27.216  56.482  1.00  0.00    -0.360 OA
HETATM   35  H   UNL     1       4.408  26.400  55.956  1.00  0.00     0.217 HD
ENDBRANCH  29  34
ENDBRANCH  10  28
TORSDOF 8
ENDMDL
MODEL 9
REMARK VINA RESULT:      -8.6      3.574      6.585
REMARK  8 active torsions:
REMARK  status: ('A' for Active; 'I' for Inactive)
REMARK    1  A    between atoms: C_2  and  C_3 
REMARK    2  A    between atoms: C_3  and  O_4 
REMARK    3  A    between atoms: O_4  and  C_5 
REMARK    4  A    between atoms: C_7  and  C_8 
REMARK    5  A    between atoms: N_9  and  C_10 
REMARK    6  A    between atoms: C_10  and  C_11 
REMARK    7  A    between atoms: C_24  and  C_25 
REMARK    8  A    between atoms: C_26  and  O_27 
ROOT
HETATM    1  C   UNL     1       5.547  30.555  56.291  1.00  0.00     0.159 A 
HETATM    2  N   UNL     1       4.151  30.982  56.586  1.00  0.00    -0.329 N 
HETATM    3  C   UNL     1       3.967  31.466  57.883  1.00  0.00     0.273 A 
HETATM    4  O   UNL     1       2.956  31.919  58.389  1.00  0.00    -0.266 OA
HETATM    5  C   UNL     1       5.245  31.329  58.470  1.00  0.00     0.129 A 
HETATM    6  C   UNL     1       6.175  30.831  57.604  1.00  0.00     0.034 A 
HETATM    7  N   UNL     1       5.846  31.546  59.648  1.00  0.00    -0.272 N 
HETATM    8  H   UNL     1       5.454  31.910  60.512  1.00  0.00     0.189 HD
HETATM    9  N   UNL     1       7.158  31.197  59.606  1.00  0.00    -0.173 NA
HETATM   10  C   UNL     1       7.383  30.803  58.323  1.00  0.00     0.101 A 
ENDROOT
BRANCH   1  11
HETATM   11  C   UNL     1       5.680  29.074  56.025  1.00  0.00    -0.028 A 
HETATM   12  C   UNL     1       6.218  28.636  54.802  1.00  0.00     0.046 A 
HETATM   13  C   UNL     1       6.379  27.275  54.519  1.00  0.00     0.069 A 
HETATM   14  C   UNL     1       5.984  26.328  55.462  1.00  0.00     0.037 A 
HETATM   15  C   UNL     1       5.439  26.740  56.679  1.00  0.00     0.003 A 
HETATM   16  C   UNL     1       5.289  28.099  56.959  1.00  0.00     0.010 A 
BRANCH  13  17
HETATM   17  O   UNL     1       6.928  27.011  53.294  1.00  0.00    -0.348 OA
BRANCH  17  18
HETATM   18  C   UNL     1       6.424  25.876  52.592  1.00  0.00     0.202 C 
BRANCH  18  19
HETATM   19  C   UNL     1       7.597  25.018  52.225  1.00  0.00    -0.011 C 
HETATM   20  C   UNL     1       7.891  23.842  52.794  1.00  0.00     0.009 C 
ENDBRANCH  18  19
ENDBRANCH  17  18
ENDBRANCH  13  17
ENDBRANCH   1  11
BRANCH   2  21
HETATM   21  C   UNL     1       3.131  31.046  55.563  1.00  0.00     0.165 C 
BRANCH  21  22
HETATM   22  C   UNL     1       3.646  31.667  54.292  1.00  0.00    -0.037 A 
HETATM   23  C   UNL     1       4.063  33.001  54.260  1.00  0.00     0.028 A 
HETATM   24  C   UNL     1       4.523  33.524  53.060  1.00  0.00     0.116 A 
HETATM   25  N   UNL     1       4.588  32.821  51.910  1.00  0.00    -0.273 NA
HETATM   26  C   UNL     1       4.182  31.534  51.961  1.00  0.00     0.116 A 
HETATM   27  C   UNL     1       3.712  30.921  53.110  1.00  0.00     0.028 A 
ENDBRANCH  21  22
ENDBRANCH   2  21
BRANCH  10  28
HETATM   28  C   UNL     1       8.723  30.400  57.891  1.00  0.00     0.028 A 
HETATM   29  C   UNL     1       9.857  31.172  58.203  1.00  0.00     0.078 A 
HETATM   30  C   UNL     1      11.134  30.773  57.817  1.00  0.00     0.037 A 
HETATM   31  C   UNL     1      11.301  29.599  57.086  1.00  0.00     0.003 A 
HETATM   32  C   UNL     1      10.190  28.833  56.739  1.00  0.00     0.001 A 
HETATM   33  C   UNL     1       8.909  29.232  57.136  1.00  0.00     0.017 A 
BRANCH  29  34
HETATM   34  O   UNL     1       9.771  32.357  58.891  1.00  0.00    -0.360 OA
HETATM   35  H   UNL     1      10.594  32.417  59.428  1.00  0.00     0.217 HD
ENDBRANCH  29  34
ENDBRANCH  10  28
TORSDOF 8
ENDMDL
MODEL 10
REMARK VINA RESULT:      -8.5      9.892     15.454
REMARK  8 active torsions:
REMARK  status: ('A' for Active; 'I' for Inactive)
REMARK    1  A    between atoms: C_2  and  C_3 
REMARK    2  A    between atoms: C_3  and  O_4 
REMARK    3  A    between atoms: O_4  and  C_5 
REMARK    4  A    between atoms: C_7  and  C_8 
REMARK    5  A    between atoms: N_9  and  C_10 
REMARK    6  A    between atoms: C_10  and  C_11 
REMARK    7  A    between atoms: C_24  and  C_25 
REMARK    8  A    between atoms: C_26  and  O_27 
ROOT
HETATM    1  C   UNL     1       5.683  34.914  62.379  1.00  0.00     0.159 A 
HETATM    2  N   UNL     1       5.009  33.827  61.615  1.00  0.00    -0.329 N 
HETATM    3  C   UNL     1       4.185  34.283  60.585  1.00  0.00     0.273 A 
HETATM    4  O   UNL     1       3.547  33.632  59.777  1.00  0.00    -0.266 OA
HETATM    5  C   UNL     1       4.282  35.690  60.683  1.00  0.00     0.129 A 
HETATM    6  C   UNL     1       5.129  36.093  61.675  1.00  0.00     0.034 A 
HETATM    7  N   UNL     1       3.788  36.783  60.086  1.00  0.00    -0.272 N 
HETATM    8  H   UNL     1       3.132  36.851  59.313  1.00  0.00     0.189 HD
HETATM    9  N   UNL     1       4.270  37.919  60.654  1.00  0.00    -0.173 NA
HETATM   10  C   UNL     1       5.146  37.498  61.606  1.00  0.00     0.101 A 
ENDROOT
BRANCH   1  11
HETATM   11  C   UNL     1       5.244  34.998  63.822  1.00  0.00    -0.028 A 
HETATM   12  C   UNL     1       6.113  34.559  64.837  1.00  0.00     0.046 A 
HETATM   13  C   UNL     1       5.758  34.635  66.188  1.00  0.00     0.069 A 
HETATM   14  C   UNL     1       4.509  35.142  66.540  1.00  0.00     0.037 A 
HETATM   15  C   UNL     1       3.626  35.574  65.548  1.00  0.00     0.003 A 
HETATM   16  C   UNL     1       3.989  35.504  64.203  1.00  0.00     0.010 A 
BRANCH  13  17
HETATM   17  O   UNL     1       6.716  34.182  67.053  1.00  0.00    -0.348 OA
BRANCH  17  18
HETATM   18  C   UNL     1       6.404  34.230  68.444  1.00  0.00     0.202 C 
BRANCH  18  19
HETATM   19  C   UNL     1       7.393  35.151  69.094  1.00  0.00    -0.011 C 
HETATM   20  C   UNL     1       8.450  34.754  69.813  1.00  0.00     0.009 C 
ENDBRANCH  18  19
ENDBRANCH  17  18
ENDBRANCH  13  17
ENDBRANCH   1  11
BRANCH   2  21
HETATM   21  C   UNL     1       5.324  32.431  61.820  1.00  0.00     0.165 C 
BRANCH  21  22
HETATM   22  C   UNL     1       6.765  32.125  61.506  1.00  0.00    -0.037 A 
HETATM   23  C   UNL     1       7.283  32.334  60.225  1.00  0.00     0.028 A 
HETATM   24  C   UNL     1       8.615  32.030  59.990  1.00  0.00     0.116 A 
HETATM   25  N   UNL     1       9.450  31.535  60.928  1.00  0.00    -0.273 NA
HETATM   26  C   UNL     1       8.932  31.341  62.160  1.00  0.00     0.116 A 
HETATM   27  C   UNL     1       7.617  31.618  62.493  1.00  0.00     0.028 A 
ENDBRANCH  21  22
ENDBRANCH   2  21
BRANCH  10  28
HETATM   28  C   UNL     1       5.908  38.466  62.399  1.00  0.00     0.028 A 
HETATM   29  C   UNL     1       6.904  39.269  61.814  1.00  0.00     0.078 A 
HETATM   30  C   UNL     1       7.607  40.211  62.562  1.00  0.00     0.037 A 
HETATM   31  C   UNL     1       7.342  40.352  63.923  1.00  0.00     0.003 A 
HETATM   32  C   UNL     1       6.381  39.547  64.530  1.00  0.00     0.001 A 
HETATM   33  C   UNL     1       5.671  38.607  63.774  1.00  0.00     0.017 A 
BRANCH  29  34
HETATM   34  O   UNL     1       7.245  39.168  60.489  1.00  0.00    -0.360 OA
HETATM   35  H   UNL     1       7.706  40.008  60.263  1.00  0.00     0.217 HD
ENDBRANCH  29  34
ENDBRANCH  10  28
TORSDOF 8
ENDMDL
