MODEL 1
REMARK VINA RESULT:     -10.4      0.000      0.000
REMARK  8 active torsions:
REMARK  status: ('A' for Active; 'I' for Inactive)
REMARK    1  A    between atoms: C_4  and  C_5 
REMARK    2  A    between atoms: C_5  and  N_6 
REMARK    3  A    between atoms: C_5  and  C_31 
REMARK       I    between atoms: N_6  and  C_7 
REMARK    4  A    between atoms: N_6  and  C_21 
REMARK    5  A    between atoms: C_7  and  C_8 
REMARK    6  A    between atoms: C_11  and  C_12 
REMARK    7  A    between atoms: C_21  and  C_22 
REMARK       I    between atoms: C_31  and  N_32 
REMARK    8  A    between atoms: N_32  and  C_33 
ROOT
HETATM    1  N   UNL     1       6.055  27.801  56.210  1.00  0.00    -0.323 N 
HETATM    2  C   UNL     1       5.808  26.439  56.394  1.00  0.00     0.271 C 
HETATM    3  O   UNL     1       5.492  25.999  57.500  1.00  0.00    -0.266 OA
ENDROOT
BRANCH   1   4
HETATM    4  C   UNL     1       5.983  28.654  57.414  1.00  0.00     0.237 C 
BRANCH   4   5
HETATM    5  C   UNL     1       5.070  29.824  57.162  1.00  0.00     0.085 A 
HETATM    6  O   UNL     1       5.607  31.046  56.862  1.00  0.00    -0.317 OA
HETATM    7  C   UNL     1       4.575  31.919  56.701  1.00  0.00     0.049 A 
HETATM    8  C   UNL     1       4.937  33.321  56.414  1.00  0.00     0.076 C 
HETATM    9  C   UNL     1       3.373  31.263  56.852  1.00  0.00     0.035 A 
HETATM   10  C   UNL     1       3.690  29.916  57.147  1.00  0.00     0.038 A 
ENDBRANCH   4   5
BRANCH   4  11
HETATM   11  C   UNL     1       7.386  28.939  58.018  1.00  0.00     0.247 C 
HETATM   12  N   UNL     1       7.521  30.009  58.867  1.00  0.00    -0.354 N 
HETATM   13  H   UNL     1       6.677  30.547  59.046  1.00  0.00     0.162 HD
HETATM   14  O   UNL     1       8.347  28.241  57.689  1.00  0.00    -0.271 OA
BRANCH  12  15
HETATM   15  C   UNL     1       8.730  30.478  59.539  1.00  0.00     0.084 C 
HETATM   16  C   UNL     1       8.996  31.982  59.371  1.00  0.00     0.025 C 
HETATM   17  C   UNL     1       8.467  32.868  60.495  1.00  0.00     0.002 C 
HETATM   18  C   UNL     1       8.835  32.329  61.871  1.00  0.00     0.000 C 
HETATM   19  C   UNL     1       8.352  30.897  62.060  1.00  0.00     0.002 C 
HETATM   20  C   UNL     1       8.886  29.965  60.976  1.00  0.00     0.025 C 
ENDBRANCH  12  15
ENDBRANCH   4  11
ENDBRANCH   1   4
BRANCH   1  21
HETATM   21  C   UNL     1       6.543  28.417  54.973  1.00  0.00     0.166 C 
BRANCH  21  22
HETATM   22  C   UNL     1       5.571  28.577  53.822  1.00  0.00    -0.037 A 
HETATM   23  C   UNL     1       6.107  28.589  52.518  1.00  0.00     0.048 A 
HETATM   24  C   UNL     1       5.254  28.768  51.449  1.00  0.00     0.105 A 
HETATM   25  C   UNL     1       3.905  28.945  51.624  1.00  0.00     0.105 A 
HETATM   26  O   UNL     1       5.618  28.797  50.139  1.00  0.00    -0.323 OA
HETATM   27  O   UNL     1       3.244  29.104  50.447  1.00  0.00    -0.323 OA
HETATM   28  C   UNL     1       3.336  28.947  52.876  1.00  0.00     0.040 A 
HETATM   29  C   UNL     1       4.337  29.016  49.511  1.00  0.00     0.352 A 
HETATM   30  C   UNL     1       4.179  28.759  53.980  1.00  0.00     0.012 A 
ENDBRANCH  21  22
ENDBRANCH   1  21
BRANCH   2  31
HETATM   31  C   UNL     1       6.001  25.501  55.307  1.00  0.00     0.101 A 
HETATM   32  N   UNL     1       6.672  24.317  55.537  1.00  0.00    -0.351 N 
HETATM   33  H   UNL     1       7.027  24.051  56.446  1.00  0.00     0.166 HD
HETATM   34  C   UNL     1       6.810  23.580  54.384  1.00  0.00     0.043 A 
HETATM   35  C   UNL     1       6.096  24.259  53.413  1.00  0.00     0.033 A 
HETATM   36  C   UNL     1       5.575  25.446  53.993  1.00  0.00     0.037 A 
BRANCH  34  37
HETATM   37  C   UNL     1       7.548  22.316  54.335  1.00  0.00    -0.009 A 
HETATM   38  C   UNL     1       7.918  21.754  53.106  1.00  0.00     0.013 A 
HETATM   39  C   UNL     1       8.618  20.544  53.055  1.00  0.00     0.001 A 
HETATM   40  C   UNL     1       8.959  19.884  54.233  1.00  0.00     0.000 A 
HETATM   41  C   UNL     1       8.605  20.433  55.463  1.00  0.00     0.001 A 
HETATM   42  C   UNL     1       7.906  21.642  55.514  1.00  0.00     0.013 A 
ENDBRANCH  34  37
ENDBRANCH   2  31
TORSDOF 8
ENDMDL
MODEL 2
REMARK VINA RESULT:     -10.0      2.691      4.400
REMARK  8 active torsions:
REMARK  status: ('A' for Active; 'I' for Inactive)
REMARK    1  A    between atoms: C_4  and  C_5 
REMARK    2  A    between atoms: C_5  and  N_6 
REMARK    3  A    between atoms: C_5  and  C_31 
REMARK       I    between atoms: N_6  and  C_7 
REMARK    4  A    between atoms: N_6  and  C_21 
REMARK    5  A    between atoms: C_7  and  C_8 
REMARK    6  A    between atoms: C_11  and  C_12 
REMARK    7  A    between atoms: C_21  and  C_22 
REMARK       I    between atoms: C_31  and  N_32 
REMARK    8  A    between atoms: N_32  and  C_33 
ROOT
HETATM    1  N   UNL     1       4.978  27.493  52.841  1.00  0.00    -0.323 N 
HETATM    2  C   UNL     1       5.199  26.313  53.554  1.00  0.00     0.271 C 
HETATM    3  O   UNL     1       4.567  26.068  54.582  1.00  0.00    -0.266 OA
ENDROOT
BRANCH   1   4
HETATM    4  C   UNL     1       4.006  28.443  53.422  1.00  0.00     0.237 C 
BRANCH   4   5
HETATM    5  C   UNL     1       3.538  29.410  52.368  1.00  0.00     0.085 A 
HETATM    6  O   UNL     1       2.529  29.045  51.519  1.00  0.00    -0.317 OA
HETATM    7  C   UNL     1       2.317  30.084  50.665  1.00  0.00     0.049 A 
HETATM    8  C   UNL     1       1.289  29.881  49.625  1.00  0.00     0.076 C 
HETATM    9  C   UNL     1       3.150  31.135  50.981  1.00  0.00     0.035 A 
HETATM   10  C   UNL     1       3.934  30.703  52.077  1.00  0.00     0.038 A 
ENDBRANCH   4   5
BRANCH   4  11
HETATM   11  C   UNL     1       4.489  29.020  54.781  1.00  0.00     0.247 C 
HETATM   12  N   UNL     1       5.673  28.556  55.298  1.00  0.00    -0.354 N 
HETATM   13  H   UNL     1       6.160  27.857  54.744  1.00  0.00     0.162 HD
HETATM   14  O   UNL     1       3.786  29.833  55.385  1.00  0.00    -0.271 OA
BRANCH  12  15
HETATM   15  C   UNL     1       6.317  28.934  56.554  1.00  0.00     0.084 C 
HETATM   16  C   UNL     1       6.757  27.741  57.416  1.00  0.00     0.025 C 
HETATM   17  C   UNL     1       8.207  27.302  57.229  1.00  0.00     0.002 C 
HETATM   18  C   UNL     1       9.172  28.479  57.269  1.00  0.00     0.000 C 
HETATM   19  C   UNL     1       8.808  29.538  56.237  1.00  0.00     0.002 C 
HETATM   20  C   UNL     1       7.375  30.035  56.408  1.00  0.00     0.025 C 
ENDBRANCH  12  15
ENDBRANCH   4  11
ENDBRANCH   1   4
BRANCH   1  21
HETATM   21  C   UNL     1       5.745  27.939  51.674  1.00  0.00     0.166 C 
BRANCH  21  22
HETATM   22  C   UNL     1       5.181  27.655  50.297  1.00  0.00    -0.037 A 
HETATM   23  C   UNL     1       4.441  26.466  50.133  1.00  0.00     0.048 A 
HETATM   24  C   UNL     1       3.943  26.160  48.884  1.00  0.00     0.105 A 
HETATM   25  C   UNL     1       4.157  26.975  47.801  1.00  0.00     0.105 A 
HETATM   26  O   UNL     1       3.209  25.058  48.570  1.00  0.00    -0.323 OA
HETATM   27  O   UNL     1       3.584  26.493  46.666  1.00  0.00    -0.323 OA
HETATM   28  C   UNL     1       4.878  28.141  47.911  1.00  0.00     0.040 A 
HETATM   29  C   UNL     1       2.991  25.276  47.159  1.00  0.00     0.352 A 
HETATM   30  C   UNL     1       5.389  28.480  49.170  1.00  0.00     0.012 A 
ENDBRANCH  21  22
ENDBRANCH   1  21
BRANCH   2  31
HETATM   31  C   UNL     1       6.239  25.390  53.147  1.00  0.00     0.101 A 
HETATM   32  N   UNL     1       6.404  24.201  53.829  1.00  0.00    -0.351 N 
HETATM   33  H   UNL     1       5.813  23.921  54.602  1.00  0.00     0.166 HD
HETATM   34  C   UNL     1       7.470  23.481  53.342  1.00  0.00     0.043 A 
HETATM   35  C   UNL     1       7.922  24.176  52.235  1.00  0.00     0.033 A 
HETATM   36  C   UNL     1       7.143  25.355  52.101  1.00  0.00     0.037 A 
BRANCH  34  37
HETATM   37  C   UNL     1       7.908  22.216  53.936  1.00  0.00    -0.009 A 
HETATM   38  C   UNL     1       7.871  22.029  55.324  1.00  0.00     0.013 A 
HETATM   39  C   UNL     1       8.294  20.825  55.896  1.00  0.00     0.001 A 
HETATM   40  C   UNL     1       8.756  19.791  55.085  1.00  0.00     0.000 A 
HETATM   41  C   UNL     1       8.793  19.958  53.703  1.00  0.00     0.001 A 
HETATM   42  C   UNL     1       8.370  21.161  53.132  1.00  0.00     0.013 A 
ENDBRANCH  34  37
ENDBRANCH   2  31
TORSDOF 8
ENDMDL
MODEL 3
REMARK VINA RESULT:      -9.9      3.044      7.848
REMARK  8 active torsions:
REMARK  status: ('A' for Active; 'I' for Inactive)
REMARK    1  A    between atoms: C_4  and  C_5 
REMARK    2  A    between atoms: C_5  and  N_6 
REMARK    3  A    between atoms: C_5  and  C_31 
REMARK       I    between atoms: N_6  and  C_7 
REMARK    4  A    between atoms: N_6  and  C_21 
REMARK    5  A    between atoms: C_7  and  C_8 
REMARK    6  A    between atoms: C_11  and  C_12 
REMARK    7  A    between atoms: C_21  and  C_22 
REMARK       I    between atoms: C_31  and  N_32 
REMARK    8  A    between atoms: N_32  and  C_33 
ROOT
HETATM    1  N   UNL     1       5.542  26.833  52.078  1.00  0.00    -0.323 N 
HETATM    2  C   UNL     1       4.897  26.014  51.150  1.00  0.00     0.271 C 
HETATM    3  O   UNL     1       4.602  24.852  51.432  1.00  0.00    -0.266 OA
ENDROOT
BRANCH   1   4
HETATM    4  C   UNL     1       5.902  26.212  53.369  1.00  0.00     0.237 C 
BRANCH   4   5
HETATM    5  C   UNL     1       5.840  27.238  54.470  1.00  0.00     0.085 A 
HETATM    6  O   UNL     1       6.996  27.810  54.924  1.00  0.00    -0.317 OA
HETATM    7  C   UNL     1       6.660  28.678  55.919  1.00  0.00     0.049 A 
HETATM    8  C   UNL     1       7.776  29.377  56.586  1.00  0.00     0.076 C 
HETATM    9  C   UNL     1       5.293  28.704  56.082  1.00  0.00     0.035 A 
HETATM   10  C   UNL     1       4.764  27.780  55.150  1.00  0.00     0.038 A 
ENDBRANCH   4   5
BRANCH   4  11
HETATM   11  C   UNL     1       7.178  25.332  53.263  1.00  0.00     0.247 C 
HETATM   12  N   UNL     1       7.267  24.220  54.064  1.00  0.00    -0.354 N 
HETATM   13  H   UNL     1       6.476  24.047  54.677  1.00  0.00     0.162 HD
HETATM   14  O   UNL     1       8.095  25.671  52.511  1.00  0.00    -0.271 OA
BRANCH  12  15
HETATM   15  C   UNL     1       8.363  23.258  54.150  1.00  0.00     0.084 C 
HETATM   16  C   UNL     1       8.567  22.667  55.553  1.00  0.00     0.025 C 
HETATM   17  C   UNL     1       7.865  21.337  55.809  1.00  0.00     0.002 C 
HETATM   18  C   UNL     1       8.098  20.340  54.682  1.00  0.00     0.000 C 
HETATM   19  C   UNL     1       7.672  20.907  53.335  1.00  0.00     0.002 C 
HETATM   20  C   UNL     1       8.377  22.222  53.019  1.00  0.00     0.025 C 
ENDBRANCH  12  15
ENDBRANCH   4  11
ENDBRANCH   1   4
BRANCH   1  21
HETATM   21  C   UNL     1       6.038  28.188  51.817  1.00  0.00     0.166 C 
BRANCH  21  22
HETATM   22  C   UNL     1       5.042  29.242  51.380  1.00  0.00    -0.037 A 
HETATM   23  C   UNL     1       5.367  30.007  50.240  1.00  0.00     0.048 A 
HETATM   24  C   UNL     1       4.498  30.999  49.836  1.00  0.00     0.105 A 
HETATM   25  C   UNL     1       3.338  31.266  50.517  1.00  0.00     0.105 A 
HETATM   26  O   UNL     1       4.669  31.812  48.759  1.00  0.00    -0.323 OA
HETATM   27  O   UNL     1       2.626  32.279  49.957  1.00  0.00    -0.323 OA
HETATM   28  C   UNL     1       2.982  30.551  51.638  1.00  0.00     0.040 A 
HETATM   29  C   UNL     1       3.479  32.625  48.847  1.00  0.00     0.352 A 
HETATM   30  C   UNL     1       3.842  29.532  52.067  1.00  0.00     0.012 A 
ENDBRANCH  21  22
ENDBRANCH   1  21
BRANCH   2  31
HETATM   31  C   UNL     1       4.638  26.485  49.804  1.00  0.00     0.101 A 
HETATM   32  N   UNL     1       3.411  27.038  49.497  1.00  0.00    -0.351 N 
HETATM   33  H   UNL     1       2.672  27.155  50.179  1.00  0.00     0.166 HD
HETATM   34  C   UNL     1       3.325  27.375  48.167  1.00  0.00     0.043 A 
HETATM   35  C   UNL     1       4.581  27.143  47.636  1.00  0.00     0.033 A 
HETATM   36  C   UNL     1       5.405  26.606  48.660  1.00  0.00     0.037 A 
BRANCH  34  37
HETATM   37  C   UNL     1       2.104  27.913  47.563  1.00  0.00    -0.009 A 
HETATM   38  C   UNL     1       1.267  27.092  46.797  1.00  0.00     0.013 A 
HETATM   39  C   UNL     1       0.103  27.603  46.214  1.00  0.00     0.001 A 
HETATM   40  C   UNL     1      -0.240  28.941  46.395  1.00  0.00     0.000 A 
HETATM   41  C   UNL     1       0.578  29.769  47.160  1.00  0.00     0.001 A 
HETATM   42  C   UNL     1       1.741  29.258  47.742  1.00  0.00     0.013 A 
ENDBRANCH  34  37
ENDBRANCH   2  31
TORSDOF 8
ENDMDL
MODEL 4
REMARK VINA RESULT:      -9.8      1.716      7.963
REMARK  8 active torsions:
REMARK  status: ('A' for Active; 'I' for Inactive)
REMARK    1  A    between atoms: C_4  and  C_5 
REMARK    2  A    between atoms: C_5  and  N_6 
REMARK    3  A    between atoms: C_5  and  C_31 
REMARK       I    between atoms: N_6  and  C_7 
REMARK    4  A    between atoms: N_6  and  C_21 
REMARK    5  A    between atoms: C_7  and  C_8 
REMARK    6  A    between atoms: C_11  and  C_12 
REMARK    7  A    between atoms: C_21  and  C_22 
REMARK       I    between atoms: C_31  and  N_32 
REMARK    8  A    between atoms: N_32  and  C_33 
ROOT
HETATM    1  N   UNL     1       7.052  28.528  55.645  1.00  0.00    -0.323 N 
HETATM    2  C   UNL     1       8.375  28.915  55.428  1.00  0.00     0.271 C 
HETATM    3  O   UNL     1       8.957  28.619  54.384  1.00  0.00    -0.266 OA
ENDROOT
BRANCH   1   4
HETATM    4  C   UNL     1       6.425  27.699  54.594  1.00  0.00     0.237 C 
BRANCH   4   5
HETATM    5  C   UNL     1       5.252  28.427  53.993  1.00  0.00     0.085 A 
HETATM    6  O   UNL     1       5.342  29.772  53.759  1.00  0.00    -0.317 OA
HETATM    7  C   UNL     1       4.152  30.177  53.236  1.00  0.00     0.049 A 
HETATM    8  C   UNL     1       4.016  31.618  52.948  1.00  0.00     0.076 C 
HETATM    9  C   UNL     1       3.308  29.098  53.089  1.00  0.00     0.035 A 
HETATM   10  C   UNL     1       4.015  27.972  53.574  1.00  0.00     0.038 A 
ENDBRANCH   4   5
BRANCH   4  11
HETATM   11  C   UNL     1       6.217  26.229  55.051  1.00  0.00     0.247 C 
HETATM   12  N   UNL     1       6.897  25.240  54.383  1.00  0.00    -0.354 N 
HETATM   13  H   UNL     1       7.502  25.547  53.627  1.00  0.00     0.162 HD
HETATM   14  O   UNL     1       5.418  25.977  55.955  1.00  0.00    -0.271 OA
BRANCH  12  15
HETATM   15  C   UNL     1       6.852  23.800  54.620  1.00  0.00     0.084 C 
HETATM   16  C   UNL     1       7.146  22.951  53.374  1.00  0.00     0.025 C 
HETATM   17  C   UNL     1       8.599  22.510  53.213  1.00  0.00     0.002 C 
HETATM   18  C   UNL     1       9.166  21.929  54.501  1.00  0.00     0.000 C 
HETATM   19  C   UNL     1       9.040  22.907  55.661  1.00  0.00     0.002 C 
HETATM   20  C   UNL     1       7.597  23.349  55.883  1.00  0.00     0.025 C 
ENDBRANCH  12  15
ENDBRANCH   4  11
ENDBRANCH   1   4
BRANCH   1  21
HETATM   21  C   UNL     1       6.299  28.727  56.887  1.00  0.00     0.166 C 
BRANCH  21  22
HETATM   22  C   UNL     1       5.299  29.863  56.943  1.00  0.00    -0.037 A 
HETATM   23  C   UNL     1       5.810  31.171  57.074  1.00  0.00     0.048 A 
HETATM   24  C   UNL     1       4.926  32.225  57.163  1.00  0.00     0.105 A 
HETATM   25  C   UNL     1       3.568  32.032  57.138  1.00  0.00     0.105 A 
HETATM   26  O   UNL     1       5.264  33.536  57.286  1.00  0.00    -0.323 OA
HETATM   27  O   UNL     1       2.875  33.198  57.239  1.00  0.00    -0.323 OA
HETATM   28  C   UNL     1       3.021  30.775  57.019  1.00  0.00     0.040 A 
HETATM   29  C   UNL     1       3.956  34.146  57.339  1.00  0.00     0.352 A 
HETATM   30  C   UNL     1       3.898  29.686  56.919  1.00  0.00     0.012 A 
ENDBRANCH  21  22
ENDBRANCH   1  21
BRANCH   2  31
HETATM   31  C   UNL     1       9.122  29.600  56.463  1.00  0.00     0.101 A 
HETATM   32  N   UNL     1       8.513  29.892  57.667  1.00  0.00    -0.351 N 
HETATM   33  H   UNL     1       7.559  29.631  57.881  1.00  0.00     0.166 HD
HETATM   34  C   UNL     1       9.352  30.591  58.504  1.00  0.00     0.043 A 
HETATM   35  C   UNL     1      10.575  30.638  57.860  1.00  0.00     0.033 A 
HETATM   36  C   UNL     1      10.438  30.004  56.597  1.00  0.00     0.037 A 
BRANCH  34  37
HETATM   37  C   UNL     1       8.929  31.088  59.815  1.00  0.00    -0.009 A 
HETATM   38  C   UNL     1       9.293  30.411  60.986  1.00  0.00     0.013 A 
HETATM   39  C   UNL     1       8.886  30.879  62.239  1.00  0.00     0.001 A 
HETATM   40  C   UNL     1       8.113  32.034  62.336  1.00  0.00     0.000 A 
HETATM   41  C   UNL     1       7.749  32.723  61.182  1.00  0.00     0.001 A 
HETATM   42  C   UNL     1       8.155  32.255  59.930  1.00  0.00     0.013 A 
ENDBRANCH  34  37
ENDBRANCH   2  31
TORSDOF 8
ENDMDL
MODEL 5
REMARK VINA RESULT:      -9.8      2.113      5.604
REMARK  8 active torsions:
REMARK  status: ('A' for Active; 'I' for Inactive)
REMARK    1  A    between atoms: C_4  and  C_5 
REMARK    2  A    between atoms: C_5  and  N_6 
REMARK    3  A    between atoms: C_5  and  C_31 
REMARK       I    between atoms: N_6  and  C_7 
REMARK    4  A    between atoms: N_6  and  C_21 
REMARK    5  A    between atoms: C_7  and  C_8 
REMARK    6  A    between atoms: C_11  and  C_12 
REMARK    7  A    between atoms: C_21  and  C_22 
REMARK       I    between atoms: C_31  and  N_32 
REMARK    8  A    between atoms: N_32  and  C_33 
ROOT
HETATM    1  N   UNL     1       5.293  27.285  52.982  1.00  0.00    -0.323 N 
HETATM    2  C   UNL     1       5.209  25.908  52.767  1.00  0.00     0.271 C 
HETATM    3  O   UNL     1       4.120  25.361  52.593  1.00  0.00    -0.266 OA
ENDROOT
BRANCH   1   4
HETATM    4  C   UNL     1       4.013  28.021  53.053  1.00  0.00     0.237 C 
BRANCH   4   5
HETATM    5  C   UNL     1       3.756  28.734  51.753  1.00  0.00     0.085 A 
HETATM    6  O   UNL     1       2.749  29.657  51.679  1.00  0.00    -0.317 OA
HETATM    7  C   UNL     1       2.722  30.132  50.402  1.00  0.00     0.049 A 
HETATM    8  C   UNL     1       1.668  31.117  50.089  1.00  0.00     0.076 C 
HETATM    9  C   UNL     1       3.731  29.556  49.662  1.00  0.00     0.035 A 
HETATM   10  C   UNL     1       4.397  28.659  50.530  1.00  0.00     0.038 A 
ENDBRANCH   4   5
BRANCH   4  11
HETATM   11  C   UNL     1       3.874  28.831  54.371  1.00  0.00     0.247 C 
HETATM   12  N   UNL     1       3.852  30.202  54.290  1.00  0.00    -0.354 N 
HETATM   13  H   UNL     1       3.927  30.595  53.356  1.00  0.00     0.162 HD
HETATM   14  O   UNL     1       3.838  28.240  55.452  1.00  0.00    -0.271 OA
BRANCH  12  15
HETATM   15  C   UNL     1       3.745  31.166  55.382  1.00  0.00     0.084 C 
HETATM   16  C   UNL     1       4.806  32.276  55.342  1.00  0.00     0.025 C 
HETATM   17  C   UNL     1       4.376  33.566  54.648  1.00  0.00     0.002 C 
HETATM   18  C   UNL     1       3.007  34.040  55.117  1.00  0.00     0.000 C 
HETATM   19  C   UNL     1       1.946  32.964  54.929  1.00  0.00     0.002 C 
HETATM   20  C   UNL     1       2.317  31.665  55.638  1.00  0.00     0.025 C 
ENDBRANCH  12  15
ENDBRANCH   4  11
ENDBRANCH   1   4
BRANCH   1  21
HETATM   21  C   UNL     1       6.516  28.022  53.310  1.00  0.00     0.166 C 
BRANCH  21  22
HETATM   22  C   UNL     1       6.964  28.056  54.757  1.00  0.00    -0.037 A 
HETATM   23  C   UNL     1       7.019  29.317  55.388  1.00  0.00     0.048 A 
HETATM   24  C   UNL     1       7.455  29.388  56.694  1.00  0.00     0.105 A 
HETATM   25  C   UNL     1       7.844  28.270  57.388  1.00  0.00     0.105 A 
HETATM   26  O   UNL     1       7.558  30.523  57.436  1.00  0.00    -0.323 OA
HETATM   27  O   UNL     1       8.239  28.557  58.657  1.00  0.00    -0.323 OA
HETATM   28  C   UNL     1       7.814  27.021  56.813  1.00  0.00     0.040 A 
HETATM   29  C   UNL     1       8.061  29.987  58.678  1.00  0.00     0.352 A 
HETATM   30  C   UNL     1       7.367  26.918  55.489  1.00  0.00     0.012 A 
ENDBRANCH  21  22
ENDBRANCH   1  21
BRANCH   2  31
HETATM   31  C   UNL     1       6.395  25.078  52.831  1.00  0.00     0.101 A 
HETATM   32  N   UNL     1       6.452  24.033  53.731  1.00  0.00    -0.351 N 
HETATM   33  H   UNL     1       5.687  23.794  54.349  1.00  0.00     0.166 HD
HETATM   34  C   UNL     1       7.669  23.394  53.690  1.00  0.00     0.043 A 
HETATM   35  C   UNL     1       8.366  23.973  52.645  1.00  0.00     0.033 A 
HETATM   36  C   UNL     1       7.565  25.010  52.096  1.00  0.00     0.037 A 
BRANCH  34  37
HETATM   37  C   UNL     1       8.019  22.297  54.595  1.00  0.00    -0.009 A 
HETATM   38  C   UNL     1       8.342  21.031  54.090  1.00  0.00     0.013 A 
HETATM   39  C   UNL     1       8.670  19.980  54.951  1.00  0.00     0.001 A 
HETATM   40  C   UNL     1       8.683  20.183  56.329  1.00  0.00     0.000 A 
HETATM   41  C   UNL     1       8.371  21.437  56.847  1.00  0.00     0.001 A 
HETATM   42  C   UNL     1       8.043  22.488  55.986  1.00  0.00     0.013 A 
ENDBRANCH  34  37
ENDBRANCH   2  31
TORSDOF 8
ENDMDL
MODEL 6
REMARK VINA RESULT:      -9.5      2.879      4.323
REMARK  8 active torsions:
REMARK  status: ('A' for Active; 'I' for Inactive)
REMARK    1  A    between atoms: C_4  and  C_5 
REMARK    2  A    between atoms: C_5  and  N_6 
REMARK    3  A    between atoms: C_5  and  C_31 
REMARK       I    between atoms: N_6  and  C_7 
REMARK    4  A    between atoms: N_6  and  C_21 
REMARK    5  A    between atoms: C_7  and  C_8 
REMARK    6  A    between atoms: C_11  and  C_12 
REMARK    7  A    between atoms: C_21  and  C_22 
REMARK       I    between atoms: C_31  and  N_32 
REMARK    8  A    between atoms: N_32  and  C_33 
ROOT
HETATM    1  N   UNL     1       5.241  27.763  52.943  1.00  0.00    -0.323 N 
HETATM    2  C   UNL     1       5.419  26.602  53.697  1.00  0.00     0.271 C 
HETATM    3  O   UNL     1       4.802  26.433  54.750  1.00  0.00    -0.266 OA
ENDROOT
BRANCH   1   4
HETATM    4  C   UNL     1       4.336  28.786  53.508  1.00  0.00     0.237 C 
BRANCH   4   5
HETATM    5  C   UNL     1       3.538  29.433  52.408  1.00  0.00     0.085 A 
HETATM    6  O   UNL     1       3.900  30.671  51.951  1.00  0.00    -0.317 OA
HETATM    7  C   UNL     1       3.012  31.025  50.981  1.00  0.00     0.049 A 
HETATM    8  C   UNL     1       3.194  32.361  50.380  1.00  0.00     0.076 C 
HETATM    9  C   UNL     1       2.105  30.009  50.776  1.00  0.00     0.035 A 
HETATM   10  C   UNL     1       2.444  28.984  51.691  1.00  0.00     0.038 A 
ENDBRANCH   4   5
BRANCH   4  11
HETATM   11  C   UNL     1       5.058  29.710  54.528  1.00  0.00     0.247 C 
HETATM   12  N   UNL     1       4.567  30.979  54.712  1.00  0.00    -0.354 N 
HETATM   13  H   UNL     1       3.750  31.227  54.162  1.00  0.00     0.162 HD
HETATM   14  O   UNL     1       6.072  29.311  55.104  1.00  0.00    -0.271 OA
BRANCH  12  15
HETATM   15  C   UNL     1       5.080  32.022  55.597  1.00  0.00     0.084 C 
HETATM   16  C   UNL     1       4.711  33.449  55.161  1.00  0.00     0.025 C 
HETATM   17  C   UNL     1       3.455  34.025  55.812  1.00  0.00     0.002 C 
HETATM   18  C   UNL     1       3.446  33.820  57.321  1.00  0.00     0.000 C 
HETATM   19  C   UNL     1       3.601  32.351  57.688  1.00  0.00     0.002 C 
HETATM   20  C   UNL     1       4.864  31.740  57.089  1.00  0.00     0.025 C 
ENDBRANCH  12  15
ENDBRANCH   4  11
ENDBRANCH   1   4
BRANCH   1  21
HETATM   21  C   UNL     1       5.998  28.121  51.740  1.00  0.00     0.166 C 
BRANCH  21  22
HETATM   22  C   UNL     1       5.373  27.835  50.390  1.00  0.00    -0.037 A 
HETATM   23  C   UNL     1       4.676  26.618  50.244  1.00  0.00     0.048 A 
HETATM   24  C   UNL     1       4.124  26.311  49.018  1.00  0.00     0.105 A 
HETATM   25  C   UNL     1       4.245  27.151  47.940  1.00  0.00     0.105 A 
HETATM   26  O   UNL     1       3.422  25.184  48.723  1.00  0.00    -0.323 OA
HETATM   27  O   UNL     1       3.632  26.664  46.829  1.00  0.00    -0.323 OA
HETATM   28  C   UNL     1       4.921  28.345  48.032  1.00  0.00     0.040 A 
HETATM   29  C   UNL     1       3.118  25.414  47.331  1.00  0.00     0.352 A 
HETATM   30  C   UNL     1       5.485  28.687  49.269  1.00  0.00     0.012 A 
ENDBRANCH  21  22
ENDBRANCH   1  21
BRANCH   2  31
HETATM   31  C   UNL     1       6.397  25.609  53.303  1.00  0.00     0.101 A 
HETATM   32  N   UNL     1       6.477  24.416  53.991  1.00  0.00    -0.351 N 
HETATM   33  H   UNL     1       5.863  24.180  54.761  1.00  0.00     0.166 HD
HETATM   34  C   UNL     1       7.495  23.623  53.517  1.00  0.00     0.043 A 
HETATM   35  C   UNL     1       8.002  24.280  52.410  1.00  0.00     0.033 A 
HETATM   36  C   UNL     1       7.305  25.509  52.265  1.00  0.00     0.037 A 
BRANCH  34  37
HETATM   37  C   UNL     1       7.843  22.335  54.120  1.00  0.00    -0.009 A 
HETATM   38  C   UNL     1       8.371  21.300  53.336  1.00  0.00     0.013 A 
HETATM   39  C   UNL     1       8.699  20.066  53.907  1.00  0.00     0.001 A 
HETATM   40  C   UNL     1       8.507  19.854  55.271  1.00  0.00     0.000 A 
HETATM   41  C   UNL     1       7.990  20.875  56.065  1.00  0.00     0.001 A 
HETATM   42  C   UNL     1       7.662  22.107  55.494  1.00  0.00     0.013 A 
ENDBRANCH  34  37
ENDBRANCH   2  31
TORSDOF 8
ENDMDL
MODEL 7
REMARK VINA RESULT:      -9.5      1.794      3.736
REMARK  8 active torsions:
REMARK  status: ('A' for Active; 'I' for Inactive)
REMARK    1  A    between atoms: C_4  and  C_5 
REMARK    2  A    between atoms: C_5  and  N_6 
REMARK    3  A    between atoms: C_5  and  C_31 
REMARK       I    between atoms: N_6  and  C_7 
REMARK    4  A    between atoms: N_6  and  C_21 
REMARK    5  A    between atoms: C_7  and  C_8 
REMARK    6  A    between atoms: C_11  and  C_12 
REMARK    7  A    between atoms: C_21  and  C_22 
REMARK       I    between atoms: C_31  and  N_32 
REMARK    8  A    between atoms: N_32  and  C_33 
ROOT
HETATM    1  N   UNL     1       7.637  27.553  55.849  1.00  0.00    -0.323 N 
HETATM    2  C   UNL     1       7.719  26.841  57.047  1.00  0.00     0.271 C 
HETATM    3  O   UNL     1       7.565  27.407  58.130  1.00  0.00    -0.266 OA
ENDROOT
BRANCH   1   4
HETATM    4  C   UNL     1       7.425  29.012  55.961  1.00  0.00     0.237 C 
BRANCH   4   5
HETATM    5  C   UNL     1       8.596  29.651  56.656  1.00  0.00     0.085 A 
HETATM    6  O   UNL     1       8.390  30.371  57.800  1.00  0.00    -0.317 OA
HETATM    7  C   UNL     1       9.599  30.849  58.208  1.00  0.00     0.049 A 
HETATM    8  C   UNL     1       9.597  31.701  59.413  1.00  0.00     0.076 C 
HETATM    9  C   UNL     1      10.591  30.407  57.361  1.00  0.00     0.035 A 
HETATM   10  C   UNL     1       9.948  29.636  56.364  1.00  0.00     0.038 A 
ENDBRANCH   4   5
BRANCH   4  11
HETATM   11  C   UNL     1       5.997  29.361  56.464  1.00  0.00     0.247 C 
HETATM   12  N   UNL     1       5.808  30.569  57.090  1.00  0.00    -0.354 N 
HETATM   13  H   UNL     1       6.630  31.160  57.178  1.00  0.00     0.162 HD
HETATM   14  O   UNL     1       5.086  28.540  56.339  1.00  0.00    -0.271 OA
BRANCH  12  15
HETATM   15  C   UNL     1       4.573  31.106  57.655  1.00  0.00     0.084 C 
HETATM   16  C   UNL     1       4.784  31.990  58.893  1.00  0.00     0.025 C 
HETATM   17  C   UNL     1       4.879  33.488  58.616  1.00  0.00     0.002 C 
HETATM   18  C   UNL     1       3.765  33.973  57.697  1.00  0.00     0.000 C 
HETATM   19  C   UNL     1       3.743  33.198  56.387  1.00  0.00     0.002 C 
HETATM   20  C   UNL     1       3.612  31.694  56.613  1.00  0.00     0.025 C 
ENDBRANCH  12  15
ENDBRANCH   4  11
ENDBRANCH   1   4
BRANCH   1  21
HETATM   21  C   UNL     1       7.912  27.011  54.516  1.00  0.00     0.166 C 
BRANCH  21  22
HETATM   22  C   UNL     1       6.822  27.102  53.467  1.00  0.00    -0.037 A 
HETATM   23  C   UNL     1       6.570  28.371  52.905  1.00  0.00     0.048 A 
HETATM   24  C   UNL     1       5.561  28.496  51.973  1.00  0.00     0.105 A 
HETATM   25  C   UNL     1       4.794  27.425  51.589  1.00  0.00     0.105 A 
HETATM   26  O   UNL     1       5.203  29.645  51.340  1.00  0.00    -0.323 OA
HETATM   27  O   UNL     1       3.857  27.760  50.664  1.00  0.00    -0.323 OA
HETATM   28  C   UNL     1       4.998  26.170  52.115  1.00  0.00     0.040 A 
HETATM   29  C   UNL     1       4.118  29.170  50.516  1.00  0.00     0.352 A 
HETATM   30  C   UNL     1       6.022  26.012  53.058  1.00  0.00     0.012 A 
ENDBRANCH  21  22
ENDBRANCH   1  21
BRANCH   2  31
HETATM   31  C   UNL     1       8.074  25.436  57.046  1.00  0.00     0.101 A 
HETATM   32  N   UNL     1       8.023  24.718  55.870  1.00  0.00    -0.351 N 
HETATM   33  H   UNL     1       7.767  25.130  54.981  1.00  0.00     0.166 HD
HETATM   34  C   UNL     1       8.337  23.394  56.069  1.00  0.00     0.043 A 
HETATM   35  C   UNL     1       8.719  23.291  57.394  1.00  0.00     0.033 A 
HETATM   36  C   UNL     1       8.574  24.568  57.999  1.00  0.00     0.037 A 
BRANCH  34  37
HETATM   37  C   UNL     1       8.287  22.398  54.997  1.00  0.00    -0.009 A 
HETATM   38  C   UNL     1       8.676  21.073  55.235  1.00  0.00     0.013 A 
HETATM   39  C   UNL     1       8.635  20.120  54.213  1.00  0.00     0.001 A 
HETATM   40  C   UNL     1       8.199  20.480  52.939  1.00  0.00     0.000 A 
HETATM   41  C   UNL     1       7.802  21.790  52.687  1.00  0.00     0.001 A 
HETATM   42  C   UNL     1       7.843  22.742  53.709  1.00  0.00     0.013 A 
ENDBRANCH  34  37
ENDBRANCH   2  31
TORSDOF 8
ENDMDL
MODEL 8
REMARK VINA RESULT:      -9.4      1.949      7.774
REMARK  8 active torsions:
REMARK  status: ('A' for Active; 'I' for Inactive)
REMARK    1  A    between atoms: C_4  and  C_5 
REMARK    2  A    between atoms: C_5  and  N_6 
REMARK    3  A    between atoms: C_5  and  C_31 
REMARK       I    between atoms: N_6  and  C_7 
REMARK    4  A    between atoms: N_6  and  C_21 
REMARK    5  A    between atoms: C_7  and  C_8 
REMARK    6  A    between atoms: C_11  and  C_12 
REMARK    7  A    between atoms: C_21  and  C_22 
REMARK       I    between atoms: C_31  and  N_32 
REMARK    8  A    between atoms: N_32  and  C_33 
ROOT
HETATM    1  N   UNL     1       5.595  27.763  53.566  1.00  0.00    -0.323 N 
HETATM    2  C   UNL     1       6.534  28.195  54.504  1.00  0.00     0.271 C 
HETATM    3  O   UNL     1       7.705  27.817  54.445  1.00  0.00    -0.266 OA
ENDROOT
BRANCH   1   4
HETATM    4  C   UNL     1       6.068  26.792  52.557  1.00  0.00     0.237 C 
BRANCH   4   5
HETATM    5  C   UNL     1       5.578  27.189  51.190  1.00  0.00     0.085 A 
HETATM    6  O   UNL     1       5.851  28.441  50.714  1.00  0.00    -0.317 OA
HETATM    7  C   UNL     1       5.285  28.543  49.479  1.00  0.00     0.049 A 
HETATM    8  C   UNL     1       5.422  29.845  48.797  1.00  0.00     0.076 C 
HETATM    9  C   UNL     1       4.685  27.352  49.135  1.00  0.00     0.035 A 
HETATM   10  C   UNL     1       4.874  26.480  50.233  1.00  0.00     0.038 A 
ENDBRANCH   4   5
BRANCH   4  11
HETATM   11  C   UNL     1       5.855  25.322  53.011  1.00  0.00     0.247 C 
HETATM   12  N   UNL     1       6.886  24.689  53.662  1.00  0.00    -0.354 N 
HETATM   13  H   UNL     1       7.728  25.239  53.806  1.00  0.00     0.162 HD
HETATM   14  O   UNL     1       4.802  24.743  52.738  1.00  0.00    -0.271 OA
BRANCH  12  15
HETATM   15  C   UNL     1       6.926  23.318  54.166  1.00  0.00     0.084 C 
HETATM   16  C   UNL     1       7.641  22.330  53.233  1.00  0.00     0.025 C 
HETATM   17  C   UNL     1       9.119  22.097  53.539  1.00  0.00     0.002 C 
HETATM   18  C   UNL     1       9.363  21.833  55.018  1.00  0.00     0.000 C 
HETATM   19  C   UNL     1       8.819  22.960  55.886  1.00  0.00     0.002 C 
HETATM   20  C   UNL     1       7.333  23.205  55.640  1.00  0.00     0.025 C 
ENDBRANCH  12  15
ENDBRANCH   4  11
ENDBRANCH   1   4
BRANCH   1  21
HETATM   21  C   UNL     1       4.159  28.055  53.602  1.00  0.00     0.166 C 
BRANCH  21  22
HETATM   22  C   UNL     1       3.640  29.197  52.752  1.00  0.00    -0.037 A 
HETATM   23  C   UNL     1       2.600  28.908  51.845  1.00  0.00     0.048 A 
HETATM   24  C   UNL     1       2.127  29.916  51.032  1.00  0.00     0.105 A 
HETATM   25  C   UNL     1       2.649  31.184  51.076  1.00  0.00     0.105 A 
HETATM   26  O   UNL     1       1.130  29.795  50.115  1.00  0.00    -0.323 OA
HETATM   27  O   UNL     1       2.045  32.026  50.196  1.00  0.00    -0.323 OA
HETATM   28  C   UNL     1       3.668  31.513  51.939  1.00  0.00     0.040 A 
HETATM   29  C   UNL     1       1.089  31.137  49.586  1.00  0.00     0.352 A 
HETATM   30  C   UNL     1       4.162  30.509  52.783  1.00  0.00     0.012 A 
ENDBRANCH  21  22
ENDBRANCH   1  21
BRANCH   2  31
HETATM   31  C   UNL     1       6.132  29.027  55.620  1.00  0.00     0.101 A 
HETATM   32  N   UNL     1       7.093  29.651  56.389  1.00  0.00    -0.351 N 
HETATM   33  H   UNL     1       8.085  29.576  56.202  1.00  0.00     0.166 HD
HETATM   34  C   UNL     1       6.533  30.350  57.433  1.00  0.00     0.043 A 
HETATM   35  C   UNL     1       5.164  30.270  57.250  1.00  0.00     0.033 A 
HETATM   36  C   UNL     1       4.914  29.462  56.110  1.00  0.00     0.037 A 
BRANCH  34  37
HETATM   37  C   UNL     1       7.335  31.043  58.443  1.00  0.00    -0.009 A 
HETATM   38  C   UNL     1       6.718  31.797  59.450  1.00  0.00     0.013 A 
HETATM   39  C   UNL     1       7.480  32.464  60.413  1.00  0.00     0.001 A 
HETATM   40  C   UNL     1       8.871  32.383  60.383  1.00  0.00     0.000 A 
HETATM   41  C   UNL     1       9.500  31.633  59.393  1.00  0.00     0.001 A 
HETATM   42  C   UNL     1       8.738  30.966  58.431  1.00  0.00     0.013 A 
ENDBRANCH  34  37
ENDBRANCH   2  31
TORSDOF 8
ENDMDL
MODEL 9
REMARK VINA RESULT:      -9.4      2.607      7.471
REMARK  8 active torsions:
REMARK  status: ('A' for Active; 'I' for Inactive)
REMARK    1  A    between atoms: C_4  and  C_5 
REMARK    2  A    between atoms: C_5  and  N_6 
REMARK    3  A    between atoms: C_5  and  C_31 
REMARK       I    between atoms: N_6  and  C_7 
REMARK    4  A    between atoms: N_6  and  C_21 
REMARK    5  A    between atoms: C_7  and  C_8 
REMARK    6  A    between atoms: C_11  and  C_12 
REMARK    7  A    between atoms: C_21  and  C_22 
REMARK       I    between atoms: C_31  and  N_32 
REMARK    8  A    between atoms: N_32  and  C_33 
ROOT
HETATM    1  N   UNL     1       5.424  26.998  54.415  1.00  0.00    -0.323 N 
HETATM    2  C   UNL     1       6.075  26.954  53.182  1.00  0.00     0.271 C 
HETATM    3  O   UNL     1       7.147  26.361  53.054  1.00  0.00    -0.266 OA
ENDROOT
BRANCH   1   4
HETATM    4  C   UNL     1       6.120  26.359  55.553  1.00  0.00     0.237 C 
BRANCH   4   5
HETATM    5  C   UNL     1       7.035  27.352  56.220  1.00  0.00     0.085 A 
HETATM    6  O   UNL     1       8.011  27.967  55.486  1.00  0.00    -0.317 OA
HETATM    7  C   UNL     1       8.697  28.791  56.326  1.00  0.00     0.049 A 
HETATM    8  C   UNL     1       9.837  29.525  55.742  1.00  0.00     0.076 C 
HETATM    9  C   UNL     1       8.144  28.747  57.587  1.00  0.00     0.035 A 
HETATM   10  C   UNL     1       7.075  27.823  57.519  1.00  0.00     0.038 A 
ENDBRANCH   4   5
BRANCH   4  11
HETATM   11  C   UNL     1       6.699  24.967  55.181  1.00  0.00     0.247 C 
HETATM   12  N   UNL     1       8.054  24.776  55.299  1.00  0.00    -0.354 N 
HETATM   13  H   UNL     1       8.591  25.573  55.631  1.00  0.00     0.162 HD
HETATM   14  O   UNL     1       5.952  24.089  54.745  1.00  0.00    -0.271 OA
BRANCH  12  15
HETATM   15  C   UNL     1       8.823  23.571  54.997  1.00  0.00     0.084 C 
HETATM   16  C   UNL     1       8.646  22.443  56.025  1.00  0.00     0.025 C 
HETATM   17  C   UNL     1       7.579  21.407  55.680  1.00  0.00     0.002 C 
HETATM   18  C   UNL     1       7.700  20.917  54.243  1.00  0.00     0.000 C 
HETATM   19  C   UNL     1       7.651  22.071  53.251  1.00  0.00     0.002 C 
HETATM   20  C   UNL     1       8.726  23.116  53.535  1.00  0.00     0.025 C 
ENDBRANCH  12  15
ENDBRANCH   4  11
ENDBRANCH   1   4
BRANCH   1  21
HETATM   21  C   UNL     1       4.209  27.762  54.710  1.00  0.00     0.166 C 
BRANCH  21  22
HETATM   22  C   UNL     1       4.355  29.090  55.424  1.00  0.00    -0.037 A 
HETATM   23  C   UNL     1       3.775  29.203  56.705  1.00  0.00     0.048 A 
HETATM   24  C   UNL     1       3.860  30.409  57.369  1.00  0.00     0.105 A 
HETATM   25  C   UNL     1       4.482  31.498  56.813  1.00  0.00     0.105 A 
HETATM   26  O   UNL     1       3.358  30.671  58.605  1.00  0.00    -0.323 OA
HETATM   27  O   UNL     1       4.455  32.586  57.628  1.00  0.00    -0.323 OA
HETATM   28  C   UNL     1       5.057  31.438  55.564  1.00  0.00     0.040 A 
HETATM   29  C   UNL     1       3.736  32.056  58.759  1.00  0.00     0.352 A 
HETATM   30  C   UNL     1       4.992  30.222  54.870  1.00  0.00     0.012 A 
ENDBRANCH  21  22
ENDBRANCH   1  21
BRANCH   2  31
HETATM   31  C   UNL     1       5.548  27.678  52.043  1.00  0.00     0.101 A 
HETATM   32  N   UNL     1       4.642  27.064  51.201  1.00  0.00    -0.351 N 
HETATM   33  H   UNL     1       4.302  26.122  51.349  1.00  0.00     0.166 HD
HETATM   34  C   UNL     1       4.295  27.879  50.149  1.00  0.00     0.043 A 
HETATM   35  C   UNL     1       4.905  29.095  50.395  1.00  0.00     0.033 A 
HETATM   36  C   UNL     1       5.670  28.977  51.585  1.00  0.00     0.037 A 
BRANCH  34  37
HETATM   37  C   UNL     1       3.406  27.443  49.070  1.00  0.00    -0.009 A 
HETATM   38  C   UNL     1       2.171  28.073  48.865  1.00  0.00     0.013 A 
HETATM   39  C   UNL     1       1.317  27.656  47.839  1.00  0.00     0.001 A 
HETATM   40  C   UNL     1       1.690  26.605  47.003  1.00  0.00     0.000 A 
HETATM   41  C   UNL     1       2.916  25.974  47.189  1.00  0.00     0.001 A 
HETATM   42  C   UNL     1       3.770  26.390  48.214  1.00  0.00     0.013 A 
ENDBRANCH  34  37
ENDBRANCH   2  31
TORSDOF 8
ENDMDL
MODEL 10
REMARK VINA RESULT:      -9.4      2.526      7.033
REMARK  8 active torsions:
REMARK  status: ('A' for Active; 'I' for Inactive)
REMARK    1  A    between atoms: C_4  and  C_5 
REMARK    2  A    between atoms: C_5  and  N_6 
REMARK    3  A    between atoms: C_5  and  C_31 
REMARK       I    between atoms: N_6  and  C_7 
REMARK    4  A    between atoms: N_6  and  C_21 
REMARK    5  A    between atoms: C_7  and  C_8 
REMARK    6  A    between atoms: C_11  and  C_12 
REMARK    7  A    between atoms: C_21  and  C_22 
REMARK       I    between atoms: C_31  and  N_32 
REMARK    8  A    between atoms: N_32  and  C_33 
ROOT
HETATM    1  N   UNL     1       5.178  28.986  54.248  1.00  0.00    -0.323 N 
HETATM    2  C   UNL     1       6.257  28.217  53.807  1.00  0.00     0.271 C 
HETATM    3  O   UNL     1       6.739  28.390  52.687  1.00  0.00    -0.266 OA
ENDROOT
BRANCH   1   4
HETATM    4  C   UNL     1       4.617  29.953  53.281  1.00  0.00     0.237 C 
BRANCH   4   5
HETATM    5  C   UNL     1       4.038  31.134  54.011  1.00  0.00     0.085 A 
HETATM    6  O   UNL     1       4.876  32.073  54.547  1.00  0.00    -0.317 OA
HETATM    7  C   UNL     1       4.102  33.012  55.159  1.00  0.00     0.049 A 
HETATM    8  C   UNL     1       4.816  34.104  55.850  1.00  0.00     0.076 C 
HETATM    9  C   UNL     1       2.769  32.712  54.986  1.00  0.00     0.035 A 
HETATM   10  C   UNL     1       2.726  31.506  54.247  1.00  0.00     0.038 A 
ENDBRANCH   4   5
BRANCH   4  11
HETATM   11  C   UNL     1       3.743  29.262  52.198  1.00  0.00     0.247 C 
HETATM   12  N   UNL     1       4.132  29.370  50.886  1.00  0.00    -0.354 N 
HETATM   13  H   UNL     1       4.981  29.901  50.713  1.00  0.00     0.162 HD
HETATM   14  O   UNL     1       2.706  28.683  52.527  1.00  0.00    -0.271 OA
BRANCH  12  15
HETATM   15  C   UNL     1       3.470  28.824  49.703  1.00  0.00     0.084 C 
HETATM   16  C   UNL     1       3.602  29.703  48.451  1.00  0.00     0.025 C 
HETATM   17  C   UNL     1       4.758  29.344  47.520  1.00  0.00     0.002 C 
HETATM   18  C   UNL     1       4.818  27.850  47.232  1.00  0.00     0.000 C 
HETATM   19  C   UNL     1       4.904  27.034  48.515  1.00  0.00     0.002 C 
HETATM   20  C   UNL     1       3.747  27.334  49.463  1.00  0.00     0.025 C 
ENDBRANCH  12  15
ENDBRANCH   4  11
ENDBRANCH   1   4
BRANCH   1  21
HETATM   21  C   UNL     1       4.456  28.795  55.509  1.00  0.00     0.166 C 
BRANCH  21  22
HETATM   22  C   UNL     1       4.768  29.729  56.660  1.00  0.00    -0.037 A 
HETATM   23  C   UNL     1       3.683  30.182  57.439  1.00  0.00     0.048 A 
HETATM   24  C   UNL     1       3.928  31.060  58.473  1.00  0.00     0.105 A 
HETATM   25  C   UNL     1       5.193  31.510  58.755  1.00  0.00     0.105 A 
HETATM   26  O   UNL     1       2.992  31.580  59.311  1.00  0.00    -0.323 OA
HETATM   27  O   UNL     1       5.218  32.367  59.810  1.00  0.00    -0.323 OA
HETATM   28  C   UNL     1       6.282  31.101  58.020  1.00  0.00     0.040 A 
HETATM   29  C   UNL     1       3.819  32.412  60.153  1.00  0.00     0.352 A 
HETATM   30  C   UNL     1       6.063  30.202  56.968  1.00  0.00     0.012 A 
ENDBRANCH  21  22
ENDBRANCH   1  21
BRANCH   2  31
HETATM   31  C   UNL     1       6.779  27.141  54.625  1.00  0.00     0.101 A 
HETATM   32  N   UNL     1       6.943  25.885  54.079  1.00  0.00    -0.351 N 
HETATM   33  H   UNL     1       6.735  25.671  53.111  1.00  0.00     0.166 HD
HETATM   34  C   UNL     1       7.392  24.980  55.012  1.00  0.00     0.043 A 
HETATM   35  C   UNL     1       7.640  25.712  56.159  1.00  0.00     0.033 A 
HETATM   36  C   UNL     1       7.276  27.063  55.913  1.00  0.00     0.037 A 
BRANCH  34  37
HETATM   37  C   UNL     1       7.580  23.559  54.712  1.00  0.00    -0.009 A 
HETATM   38  C   UNL     1       7.723  23.122  53.389  1.00  0.00     0.013 A 
HETATM   39  C   UNL     1       7.896  21.766  53.098  1.00  0.00     0.001 A 
HETATM   40  C   UNL     1       7.932  20.829  54.128  1.00  0.00     0.000 A 
HETATM   41  C   UNL     1       7.799  21.247  55.450  1.00  0.00     0.001 A 
HETATM   42  C   UNL     1       7.626  22.603  55.740  1.00  0.00     0.013 A 
ENDBRANCH  34  37
ENDBRANCH   2  31
TORSDOF 8
ENDMDL
