MODEL 1
REMARK VINA RESULT:     -11.0      0.000      0.000
REMARK  5 active torsions:
REMARK  status: ('A' for Active; 'I' for Inactive)
REMARK    1  A    between atoms: C_4  and  O_5 
REMARK    2  A    between atoms: O_5  and  C_6 
REMARK    3  A    between atoms: C_6  and  C_7 
REMARK       I    between atoms: C_7  and  N_8 
REMARK    4  A    between atoms: N_8  and  C_9 
REMARK    5  A    between atoms: C_11  and  C_12 
ROOT
HETATM    1  C   UNL     1       8.616  28.440  57.242  1.00  0.00     0.035 A 
HETATM    2  C   UNL     1       8.045  29.217  58.255  1.00  0.00     0.045 A 
HETATM    3  C   UNL     1       8.706  30.350  58.761  1.00  0.00     0.019 A 
HETATM    4  C   UNL     1       9.956  30.695  58.227  1.00  0.00     0.016 A 
HETATM    5  C   UNL     1      10.531  29.932  57.212  1.00  0.00     0.003 A 
HETATM    6  C   UNL     1       9.862  28.809  56.723  1.00  0.00     0.029 A 
ENDROOT
BRANCH   1   7
HETATM    7  N   UNL     1       8.008  27.295  56.692  1.00  0.00    -0.325 N 
HETATM    8  C   UNL     1       7.338  27.178  55.485  1.00  0.00     0.251 C 
HETATM    9  O   UNL     1       7.133  28.075  54.672  1.00  0.00    -0.270 OA
HETATM   10  H   UNL     1       8.005  26.455  57.265  1.00  0.00     0.169 HD
BRANCH   8  11
HETATM   11  C   UNL     1       6.895  25.736  55.191  1.00  0.00     0.217 C 
HETATM   12  C   UNL     1       5.567  25.773  54.443  1.00  0.00     0.050 C 
BRANCH  11  13
HETATM   13  O   UNL     1       7.837  25.063  54.341  1.00  0.00    -0.337 OA
BRANCH  13  14
HETATM   14  C   UNL     1       7.957  23.731  54.631  1.00  0.00     0.070 A 
HETATM   15  C   UNL     1       8.056  22.856  53.551  1.00  0.00     0.043 A 
HETATM   16  C   UNL     1       8.187  21.479  53.769  1.00  0.00    -0.059 A 
HETATM   17  C   UNL     1       8.287  20.523  52.617  1.00  0.00     0.048 C 
HETATM   18  C   UNL     1       8.256  21.002  55.084  1.00  0.00     0.013 A 
HETATM   19  C   UNL     1       8.184  21.881  56.176  1.00  0.00    -0.059 A 
HETATM   20  C   UNL     1       8.043  23.253  55.940  1.00  0.00     0.043 A 
HETATM   21  C   UNL     1       8.291  21.345  57.574  1.00  0.00     0.048 C 
ENDBRANCH  13  14
ENDBRANCH  11  13
ENDBRANCH   8  11
ENDBRANCH   1   7
BRANCH   3  22
HETATM   22  C   UNL     1       8.130  31.169  59.826  1.00  0.00     0.181 A 
HETATM   23  O   UNL     1       8.776  31.146  61.038  1.00  0.00    -0.289 OA
HETATM   24  C   UNL     1       8.038  31.981  61.822  1.00  0.00     0.106 A 
HETATM   25  C   UNL     1       6.990  32.466  61.057  1.00  0.00     0.093 A 
HETATM   26  C   UNL     1       8.267  32.308  63.153  1.00  0.00     0.040 A 
HETATM   27  N   UNL     1       7.055  31.939  59.792  1.00  0.00    -0.221 NA
HETATM   28  C   UNL     1       6.083  33.359  61.641  1.00  0.00     0.034 A 
HETATM   29  C   UNL     1       6.280  33.719  62.984  1.00  0.00     0.002 A 
HETATM   30  C   UNL     1       7.351  33.201  63.724  1.00  0.00     0.003 A 
ENDBRANCH   3  22
TORSDOF 5
ENDMDL
MODEL 2
REMARK VINA RESULT:     -10.9      0.094      1.600
REMARK  5 active torsions:
REMARK  status: ('A' for Active; 'I' for Inactive)
REMARK    1  A    between atoms: C_4  and  O_5 
REMARK    2  A    between atoms: O_5  and  C_6 
REMARK    3  A    between atoms: C_6  and  C_7 
REMARK       I    between atoms: C_7  and  N_8 
REMARK    4  A    between atoms: N_8  and  C_9 
REMARK    5  A    between atoms: C_11  and  C_12 
ROOT
HETATM    1  C   UNL     1       8.642  28.438  57.245  1.00  0.00     0.035 A 
HETATM    2  C   UNL     1       8.058  29.215  58.251  1.00  0.00     0.045 A 
HETATM    3  C   UNL     1       8.713  30.347  58.766  1.00  0.00     0.019 A 
HETATM    4  C   UNL     1       9.971  30.691  58.250  1.00  0.00     0.016 A 
HETATM    5  C   UNL     1      10.559  29.928  57.244  1.00  0.00     0.003 A 
HETATM    6  C   UNL     1       9.896  28.806  56.744  1.00  0.00     0.029 A 
ENDROOT
BRANCH   1   7
HETATM    7  N   UNL     1       8.041  27.295  56.686  1.00  0.00    -0.325 N 
HETATM    8  C   UNL     1       7.347  27.190  55.492  1.00  0.00     0.251 C 
HETATM    9  O   UNL     1       7.110  28.099  54.701  1.00  0.00    -0.270 OA
HETATM   10  H   UNL     1       8.062  26.444  57.242  1.00  0.00     0.169 HD
BRANCH   8  11
HETATM   11  C   UNL     1       6.920  25.747  55.178  1.00  0.00     0.217 C 
HETATM   12  C   UNL     1       5.541  25.773  54.529  1.00  0.00     0.050 C 
BRANCH  11  13
HETATM   13  O   UNL     1       7.815  25.129  54.241  1.00  0.00    -0.337 OA
BRANCH  13  14
HETATM   14  C   UNL     1       7.976  23.788  54.465  1.00  0.00     0.070 A 
HETATM   15  C   UNL     1       8.068  23.376  55.793  1.00  0.00     0.043 A 
HETATM   16  C   UNL     1       8.228  22.020  56.100  1.00  0.00    -0.059 A 
HETATM   17  C   UNL     1       8.336  21.560  57.524  1.00  0.00     0.048 C 
HETATM   18  C   UNL     1       8.256  21.084  55.057  1.00  0.00     0.013 A 
HETATM   19  C   UNL     1       8.137  21.491  53.720  1.00  0.00    -0.059 A 
HETATM   20  C   UNL     1       7.987  22.852  53.429  1.00  0.00     0.043 A 
HETATM   21  C   UNL     1       8.139  20.464  52.625  1.00  0.00     0.048 C 
ENDBRANCH  13  14
ENDBRANCH  11  13
ENDBRANCH   8  11
ENDBRANCH   1   7
BRANCH   3  22
HETATM   22  C   UNL     1       8.124  31.166  59.824  1.00  0.00     0.181 A 
HETATM   23  O   UNL     1       8.740  31.125  61.051  1.00  0.00    -0.289 OA
HETATM   24  C   UNL     1       7.995  31.964  61.824  1.00  0.00     0.106 A 
HETATM   25  C   UNL     1       6.974  32.470  61.038  1.00  0.00     0.093 A 
HETATM   26  C   UNL     1       8.197  32.278  63.162  1.00  0.00     0.040 A 
HETATM   27  N   UNL     1       7.060  31.952  59.771  1.00  0.00    -0.221 NA
HETATM   28  C   UNL     1       6.065  33.371  61.607  1.00  0.00     0.034 A 
HETATM   29  C   UNL     1       6.235  33.718  62.957  1.00  0.00     0.002 A 
HETATM   30  C   UNL     1       7.280  33.179  63.718  1.00  0.00     0.003 A 
ENDBRANCH   3  22
TORSDOF 5
ENDMDL
MODEL 3
REMARK VINA RESULT:     -10.3      1.700     10.109
REMARK  5 active torsions:
REMARK  status: ('A' for Active; 'I' for Inactive)
REMARK    1  A    between atoms: C_4  and  O_5 
REMARK    2  A    between atoms: O_5  and  C_6 
REMARK    3  A    between atoms: C_6  and  C_7 
REMARK       I    between atoms: C_7  and  N_8 
REMARK    4  A    between atoms: N_8  and  C_9 
REMARK    5  A    between atoms: C_11  and  C_12 
ROOT
HETATM    1  C   UNL     1       7.227  27.449  57.261  1.00  0.00     0.035 A 
HETATM    2  C   UNL     1       7.686  26.216  56.785  1.00  0.00     0.045 A 
HETATM    3  C   UNL     1       6.802  25.284  56.214  1.00  0.00     0.019 A 
HETATM    4  C   UNL     1       5.442  25.613  56.123  1.00  0.00     0.016 A 
HETATM    5  C   UNL     1       4.975  26.841  56.588  1.00  0.00     0.003 A 
HETATM    6  C   UNL     1       5.866  27.754  57.153  1.00  0.00     0.029 A 
ENDROOT
BRANCH   1   7
HETATM    7  N   UNL     1       8.058  28.425  57.842  1.00  0.00    -0.325 N 
HETATM    8  C   UNL     1       8.894  29.328  57.205  1.00  0.00     0.251 C 
HETATM    9  O   UNL     1       9.078  29.425  55.995  1.00  0.00    -0.270 OA
HETATM   10  H   UNL     1       8.103  28.447  58.858  1.00  0.00     0.169 HD
BRANCH   8  11
HETATM   11  C   UNL     1       9.571  30.302  58.183  1.00  0.00     0.217 C 
HETATM   12  C   UNL     1      11.025  30.486  57.765  1.00  0.00     0.050 C 
BRANCH  11  13
HETATM   13  O   UNL     1       8.953  31.597  58.142  1.00  0.00    -0.337 OA
BRANCH  13  14
HETATM   14  C   UNL     1       8.156  31.841  59.227  1.00  0.00     0.070 A 
HETATM   15  C   UNL     1       6.784  31.929  58.996  1.00  0.00     0.043 A 
HETATM   16  C   UNL     1       5.905  32.171  60.058  1.00  0.00    -0.059 A 
HETATM   17  C   UNL     1       4.427  32.276  59.825  1.00  0.00     0.048 C 
HETATM   18  C   UNL     1       6.420  32.283  61.356  1.00  0.00     0.013 A 
HETATM   19  C   UNL     1       7.797  32.168  61.598  1.00  0.00    -0.059 A 
HETATM   20  C   UNL     1       8.664  31.937  60.524  1.00  0.00     0.043 A 
HETATM   21  C   UNL     1       8.318  32.263  63.003  1.00  0.00     0.048 C 
ENDBRANCH  13  14
ENDBRANCH  11  13
ENDBRANCH   8  11
ENDBRANCH   1   7
BRANCH   3  22
HETATM   22  C   UNL     1       7.260  23.986  55.720  1.00  0.00     0.181 A 
HETATM   23  O   UNL     1       7.228  23.797  54.360  1.00  0.00    -0.289 OA
HETATM   24  C   UNL     1       7.701  22.531  54.190  1.00  0.00     0.106 A 
HETATM   25  C   UNL     1       7.995  22.017  55.442  1.00  0.00     0.093 A 
HETATM   26  C   UNL     1       7.870  21.849  52.992  1.00  0.00     0.040 A 
HETATM   27  N   UNL     1       7.706  22.947  56.407  1.00  0.00    -0.221 NA
HETATM   28  C   UNL     1       8.508  20.717  55.536  1.00  0.00     0.034 A 
HETATM   29  C   UNL     1       8.698  19.993  54.347  1.00  0.00     0.002 A 
HETATM   30  C   UNL     1       8.382  20.550  53.101  1.00  0.00     0.003 A 
ENDBRANCH   3  22
TORSDOF 5
ENDMDL
MODEL 4
REMARK VINA RESULT:     -10.2      2.385      9.658
REMARK  5 active torsions:
REMARK  status: ('A' for Active; 'I' for Inactive)
REMARK    1  A    between atoms: C_4  and  O_5 
REMARK    2  A    between atoms: O_5  and  C_6 
REMARK    3  A    between atoms: C_6  and  C_7 
REMARK       I    between atoms: C_7  and  N_8 
REMARK    4  A    between atoms: N_8  and  C_9 
REMARK    5  A    between atoms: C_11  and  C_12 
ROOT
HETATM    1  C   UNL     1       6.281  27.661  53.525  1.00  0.00     0.035 A 
HETATM    2  C   UNL     1       6.763  26.400  53.892  1.00  0.00     0.045 A 
HETATM    3  C   UNL     1       6.744  25.324  52.987  1.00  0.00     0.019 A 
HETATM    4  C   UNL     1       6.232  25.537  51.699  1.00  0.00     0.016 A 
HETATM    5  C   UNL     1       5.755  26.790  51.321  1.00  0.00     0.003 A 
HETATM    6  C   UNL     1       5.780  27.847  52.232  1.00  0.00     0.029 A 
ENDROOT
BRANCH   1   7
HETATM    7  N   UNL     1       6.272  28.779  54.381  1.00  0.00    -0.325 N 
HETATM    8  C   UNL     1       5.407  29.046  55.430  1.00  0.00     0.251 C 
HETATM    9  O   UNL     1       4.463  28.351  55.795  1.00  0.00    -0.270 OA
HETATM   10  H   UNL     1       6.943  29.517  54.183  1.00  0.00     0.169 HD
BRANCH   8  11
HETATM   11  C   UNL     1       5.779  30.328  56.193  1.00  0.00     0.217 C 
HETATM   12  C   UNL     1       4.629  31.321  56.073  1.00  0.00     0.050 C 
BRANCH  11  13
HETATM   13  O   UNL     1       5.966  30.068  57.592  1.00  0.00    -0.337 OA
BRANCH  13  14
HETATM   14  C   UNL     1       7.232  30.360  58.023  1.00  0.00     0.070 A 
HETATM   15  C   UNL     1       8.288  29.820  57.291  1.00  0.00     0.043 A 
HETATM   16  C   UNL     1       9.611  30.080  57.667  1.00  0.00    -0.059 A 
HETATM   17  C   UNL     1      10.759  29.501  56.894  1.00  0.00     0.048 C 
HETATM   18  C   UNL     1       9.855  30.918  58.763  1.00  0.00     0.013 A 
HETATM   19  C   UNL     1       8.796  31.486  59.487  1.00  0.00    -0.059 A 
HETATM   20  C   UNL     1       7.479  31.208  59.103  1.00  0.00     0.043 A 
HETATM   21  C   UNL     1       9.087  32.404  60.638  1.00  0.00     0.048 C 
ENDBRANCH  13  14
ENDBRANCH  11  13
ENDBRANCH   8  11
ENDBRANCH   1   7
BRANCH   3  22
HETATM   22  C   UNL     1       7.234  23.997  53.354  1.00  0.00     0.181 A 
HETATM   23  O   UNL     1       7.101  23.634  54.672  1.00  0.00    -0.289 OA
HETATM   24  C   UNL     1       7.628  22.379  54.725  1.00  0.00     0.106 A 
HETATM   25  C   UNL     1       8.051  22.042  53.450  1.00  0.00     0.093 A 
HETATM   26  C   UNL     1       7.737  21.557  55.840  1.00  0.00     0.040 A 
HETATM   27  N   UNL     1       7.802  23.080  52.588  1.00  0.00    -0.221 NA
HETATM   28  C   UNL     1       8.630  20.785  53.239  1.00  0.00     0.034 A 
HETATM   29  C   UNL     1       8.755  19.922  54.340  1.00  0.00     0.002 A 
HETATM   30  C   UNL     1       8.319  20.303  55.614  1.00  0.00     0.003 A 
ENDBRANCH   3  22
TORSDOF 5
ENDMDL
MODEL 5
REMARK VINA RESULT:     -10.0      1.938      2.648
REMARK  5 active torsions:
REMARK  status: ('A' for Active; 'I' for Inactive)
REMARK    1  A    between atoms: C_4  and  O_5 
REMARK    2  A    between atoms: O_5  and  C_6 
REMARK    3  A    between atoms: C_6  and  C_7 
REMARK       I    between atoms: C_7  and  N_8 
REMARK    4  A    between atoms: N_8  and  C_9 
REMARK    5  A    between atoms: C_11  and  C_12 
ROOT
HETATM    1  C   UNL     1       5.796  28.628  55.525  1.00  0.00     0.035 A 
HETATM    2  C   UNL     1       6.429  28.975  56.724  1.00  0.00     0.045 A 
HETATM    3  C   UNL     1       6.272  30.255  57.283  1.00  0.00     0.019 A 
HETATM    4  C   UNL     1       5.462  31.187  56.618  1.00  0.00     0.016 A 
HETATM    5  C   UNL     1       4.821  30.849  55.428  1.00  0.00     0.003 A 
HETATM    6  C   UNL     1       4.988  29.575  54.885  1.00  0.00     0.029 A 
ENDROOT
BRANCH   1   7
HETATM    7  N   UNL     1       5.911  27.366  54.913  1.00  0.00    -0.325 N 
HETATM    8  C   UNL     1       5.489  26.138  55.396  1.00  0.00     0.251 C 
HETATM    9  O   UNL     1       4.946  25.925  56.477  1.00  0.00    -0.270 OA
HETATM   10  H   UNL     1       6.413  27.326  54.029  1.00  0.00     0.169 HD
BRANCH   8  11
HETATM   11  C   UNL     1       5.708  24.997  54.390  1.00  0.00     0.217 C 
HETATM   12  C   UNL     1       5.114  25.406  53.047  1.00  0.00     0.050 C 
BRANCH  11  13
HETATM   13  O   UNL     1       7.106  24.752  54.175  1.00  0.00    -0.337 OA
BRANCH  13  14
HETATM   14  C   UNL     1       7.473  23.468  54.477  1.00  0.00     0.070 A 
HETATM   15  C   UNL     1       7.706  22.609  53.404  1.00  0.00     0.043 A 
HETATM   16  C   UNL     1       8.090  21.283  53.634  1.00  0.00    -0.059 A 
HETATM   17  C   UNL     1       8.338  20.344  52.491  1.00  0.00     0.048 C 
HETATM   18  C   UNL     1       8.274  20.847  54.953  1.00  0.00     0.013 A 
HETATM   19  C   UNL     1       8.067  21.715  56.035  1.00  0.00    -0.059 A 
HETATM   20  C   UNL     1       7.673  23.035  55.788  1.00  0.00     0.043 A 
HETATM   21  C   UNL     1       8.301  21.229  57.436  1.00  0.00     0.048 C 
ENDBRANCH  13  14
ENDBRANCH  11  13
ENDBRANCH   8  11
ENDBRANCH   1   7
BRANCH   3  22
HETATM   22  C   UNL     1       6.933  30.640  58.529  1.00  0.00     0.181 A 
HETATM   23  O   UNL     1       6.331  31.630  59.267  1.00  0.00    -0.289 OA
HETATM   24  C   UNL     1       7.145  31.779  60.349  1.00  0.00     0.106 A 
HETATM   25  C   UNL     1       8.191  30.881  60.219  1.00  0.00     0.093 A 
HETATM   26  C   UNL     1       6.982  32.661  61.409  1.00  0.00     0.040 A 
HETATM   27  N   UNL     1       8.051  30.167  59.057  1.00  0.00    -0.221 NA
HETATM   28  C   UNL     1       9.170  30.835  61.219  1.00  0.00     0.034 A 
HETATM   29  C   UNL     1       9.043  31.708  62.311  1.00  0.00     0.002 A 
HETATM   30  C   UNL     1       7.970  32.605  62.401  1.00  0.00     0.003 A 
ENDBRANCH   3  22
TORSDOF 5
ENDMDL
MODEL 6
REMARK VINA RESULT:     -10.0      2.010      3.466
REMARK  5 active torsions:
REMARK  status: ('A' for Active; 'I' for Inactive)
REMARK    1  A    between atoms: C_4  and  O_5 
REMARK    2  A    between atoms: O_5  and  C_6 
REMARK    3  A    between atoms: C_6  and  C_7 
REMARK       I    between atoms: C_7  and  N_8 
REMARK    4  A    between atoms: N_8  and  C_9 
REMARK    5  A    between atoms: C_11  and  C_12 
ROOT
HETATM    1  C   UNL     1       7.693  30.727  59.032  1.00  0.00     0.035 A 
HETATM    2  C   UNL     1       7.172  31.210  60.237  1.00  0.00     0.045 A 
HETATM    3  C   UNL     1       7.950  32.005  61.097  1.00  0.00     0.019 A 
HETATM    4  C   UNL     1       9.266  32.313  60.724  1.00  0.00     0.016 A 
HETATM    5  C   UNL     1       9.793  31.842  59.523  1.00  0.00     0.003 A 
HETATM    6  C   UNL     1       9.008  31.053  58.681  1.00  0.00     0.029 A 
ENDROOT
BRANCH   1   7
HETATM    7  N   UNL     1       6.970  29.927  58.127  1.00  0.00    -0.325 N 
HETATM    8  C   UNL     1       7.163  28.590  57.823  1.00  0.00     0.251 C 
HETATM    9  O   UNL     1       8.031  27.853  58.283  1.00  0.00    -0.270 OA
HETATM   10  H   UNL     1       6.247  30.388  57.581  1.00  0.00     0.169 HD
BRANCH   8  11
HETATM   11  C   UNL     1       6.105  28.043  56.851  1.00  0.00     0.217 C 
HETATM   12  C   UNL     1       4.934  29.018  56.802  1.00  0.00     0.050 C 
BRANCH  11  13
HETATM   13  O   UNL     1       6.624  27.941  55.517  1.00  0.00    -0.337 OA
BRANCH  13  14
HETATM   14  C   UNL     1       6.626  26.657  55.044  1.00  0.00     0.070 A 
HETATM   15  C   UNL     1       5.779  26.377  53.973  1.00  0.00     0.043 A 
HETATM   16  C   UNL     1       5.731  25.087  53.432  1.00  0.00    -0.059 A 
HETATM   17  C   UNL     1       4.820  24.767  52.284  1.00  0.00     0.048 C 
HETATM   18  C   UNL     1       6.572  24.097  53.956  1.00  0.00     0.013 A 
HETATM   19  C   UNL     1       7.445  24.379  55.017  1.00  0.00    -0.059 A 
HETATM   20  C   UNL     1       7.474  25.672  55.553  1.00  0.00     0.043 A 
HETATM   21  C   UNL     1       8.357  23.307  55.539  1.00  0.00     0.048 C 
ENDBRANCH  13  14
ENDBRANCH  11  13
ENDBRANCH   8  11
ENDBRANCH   1   7
BRANCH   3  22
HETATM   22  C   UNL     1       7.427  32.511  62.365  1.00  0.00     0.181 A 
HETATM   23  O   UNL     1       6.062  32.638  62.462  1.00  0.00    -0.289 OA
HETATM   24  C   UNL     1       5.863  33.118  63.721  1.00  0.00     0.106 A 
HETATM   25  C   UNL     1       7.102  33.258  64.323  1.00  0.00     0.093 A 
HETATM   26  C   UNL     1       4.649  33.423  64.323  1.00  0.00     0.040 A 
HETATM   27  N   UNL     1       8.089  32.876  63.451  1.00  0.00    -0.221 NA
HETATM   28  C   UNL     1       7.166  33.734  65.638  1.00  0.00     0.034 A 
HETATM   29  C   UNL     1       5.961  34.051  66.286  1.00  0.00     0.002 A 
HETATM   30  C   UNL     1       4.728  33.899  65.639  1.00  0.00     0.003 A 
ENDBRANCH   3  22
TORSDOF 5
ENDMDL
MODEL 7
REMARK VINA RESULT:     -10.0      2.196      3.377
REMARK  5 active torsions:
REMARK  status: ('A' for Active; 'I' for Inactive)
REMARK    1  A    between atoms: C_4  and  O_5 
REMARK    2  A    between atoms: O_5  and  C_6 
REMARK    3  A    between atoms: C_6  and  C_7 
REMARK       I    between atoms: C_7  and  N_8 
REMARK    4  A    between atoms: N_8  and  C_9 
REMARK    5  A    between atoms: C_11  and  C_12 
ROOT
HETATM    1  C   UNL     1       5.364  28.764  55.253  1.00  0.00     0.035 A 
HETATM    2  C   UNL     1       6.114  29.053  56.398  1.00  0.00     0.045 A 
HETATM    3  C   UNL     1       5.967  30.278  57.072  1.00  0.00     0.019 A 
HETATM    4  C   UNL     1       5.047  31.213  56.578  1.00  0.00     0.016 A 
HETATM    5  C   UNL     1       4.289  30.933  55.442  1.00  0.00     0.003 A 
HETATM    6  C   UNL     1       4.448  29.712  54.784  1.00  0.00     0.029 A 
ENDROOT
BRANCH   1   7
HETATM    7  N   UNL     1       5.462  27.558  54.533  1.00  0.00    -0.325 N 
HETATM    8  C   UNL     1       6.013  27.354  53.278  1.00  0.00     0.251 C 
HETATM    9  O   UNL     1       6.507  28.209  52.548  1.00  0.00    -0.270 OA
HETATM   10  H   UNL     1       5.030  26.737  54.947  1.00  0.00     0.169 HD
BRANCH   8  11
HETATM   11  C   UNL     1       6.019  25.873  52.867  1.00  0.00     0.217 C 
HETATM   12  C   UNL     1       5.229  25.720  51.572  1.00  0.00     0.050 C 
BRANCH  11  13
HETATM   13  O   UNL     1       7.352  25.409  52.604  1.00  0.00    -0.337 OA
BRANCH  13  14
HETATM   14  C   UNL     1       7.673  24.285  53.317  1.00  0.00     0.070 A 
HETATM   15  C   UNL     1       7.834  24.434  54.693  1.00  0.00     0.043 A 
HETATM   16  C   UNL     1       8.158  23.329  55.488  1.00  0.00    -0.059 A 
HETATM   17  C   UNL     1       8.342  23.474  56.970  1.00  0.00     0.048 C 
HETATM   18  C   UNL     1       8.279  22.069  54.887  1.00  0.00     0.013 A 
HETATM   19  C   UNL     1       8.091  21.908  53.506  1.00  0.00    -0.059 A 
HETATM   20  C   UNL     1       7.778  23.026  52.723  1.00  0.00     0.043 A 
HETATM   21  C   UNL     1       8.197  20.543  52.893  1.00  0.00     0.048 C 
ENDBRANCH  13  14
ENDBRANCH  11  13
ENDBRANCH   8  11
ENDBRANCH   1   7
BRANCH   3  22
HETATM   22  C   UNL     1       6.749  30.602  58.264  1.00  0.00     0.181 A 
HETATM   23  O   UNL     1       6.267  31.610  59.062  1.00  0.00    -0.289 OA
HETATM   24  C   UNL     1       7.174  31.694  60.075  1.00  0.00     0.106 A 
HETATM   25  C   UNL     1       8.153  30.741  59.847  1.00  0.00     0.093 A 
HETATM   26  C   UNL     1       7.151  32.565  61.157  1.00  0.00     0.040 A 
HETATM   27  N   UNL     1       7.877  30.058  58.691  1.00  0.00    -0.221 NA
HETATM   28  C   UNL     1       9.207  30.622  60.762  1.00  0.00     0.034 A 
HETATM   29  C   UNL     1       9.220  31.481  61.872  1.00  0.00     0.002 A 
HETATM   30  C   UNL     1       8.211  32.435  62.063  1.00  0.00     0.003 A 
ENDBRANCH   3  22
TORSDOF 5
ENDMDL
MODEL 8
REMARK VINA RESULT:      -9.8      1.899      3.457
REMARK  5 active torsions:
REMARK  status: ('A' for Active; 'I' for Inactive)
REMARK    1  A    between atoms: C_4  and  O_5 
REMARK    2  A    between atoms: O_5  and  C_6 
REMARK    3  A    between atoms: C_6  and  C_7 
REMARK       I    between atoms: C_7  and  N_8 
REMARK    4  A    between atoms: N_8  and  C_9 
REMARK    5  A    between atoms: C_11  and  C_12 
ROOT
HETATM    1  C   UNL     1       7.916  30.653  58.600  1.00  0.00     0.035 A 
HETATM    2  C   UNL     1       7.241  31.101  59.741  1.00  0.00     0.045 A 
HETATM    3  C   UNL     1       7.888  31.900  60.700  1.00  0.00     0.019 A 
HETATM    4  C   UNL     1       9.230  32.249  60.492  1.00  0.00     0.016 A 
HETATM    5  C   UNL     1       9.910  31.815  59.356  1.00  0.00     0.003 A 
HETATM    6  C   UNL     1       9.254  31.020  58.415  1.00  0.00     0.029 A 
ENDROOT
BRANCH   1   7
HETATM    7  N   UNL     1       7.329  29.852  57.603  1.00  0.00    -0.325 N 
HETATM    8  C   UNL     1       7.362  28.472  57.485  1.00  0.00     0.251 C 
HETATM    9  O   UNL     1       7.938  27.687  58.233  1.00  0.00    -0.270 OA
HETATM   10  H   UNL     1       6.865  30.334  56.837  1.00  0.00     0.169 HD
BRANCH   8  11
HETATM   11  C   UNL     1       6.518  27.957  56.308  1.00  0.00     0.217 C 
HETATM   12  C   UNL     1       5.424  28.975  56.006  1.00  0.00     0.050 C 
BRANCH  11  13
HETATM   13  O   UNL     1       7.308  27.824  55.117  1.00  0.00    -0.337 OA
BRANCH  13  14
HETATM   14  C   UNL     1       6.994  26.706  54.393  1.00  0.00     0.070 A 
HETATM   15  C   UNL     1       7.341  25.475  54.949  1.00  0.00     0.043 A 
HETATM   16  C   UNL     1       7.047  24.288  54.269  1.00  0.00    -0.059 A 
HETATM   17  C   UNL     1       7.419  22.956  54.850  1.00  0.00     0.048 C 
HETATM   18  C   UNL     1       6.367  24.353  53.046  1.00  0.00     0.013 A 
HETATM   19  C   UNL     1       5.992  25.588  52.495  1.00  0.00    -0.059 A 
HETATM   20  C   UNL     1       6.303  26.767  53.182  1.00  0.00     0.043 A 
HETATM   21  C   UNL     1       5.239  25.627  51.197  1.00  0.00     0.048 C 
ENDBRANCH  13  14
ENDBRANCH  11  13
ENDBRANCH   8  11
ENDBRANCH   1   7
BRANCH   3  22
HETATM   22  C   UNL     1       7.203  32.369  61.904  1.00  0.00     0.181 A 
HETATM   23  O   UNL     1       7.998  32.772  62.948  1.00  0.00    -0.289 OA
HETATM   24  C   UNL     1       7.113  33.149  63.912  1.00  0.00     0.106 A 
HETATM   25  C   UNL     1       5.835  32.961  63.413  1.00  0.00     0.093 A 
HETATM   26  C   UNL     1       7.405  33.640  65.179  1.00  0.00     0.040 A 
HETATM   27  N   UNL     1       5.903  32.458  62.138  1.00  0.00    -0.221 NA
HETATM   28  C   UNL     1       4.738  33.285  64.220  1.00  0.00     0.034 A 
HETATM   29  C   UNL     1       4.989  33.787  65.507  1.00  0.00     0.002 A 
HETATM   30  C   UNL     1       6.298  33.959  65.976  1.00  0.00     0.003 A 
ENDBRANCH   3  22
TORSDOF 5
ENDMDL
MODEL 9
REMARK VINA RESULT:      -9.8      1.687     10.186
REMARK  5 active torsions:
REMARK  status: ('A' for Active; 'I' for Inactive)
REMARK    1  A    between atoms: C_4  and  O_5 
REMARK    2  A    between atoms: O_5  and  C_6 
REMARK    3  A    between atoms: C_6  and  C_7 
REMARK       I    between atoms: C_7  and  N_8 
REMARK    4  A    between atoms: N_8  and  C_9 
REMARK    5  A    between atoms: C_11  and  C_12 
ROOT
HETATM    1  C   UNL     1       6.765  28.737  56.440  1.00  0.00     0.035 A 
HETATM    2  C   UNL     1       7.123  27.394  56.282  1.00  0.00     0.045 A 
HETATM    3  C   UNL     1       6.547  26.603  55.272  1.00  0.00     0.019 A 
HETATM    4  C   UNL     1       5.602  27.187  54.415  1.00  0.00     0.016 A 
HETATM    5  C   UNL     1       5.244  28.526  54.560  1.00  0.00     0.003 A 
HETATM    6  C   UNL     1       5.824  29.296  55.569  1.00  0.00     0.029 A 
ENDROOT
BRANCH   1   7
HETATM    7  N   UNL     1       7.303  29.582  57.429  1.00  0.00    -0.325 N 
HETATM    8  C   UNL     1       8.636  29.860  57.685  1.00  0.00     0.251 C 
HETATM    9  O   UNL     1       9.606  29.393  57.095  1.00  0.00    -0.270 OA
HETATM   10  H   UNL     1       6.647  30.006  58.080  1.00  0.00     0.169 HD
BRANCH   8  11
HETATM   11  C   UNL     1       8.821  30.910  58.792  1.00  0.00     0.217 C 
HETATM   12  C   UNL     1      10.195  31.551  58.636  1.00  0.00     0.050 C 
BRANCH  11  13
HETATM   13  O   UNL     1       7.851  31.963  58.680  1.00  0.00    -0.337 OA
BRANCH  13  14
HETATM   14  C   UNL     1       7.148  32.163  59.838  1.00  0.00     0.070 A 
HETATM   15  C   UNL     1       7.889  32.316  61.008  1.00  0.00     0.043 A 
HETATM   16  C   UNL     1       7.241  32.530  62.230  1.00  0.00    -0.059 A 
HETATM   17  C   UNL     1       8.023  32.689  63.500  1.00  0.00     0.048 C 
HETATM   18  C   UNL     1       5.843  32.626  62.251  1.00  0.00     0.013 A 
HETATM   19  C   UNL     1       5.094  32.500  61.072  1.00  0.00    -0.059 A 
HETATM   20  C   UNL     1       5.757  32.276  59.860  1.00  0.00     0.043 A 
HETATM   21  C   UNL     1       3.600  32.637  61.119  1.00  0.00     0.048 C 
ENDBRANCH  13  14
ENDBRANCH  11  13
ENDBRANCH   8  11
ENDBRANCH   1   7
BRANCH   3  22
HETATM   22  C   UNL     1       6.900  25.195  55.097  1.00  0.00     0.181 A 
HETATM   23  O   UNL     1       7.148  24.777  53.812  1.00  0.00    -0.289 OA
HETATM   24  C   UNL     1       7.447  23.455  53.946  1.00  0.00     0.106 A 
HETATM   25  C   UNL     1       7.368  23.136  55.291  1.00  0.00     0.093 A 
HETATM   26  C   UNL     1       7.776  22.560  52.936  1.00  0.00     0.040 A 
HETATM   27  N   UNL     1       7.014  24.247  56.013  1.00  0.00    -0.221 NA
HETATM   28  C   UNL     1       7.640  21.822  55.692  1.00  0.00     0.034 A 
HETATM   29  C   UNL     1       7.981  20.886  54.703  1.00  0.00     0.002 A 
HETATM   30  C   UNL     1       8.045  21.249  53.351  1.00  0.00     0.003 A 
ENDBRANCH   3  22
TORSDOF 5
ENDMDL
MODEL 10
REMARK VINA RESULT:      -9.7      5.608      9.956
REMARK  5 active torsions:
REMARK  status: ('A' for Active; 'I' for Inactive)
REMARK    1  A    between atoms: C_4  and  O_5 
REMARK    2  A    between atoms: O_5  and  C_6 
REMARK    3  A    between atoms: C_6  and  C_7 
REMARK       I    between atoms: C_7  and  N_8 
REMARK    4  A    between atoms: N_8  and  C_9 
REMARK    5  A    between atoms: C_11  and  C_12 
ROOT
HETATM    1  C   UNL     1       4.775  27.345  53.451  1.00  0.00     0.035 A 
HETATM    2  C   UNL     1       5.408  26.104  53.321  1.00  0.00     0.045 A 
HETATM    3  C   UNL     1       5.951  25.445  54.438  1.00  0.00     0.019 A 
HETATM    4  C   UNL     1       5.843  26.054  55.697  1.00  0.00     0.016 A 
HETATM    5  C   UNL     1       5.209  27.286  55.839  1.00  0.00     0.003 A 
HETATM    6  C   UNL     1       4.677  27.928  54.720  1.00  0.00     0.029 A 
ENDROOT
BRANCH   1   7
HETATM    7  N   UNL     1       4.212  28.057  52.375  1.00  0.00    -0.325 N 
HETATM    8  C   UNL     1       4.834  28.955  51.524  1.00  0.00     0.251 C 
HETATM    9  O   UNL     1       6.008  29.313  51.570  1.00  0.00    -0.270 OA
HETATM   10  H   UNL     1       3.211  27.951  52.225  1.00  0.00     0.169 HD
BRANCH   8  11
HETATM   11  C   UNL     1       3.904  29.456  50.407  1.00  0.00     0.217 C 
HETATM   12  C   UNL     1       3.915  30.980  50.406  1.00  0.00     0.050 C 
BRANCH  11  13
HETATM   13  O   UNL     1       4.363  29.031  49.115  1.00  0.00    -0.337 OA
BRANCH  13  14
HETATM   14  C   UNL     1       3.517  28.137  48.517  1.00  0.00     0.070 A 
HETATM   15  C   UNL     1       2.473  28.665  47.760  1.00  0.00     0.043 A 
HETATM   16  C   UNL     1       1.569  27.813  47.114  1.00  0.00    -0.059 A 
HETATM   17  C   UNL     1       0.436  28.365  46.301  1.00  0.00     0.048 C 
HETATM   18  C   UNL     1       1.754  26.427  47.209  1.00  0.00     0.013 A 
HETATM   19  C   UNL     1       2.818  25.890  47.949  1.00  0.00    -0.059 A 
HETATM   20  C   UNL     1       3.707  26.756  48.596  1.00  0.00     0.043 A 
HETATM   21  C   UNL     1       3.010  24.403  48.009  1.00  0.00     0.048 C 
ENDBRANCH  13  14
ENDBRANCH  11  13
ENDBRANCH   8  11
ENDBRANCH   1   7
BRANCH   3  22
HETATM   22  C   UNL     1       6.625  24.153  54.321  1.00  0.00     0.181 A 
HETATM   23  O   UNL     1       6.897  23.491  55.493  1.00  0.00    -0.289 OA
HETATM   24  C   UNL     1       7.512  22.344  55.091  1.00  0.00     0.106 A 
HETATM   25  C   UNL     1       7.583  22.364  53.708  1.00  0.00     0.093 A 
HETATM   26  C   UNL     1       7.993  21.320  55.896  1.00  0.00     0.040 A 
HETATM   27  N   UNL     1       7.022  23.520  53.229  1.00  0.00    -0.221 NA
HETATM   28  C   UNL     1       8.173  21.280  53.046  1.00  0.00     0.034 A 
HETATM   29  C   UNL     1       8.670  20.221  53.822  1.00  0.00     0.002 A 
HETATM   30  C   UNL     1       8.582  20.243  55.220  1.00  0.00     0.003 A 
ENDBRANCH   3  22
TORSDOF 5
ENDMDL
