MODEL 1
REMARK VINA RESULT:     -10.2      0.000      0.000
REMARK  2 active torsions:
REMARK  status: ('A' for Active; 'I' for Inactive)
REMARK       I    between atoms: N_4  and  C_5 
REMARK       I    between atoms: C_5  and  N_6 
REMARK    1  A    between atoms: N_6  and  C_7 
REMARK    2  A    between atoms: C_20  and  C_21 
ROOT
HETATM    1  C   UNL     1       4.995  26.305  50.493  1.00  0.00     0.011 C 
HETATM    2  C   UNL     1       5.780  25.825  51.700  1.00  0.00     0.002 C 
HETATM    3  C   UNL     1       6.027  26.918  52.735  1.00  0.00     0.132 C 
HETATM    4  N   UNL     1       6.179  26.208  53.998  1.00  0.00    -0.325 N 
HETATM    5  C   UNL     1       6.628  26.718  55.199  1.00  0.00     0.323 C 
HETATM    6  N   UNL     1       6.891  28.069  55.172  1.00  0.00    -0.309 N 
HETATM    7  O   UNL     1       6.783  26.005  56.188  1.00  0.00    -0.247 OA
HETATM    8  C   UNL     1       5.757  24.808  53.883  1.00  0.00     0.125 C 
HETATM    9  C   UNL     1       5.047  24.759  52.519  1.00  0.00     0.036 C 
HETATM   10  H   UNL     1       6.306  28.612  54.557  1.00  0.00     0.170 HD
ENDROOT
BRANCH   6  11
HETATM   11  C   UNL     1       7.664  28.779  56.112  1.00  0.00     0.038 A 
HETATM   12  C   UNL     1       7.188  29.103  57.387  1.00  0.00     0.062 A 
HETATM   13  C   UNL     1       8.021  29.751  58.302  1.00  0.00     0.070 A 
HETATM   14  C   UNL     1       9.326  30.091  57.952  1.00  0.00     0.096 A 
HETATM   15  N   UNL     1       7.550  30.006  59.589  1.00  0.00    -0.323 N 
HETATM   16  O   UNL     1      10.210  30.697  58.799  1.00  0.00    -0.335 OA
HETATM   17  C   UNL     1       9.807  29.764  56.685  1.00  0.00     0.041 A 
HETATM   18  C   UNL     1       9.645  31.215  60.002  1.00  0.00     0.217 C 
HETATM   19  C   UNL     1       8.320  30.639  60.523  1.00  0.00     0.251 C 
HETATM   20  C   UNL     1       9.493  32.726  59.843  1.00  0.00     0.050 C 
HETATM   21  O   UNL     1       7.929  30.790  61.678  1.00  0.00    -0.270 OA
HETATM   22  C   UNL     1       8.982  29.102  55.771  1.00  0.00     0.032 A 
HETATM   23  H   UNL     1       6.637  29.683  59.882  1.00  0.00     0.169 HD
ENDBRANCH   6  11
BRANCH   8  24
HETATM   24  C   UNL     1       6.882  23.795  53.964  1.00  0.00     0.003 A 
HETATM   25  C   UNL     1       7.146  23.187  55.198  1.00  0.00     0.124 A 
HETATM   26  F   UNL     1       6.392  23.495  56.265  1.00  0.00    -0.205 F 
HETATM   27  C   UNL     1       8.170  22.258  55.354  1.00  0.00     0.043 A 
HETATM   28  C   UNL     1       8.958  21.910  54.259  1.00  0.00     0.003 A 
HETATM   29  C   UNL     1       8.708  22.492  53.017  1.00  0.00     0.001 A 
HETATM   30  C   UNL     1       7.677  23.424  52.868  1.00  0.00     0.012 A 
ENDBRANCH   8  24
TORSDOF 2
ENDMDL
MODEL 2
REMARK VINA RESULT:     -10.0      4.899      7.809
REMARK  2 active torsions:
REMARK  status: ('A' for Active; 'I' for Inactive)
REMARK       I    between atoms: N_4  and  C_5 
REMARK       I    between atoms: C_5  and  N_6 
REMARK    1  A    between atoms: N_6  and  C_7 
REMARK    2  A    between atoms: C_20  and  C_21 
ROOT
HETATM    1  C   UNL     1       5.736  31.663  50.202  1.00  0.00     0.011 C 
HETATM    2  C   UNL     1       5.332  30.201  50.140  1.00  0.00     0.002 C 
HETATM    3  C   UNL     1       5.862  29.377  51.310  1.00  0.00     0.132 C 
HETATM    4  N   UNL     1       4.920  28.274  51.444  1.00  0.00    -0.325 N 
HETATM    5  C   UNL     1       5.064  27.136  52.212  1.00  0.00     0.323 C 
HETATM    6  N   UNL     1       6.215  27.111  52.969  1.00  0.00    -0.309 N 
HETATM    7  O   UNL     1       4.231  26.233  52.195  1.00  0.00    -0.247 OA
HETATM    8  C   UNL     1       3.703  28.505  50.659  1.00  0.00     0.125 C 
HETATM    9  C   UNL     1       3.820  29.982  50.244  1.00  0.00     0.036 C 
HETATM   10  H   UNL     1       6.539  28.008  53.294  1.00  0.00     0.170 HD
ENDROOT
BRANCH   6  11
HETATM   11  C   UNL     1       6.787  25.970  53.564  1.00  0.00     0.038 A 
HETATM   12  C   UNL     1       6.934  24.758  52.882  1.00  0.00     0.062 A 
HETATM   13  C   UNL     1       7.569  23.679  53.499  1.00  0.00     0.070 A 
HETATM   14  C   UNL     1       8.049  23.793  54.802  1.00  0.00     0.096 A 
HETATM   15  N   UNL     1       7.765  22.500  52.779  1.00  0.00    -0.323 N 
HETATM   16  O   UNL     1       8.707  22.793  55.463  1.00  0.00    -0.335 OA
HETATM   17  C   UNL     1       7.911  25.000  55.484  1.00  0.00     0.041 A 
HETATM   18  C   UNL     1       8.650  21.511  54.843  1.00  0.00     0.217 C 
HETATM   19  C   UNL     1       8.377  21.413  53.335  1.00  0.00     0.251 C 
HETATM   20  C   UNL     1       7.612  20.671  55.584  1.00  0.00     0.050 C 
HETATM   21  O   UNL     1       8.617  20.407  52.671  1.00  0.00    -0.270 OA
HETATM   22  C   UNL     1       7.290  26.088  54.864  1.00  0.00     0.032 A 
HETATM   23  H   UNL     1       7.502  22.437  51.805  1.00  0.00     0.169 HD
ENDBRANCH   6  11
BRANCH   8  24
HETATM   24  C   UNL     1       3.540  27.597  49.455  1.00  0.00     0.003 A 
HETATM   25  C   UNL     1       2.265  27.461  48.891  1.00  0.00     0.124 A 
HETATM   26  F   UNL     1       1.233  28.144  49.406  1.00  0.00    -0.205 F 
HETATM   27  C   UNL     1       2.035  26.636  47.793  1.00  0.00     0.043 A 
HETATM   28  C   UNL     1       3.093  25.926  47.229  1.00  0.00     0.003 A 
HETATM   29  C   UNL     1       4.373  26.054  47.766  1.00  0.00     0.001 A 
HETATM   30  C   UNL     1       4.597  26.885  48.868  1.00  0.00     0.012 A 
ENDBRANCH   8  24
TORSDOF 2
ENDMDL
MODEL 3
REMARK VINA RESULT:      -9.9      3.849      8.186
REMARK  2 active torsions:
REMARK  status: ('A' for Active; 'I' for Inactive)
REMARK       I    between atoms: N_4  and  C_5 
REMARK       I    between atoms: C_5  and  N_6 
REMARK    1  A    between atoms: N_6  and  C_7 
REMARK    2  A    between atoms: C_20  and  C_21 
ROOT
HETATM    1  C   UNL     1       8.711  22.251  53.646  1.00  0.00     0.011 C 
HETATM    2  C   UNL     1       8.052  23.607  53.823  1.00  0.00     0.002 C 
HETATM    3  C   UNL     1       7.203  24.028  52.628  1.00  0.00     0.132 C 
HETATM    4  N   UNL     1       6.206  24.935  53.182  1.00  0.00    -0.325 N 
HETATM    5  C   UNL     1       5.338  25.753  52.487  1.00  0.00     0.323 C 
HETATM    6  N   UNL     1       5.413  25.618  51.118  1.00  0.00    -0.309 N 
HETATM    7  O   UNL     1       4.583  26.533  53.062  1.00  0.00    -0.247 OA
HETATM    8  C   UNL     1       6.181  24.880  54.647  1.00  0.00     0.125 C 
HETATM    9  C   UNL     1       7.042  23.648  54.974  1.00  0.00     0.036 C 
HETATM   10  H   UNL     1       5.644  24.696  50.786  1.00  0.00     0.170 HD
ENDROOT
BRANCH   6  11
HETATM   11  C   UNL     1       4.918  26.534  50.170  1.00  0.00     0.038 A 
HETATM   12  C   UNL     1       5.323  27.872  50.132  1.00  0.00     0.062 A 
HETATM   13  C   UNL     1       4.849  28.720  49.129  1.00  0.00     0.070 A 
HETATM   14  C   UNL     1       3.962  28.246  48.165  1.00  0.00     0.096 A 
HETATM   15  N   UNL     1       5.316  30.033  49.069  1.00  0.00    -0.323 N 
HETATM   16  O   UNL     1       3.477  29.004  47.136  1.00  0.00    -0.335 OA
HETATM   17  C   UNL     1       3.560  26.912  48.194  1.00  0.00     0.041 A 
HETATM   18  C   UNL     1       3.721  30.405  47.242  1.00  0.00     0.217 C 
HETATM   19  C   UNL     1       4.884  30.905  48.111  1.00  0.00     0.251 C 
HETATM   20  C   UNL     1       2.434  31.076  47.713  1.00  0.00     0.050 C 
HETATM   21  O   UNL     1       5.359  32.035  48.016  1.00  0.00    -0.270 OA
HETATM   22  C   UNL     1       4.044  26.056  49.187  1.00  0.00     0.032 A 
HETATM   23  H   UNL     1       6.028  30.360  49.708  1.00  0.00     0.169 HD
ENDBRANCH   6  11
BRANCH   8  24
HETATM   24  C   UNL     1       6.702  26.125  55.339  1.00  0.00     0.003 A 
HETATM   25  C   UNL     1       6.410  26.305  56.697  1.00  0.00     0.124 A 
HETATM   26  F   UNL     1       5.704  25.373  57.354  1.00  0.00    -0.205 F 
HETATM   27  C   UNL     1       6.843  27.428  57.397  1.00  0.00     0.043 A 
HETATM   28  C   UNL     1       7.590  28.404  56.742  1.00  0.00     0.003 A 
HETATM   29  C   UNL     1       7.904  28.242  55.393  1.00  0.00     0.001 A 
HETATM   30  C   UNL     1       7.467  27.112  54.696  1.00  0.00     0.012 A 
ENDBRANCH   8  24
TORSDOF 2
ENDMDL
MODEL 4
REMARK VINA RESULT:      -9.9      2.684      4.123
REMARK  2 active torsions:
REMARK  status: ('A' for Active; 'I' for Inactive)
REMARK       I    between atoms: N_4  and  C_5 
REMARK       I    between atoms: C_5  and  N_6 
REMARK    1  A    between atoms: N_6  and  C_7 
REMARK    2  A    between atoms: C_20  and  C_21 
ROOT
HETATM    1  C   UNL     1       8.224  22.072  57.062  1.00  0.00     0.011 C 
HETATM    2  C   UNL     1       7.711  23.240  56.239  1.00  0.00     0.002 C 
HETATM    3  C   UNL     1       7.898  24.590  56.923  1.00  0.00     0.132 C 
HETATM    4  N   UNL     1       7.971  25.553  55.831  1.00  0.00    -0.325 N 
HETATM    5  C   UNL     1       7.923  26.929  55.921  1.00  0.00     0.323 C 
HETATM    6  N   UNL     1       7.862  27.406  57.212  1.00  0.00    -0.309 N 
HETATM    7  O   UNL     1       7.923  27.644  54.922  1.00  0.00    -0.247 OA
HETATM    8  C   UNL     1       8.141  24.887  54.535  1.00  0.00     0.125 C 
HETATM    9  C   UNL     1       8.465  23.433  54.920  1.00  0.00     0.036 C 
HETATM   10  H   UNL     1       8.344  26.851  57.902  1.00  0.00     0.170 HD
ENDROOT
BRANCH   6  11
HETATM   11  C   UNL     1       7.467  28.702  57.596  1.00  0.00     0.038 A 
HETATM   12  C   UNL     1       6.125  29.079  57.707  1.00  0.00     0.062 A 
HETATM   13  C   UNL     1       5.791  30.358  58.156  1.00  0.00     0.070 A 
HETATM   14  C   UNL     1       6.788  31.274  58.485  1.00  0.00     0.096 A 
HETATM   15  N   UNL     1       4.447  30.692  58.323  1.00  0.00    -0.323 N 
HETATM   16  O   UNL     1       6.541  32.532  58.958  1.00  0.00    -0.335 OA
HETATM   17  C   UNL     1       8.127  30.902  58.382  1.00  0.00     0.041 A 
HETATM   18  C   UNL     1       5.189  32.970  58.854  1.00  0.00     0.217 C 
HETATM   19  C   UNL     1       4.064  31.929  58.756  1.00  0.00     0.251 C 
HETATM   20  C   UNL     1       5.086  33.914  57.658  1.00  0.00     0.050 C 
HETATM   21  O   UNL     1       2.883  32.191  58.977  1.00  0.00    -0.270 OA
HETATM   22  C   UNL     1       8.466  29.617  57.948  1.00  0.00     0.032 A 
HETATM   23  H   UNL     1       3.719  30.006  58.175  1.00  0.00     0.169 HD
ENDBRANCH   6  11
BRANCH   8  24
HETATM   24  C   UNL     1       6.938  24.967  53.616  1.00  0.00     0.003 A 
HETATM   25  C   UNL     1       7.156  25.195  52.251  1.00  0.00     0.124 A 
HETATM   26  F   UNL     1       8.409  25.313  51.789  1.00  0.00    -0.205 F 
HETATM   27  C   UNL     1       6.101  25.293  51.347  1.00  0.00     0.043 A 
HETATM   28  C   UNL     1       4.791  25.159  51.799  1.00  0.00     0.003 A 
HETATM   29  C   UNL     1       4.548  24.920  53.152  1.00  0.00     0.001 A 
HETATM   30  C   UNL     1       5.612  24.822  54.053  1.00  0.00     0.012 A 
ENDBRANCH   8  24
TORSDOF 2
ENDMDL
MODEL 5
REMARK VINA RESULT:      -9.7      4.326      7.546
REMARK  2 active torsions:
REMARK  status: ('A' for Active; 'I' for Inactive)
REMARK       I    between atoms: N_4  and  C_5 
REMARK       I    between atoms: C_5  and  N_6 
REMARK    1  A    between atoms: N_6  and  C_7 
REMARK    2  A    between atoms: C_20  and  C_21 
ROOT
HETATM    1  C   UNL     1       2.281  25.686  46.431  1.00  0.00     0.011 C 
HETATM    2  C   UNL     1       2.646  26.624  47.567  1.00  0.00     0.002 C 
HETATM    3  C   UNL     1       3.659  26.029  48.541  1.00  0.00     0.132 C 
HETATM    4  N   UNL     1       4.340  27.181  49.118  1.00  0.00    -0.325 N 
HETATM    5  C   UNL     1       5.192  27.194  50.204  1.00  0.00     0.323 C 
HETATM    6  N   UNL     1       5.449  25.949  50.732  1.00  0.00    -0.309 N 
HETATM    7  O   UNL     1       5.657  28.241  50.649  1.00  0.00    -0.247 OA
HETATM    8  C   UNL     1       4.043  28.411  48.376  1.00  0.00     0.125 C 
HETATM    9  C   UNL     1       3.350  27.901  47.101  1.00  0.00     0.036 C 
HETATM   10  H   UNL     1       5.457  25.190  50.068  1.00  0.00     0.170 HD
ENDROOT
BRANCH   6  11
HETATM   11  C   UNL     1       5.984  25.687  52.008  1.00  0.00     0.038 A 
HETATM   12  C   UNL     1       5.231  25.810  53.180  1.00  0.00     0.062 A 
HETATM   13  C   UNL     1       5.793  25.474  54.413  1.00  0.00     0.070 A 
HETATM   14  C   UNL     1       7.110  25.025  54.490  1.00  0.00     0.096 A 
HETATM   15  N   UNL     1       5.005  25.540  55.562  1.00  0.00    -0.323 N 
HETATM   16  O   UNL     1       7.720  24.649  55.654  1.00  0.00    -0.335 OA
HETATM   17  C   UNL     1       7.862  24.894  53.325  1.00  0.00     0.041 A 
HETATM   18  C   UNL     1       7.020  24.990  56.848  1.00  0.00     0.217 C 
HETATM   19  C   UNL     1       5.504  25.226  56.793  1.00  0.00     0.251 C 
HETATM   20  C   UNL     1       7.686  26.223  57.453  1.00  0.00     0.050 C 
HETATM   21  O   UNL     1       4.784  25.210  57.789  1.00  0.00    -0.270 OA
HETATM   22  C   UNL     1       7.299  25.215  52.086  1.00  0.00     0.032 A 
HETATM   23  H   UNL     1       4.023  25.777  55.505  1.00  0.00     0.169 HD
ENDBRANCH   6  11
BRANCH   8  24
HETATM   24  C   UNL     1       3.179  29.411  49.120  1.00  0.00     0.003 A 
HETATM   25  C   UNL     1       3.640  30.727  49.245  1.00  0.00     0.124 A 
HETATM   26  F   UNL     1       4.811  31.077  48.692  1.00  0.00    -0.205 F 
HETATM   27  C   UNL     1       2.909  31.698  49.925  1.00  0.00     0.043 A 
HETATM   28  C   UNL     1       1.683  31.364  50.495  1.00  0.00     0.003 A 
HETATM   29  C   UNL     1       1.197  30.062  50.375  1.00  0.00     0.001 A 
HETATM   30  C   UNL     1       1.937  29.093  49.691  1.00  0.00     0.012 A 
ENDBRANCH   8  24
TORSDOF 2
ENDMDL
MODEL 6
REMARK VINA RESULT:      -9.6      4.516      7.679
REMARK  2 active torsions:
REMARK  status: ('A' for Active; 'I' for Inactive)
REMARK       I    between atoms: N_4  and  C_5 
REMARK       I    between atoms: C_5  and  N_6 
REMARK    1  A    between atoms: N_6  and  C_7 
REMARK    2  A    between atoms: C_20  and  C_21 
ROOT
HETATM    1  C   UNL     1       4.882  25.416  57.708  1.00  0.00     0.011 C 
HETATM    2  C   UNL     1       5.609  25.079  56.419  1.00  0.00     0.002 C 
HETATM    3  C   UNL     1       5.323  26.062  55.288  1.00  0.00     0.132 C 
HETATM    4  N   UNL     1       6.498  25.993  54.428  1.00  0.00    -0.325 N 
HETATM    5  C   UNL     1       6.645  26.526  53.164  1.00  0.00     0.323 C 
HETATM    6  N   UNL     1       5.558  27.250  52.729  1.00  0.00    -0.309 N 
HETATM    7  O   UNL     1       7.662  26.345  52.499  1.00  0.00    -0.247 OA
HETATM    8  C   UNL     1       7.602  25.280  55.081  1.00  0.00     0.125 C 
HETATM    9  C   UNL     1       7.134  25.155  56.541  1.00  0.00     0.036 C 
HETATM   10  H   UNL     1       5.047  27.738  53.448  1.00  0.00     0.170 HD
ENDROOT
BRANCH   6  11
HETATM   11  C   UNL     1       5.284  27.609  51.395  1.00  0.00     0.038 A 
HETATM   12  C   UNL     1       5.305  28.935  50.952  1.00  0.00     0.062 A 
HETATM   13  C   UNL     1       5.090  29.227  49.604  1.00  0.00     0.070 A 
HETATM   14  C   UNL     1       4.841  28.205  48.690  1.00  0.00     0.096 A 
HETATM   15  N   UNL     1       5.180  30.550  49.170  1.00  0.00    -0.323 N 
HETATM   16  O   UNL     1       4.651  28.407  47.352  1.00  0.00    -0.335 OA
HETATM   17  C   UNL     1       4.826  26.881  49.125  1.00  0.00     0.041 A 
HETATM   18  C   UNL     1       4.456  29.764  46.961  1.00  0.00     0.217 C 
HETATM   19  C   UNL     1       4.977  30.892  47.864  1.00  0.00     0.251 C 
HETATM   20  C   UNL     1       2.964  29.979  46.722  1.00  0.00     0.050 C 
HETATM   21  O   UNL     1       5.136  32.047  47.474  1.00  0.00    -0.270 OA
HETATM   22  C   UNL     1       5.056  26.583  50.472  1.00  0.00     0.032 A 
HETATM   23  H   UNL     1       5.450  31.288  49.807  1.00  0.00     0.169 HD
ENDBRANCH   6  11
BRANCH   8  24
HETATM   24  C   UNL     1       7.928  23.926  54.480  1.00  0.00     0.003 A 
HETATM   25  C   UNL     1       8.984  23.189  55.031  1.00  0.00     0.124 A 
HETATM   26  F   UNL     1       9.661  23.680  56.079  1.00  0.00    -0.205 F 
HETATM   27  C   UNL     1       9.351  21.945  54.526  1.00  0.00     0.043 A 
HETATM   28  C   UNL     1       8.654  21.405  53.448  1.00  0.00     0.003 A 
HETATM   29  C   UNL     1       7.591  22.115  52.889  1.00  0.00     0.001 A 
HETATM   30  C   UNL     1       7.228  23.364  53.402  1.00  0.00     0.012 A 
ENDBRANCH   8  24
TORSDOF 2
ENDMDL
MODEL 7
REMARK VINA RESULT:      -9.4      3.189      8.369
REMARK  2 active torsions:
REMARK  status: ('A' for Active; 'I' for Inactive)
REMARK       I    between atoms: N_4  and  C_5 
REMARK       I    between atoms: C_5  and  N_6 
REMARK    1  A    between atoms: N_6  and  C_7 
REMARK    2  A    between atoms: C_20  and  C_21 
ROOT
HETATM    1  C   UNL     1       9.790  31.381  58.532  1.00  0.00     0.011 C 
HETATM    2  C   UNL     1       8.577  30.745  57.877  1.00  0.00     0.002 C 
HETATM    3  C   UNL     1       8.751  29.256  57.597  1.00  0.00     0.132 C 
HETATM    4  N   UNL     1       7.397  28.716  57.598  1.00  0.00    -0.325 N 
HETATM    5  C   UNL     1       6.994  27.463  57.184  1.00  0.00     0.323 C 
HETATM    6  N   UNL     1       8.027  26.640  56.793  1.00  0.00    -0.309 N 
HETATM    7  O   UNL     1       5.809  27.138  57.164  1.00  0.00    -0.247 OA
HETATM    8  C   UNL     1       6.434  29.678  58.142  1.00  0.00     0.125 C 
HETATM    9  C   UNL     1       7.326  30.768  58.761  1.00  0.00     0.036 C 
HETATM   10  H   UNL     1       8.897  26.776  57.282  1.00  0.00     0.170 HD
ENDROOT
BRANCH   6  11
HETATM   11  C   UNL     1       7.903  25.468  56.022  1.00  0.00     0.038 A 
HETATM   12  C   UNL     1       8.232  24.203  56.517  1.00  0.00     0.062 A 
HETATM   13  C   UNL     1       8.027  23.067  55.730  1.00  0.00     0.070 A 
HETATM   14  C   UNL     1       7.505  23.184  54.443  1.00  0.00     0.096 A 
HETATM   15  N   UNL     1       8.299  21.809  56.266  1.00  0.00    -0.323 N 
HETATM   16  O   UNL     1       7.249  22.121  53.625  1.00  0.00    -0.335 OA
HETATM   17  C   UNL     1       7.170  24.443  53.948  1.00  0.00     0.041 A 
HETATM   18  C   UNL     1       7.792  20.874  54.054  1.00  0.00     0.217 C 
HETATM   19  C   UNL     1       8.119  20.666  55.540  1.00  0.00     0.251 C 
HETATM   20  C   UNL     1       9.048  20.596  53.233  1.00  0.00     0.050 C 
HETATM   21  O   UNL     1       8.285  19.557  56.044  1.00  0.00    -0.270 OA
HETATM   22  C   UNL     1       7.359  25.581  54.737  1.00  0.00     0.032 A 
HETATM   23  H   UNL     1       8.591  21.706  57.229  1.00  0.00     0.169 HD
ENDBRANCH   6  11
BRANCH   8  24
HETATM   24  C   UNL     1       5.469  30.257  57.125  1.00  0.00     0.003 A 
HETATM   25  C   UNL     1       4.267  30.809  57.585  1.00  0.00     0.124 A 
HETATM   26  F   UNL     1       4.007  30.834  58.901  1.00  0.00    -0.205 F 
HETATM   27  C   UNL     1       3.326  31.348  56.712  1.00  0.00     0.043 A 
HETATM   28  C   UNL     1       3.578  31.348  55.342  1.00  0.00     0.003 A 
HETATM   29  C   UNL     1       4.773  30.814  54.859  1.00  0.00     0.001 A 
HETATM   30  C   UNL     1       5.713  30.275  55.743  1.00  0.00     0.012 A 
ENDBRANCH   8  24
TORSDOF 2
ENDMDL
MODEL 8
REMARK VINA RESULT:      -9.3      3.511      8.206
REMARK  2 active torsions:
REMARK  status: ('A' for Active; 'I' for Inactive)
REMARK       I    between atoms: N_4  and  C_5 
REMARK       I    between atoms: C_5  and  N_6 
REMARK    1  A    between atoms: N_6  and  C_7 
REMARK    2  A    between atoms: C_20  and  C_21 
ROOT
HETATM    1  C   UNL     1       8.545  23.709  57.337  1.00  0.00     0.011 C 
HETATM    2  C   UNL     1       8.387  25.171  56.961  1.00  0.00     0.002 C 
HETATM    3  C   UNL     1       7.345  25.406  55.872  1.00  0.00     0.132 C 
HETATM    4  N   UNL     1       6.879  26.770  56.090  1.00  0.00    -0.325 N 
HETATM    5  C   UNL     1       6.096  27.533  55.249  1.00  0.00     0.323 C 
HETATM    6  N   UNL     1       5.677  26.872  54.116  1.00  0.00    -0.309 N 
HETATM    7  O   UNL     1       5.820  28.703  55.505  1.00  0.00    -0.247 OA
HETATM    8  C   UNL     1       7.323  27.290  57.388  1.00  0.00     0.125 C 
HETATM    9  C   UNL     1       7.864  26.042  58.107  1.00  0.00     0.036 C 
HETATM   10  H   UNL     1       5.519  25.883  54.226  1.00  0.00     0.170 HD
ENDROOT
BRANCH   6  11
HETATM   11  C   UNL     1       5.173  27.474  52.947  1.00  0.00     0.038 A 
HETATM   12  C   UNL     1       5.707  27.219  51.679  1.00  0.00     0.062 A 
HETATM   13  C   UNL     1       5.126  27.793  50.546  1.00  0.00     0.070 A 
HETATM   14  C   UNL     1       4.020  28.632  50.667  1.00  0.00     0.096 A 
HETATM   15  N   UNL     1       5.631  27.474  49.286  1.00  0.00    -0.323 N 
HETATM   16  O   UNL     1       3.379  29.207  49.606  1.00  0.00    -0.335 OA
HETATM   17  C   UNL     1       3.481  28.884  51.927  1.00  0.00     0.041 A 
HETATM   18  C   UNL     1       4.063  29.117  48.358  1.00  0.00     0.217 C 
HETATM   19  C   UNL     1       5.104  28.008  48.146  1.00  0.00     0.251 C 
HETATM   20  C   UNL     1       4.722  30.466  48.080  1.00  0.00     0.050 C 
HETATM   21  O   UNL     1       5.501  27.662  47.035  1.00  0.00    -0.270 OA
HETATM   22  C   UNL     1       4.050  28.300  53.063  1.00  0.00     0.032 A 
HETATM   23  H   UNL     1       6.374  26.796  49.181  1.00  0.00     0.169 HD
ENDBRANCH   6  11
BRANCH   8  24
HETATM   24  C   UNL     1       8.367  28.387  57.310  1.00  0.00     0.003 A 
HETATM   25  C   UNL     1       8.142  29.573  58.019  1.00  0.00     0.124 A 
HETATM   26  F   UNL     1       7.032  29.704  58.761  1.00  0.00    -0.205 F 
HETATM   27  C   UNL     1       9.048  30.630  57.987  1.00  0.00     0.043 A 
HETATM   28  C   UNL     1      10.215  30.514  57.237  1.00  0.00     0.003 A 
HETATM   29  C   UNL     1      10.468  29.339  56.531  1.00  0.00     0.001 A 
HETATM   30  C   UNL     1       9.554  28.282  56.569  1.00  0.00     0.012 A 
ENDBRANCH   8  24
TORSDOF 2
ENDMDL
MODEL 9
REMARK VINA RESULT:      -8.8      4.714      7.522
REMARK  2 active torsions:
REMARK  status: ('A' for Active; 'I' for Inactive)
REMARK       I    between atoms: N_4  and  C_5 
REMARK       I    between atoms: C_5  and  N_6 
REMARK    1  A    between atoms: N_6  and  C_7 
REMARK    2  A    between atoms: C_20  and  C_21 
ROOT
HETATM    1  C   UNL     1       6.182  32.031  49.131  1.00  0.00     0.011 C 
HETATM    2  C   UNL     1       5.443  30.713  49.286  1.00  0.00     0.002 C 
HETATM    3  C   UNL     1       5.956  29.865  50.446  1.00  0.00     0.132 C 
HETATM    4  N   UNL     1       4.819  29.041  50.835  1.00  0.00    -0.325 N 
HETATM    5  C   UNL     1       4.822  27.958  51.690  1.00  0.00     0.323 C 
HETATM    6  N   UNL     1       6.046  27.700  52.267  1.00  0.00    -0.309 N 
HETATM    7  O   UNL     1       3.811  27.290  51.893  1.00  0.00    -0.247 OA
HETATM    8  C   UNL     1       3.575  29.513  50.218  1.00  0.00     0.125 C 
HETATM    9  C   UNL     1       3.961  30.882  49.635  1.00  0.00     0.036 C 
HETATM   10  H   UNL     1       6.620  28.509  52.443  1.00  0.00     0.170 HD
ENDROOT
BRANCH   6  11
HETATM   11  C   UNL     1       6.428  26.496  52.890  1.00  0.00     0.038 A 
HETATM   12  C   UNL     1       7.106  26.463  54.112  1.00  0.00     0.062 A 
HETATM   13  C   UNL     1       7.402  25.240  54.717  1.00  0.00     0.070 A 
HETATM   14  C   UNL     1       7.038  24.042  54.104  1.00  0.00     0.096 A 
HETATM   15  N   UNL     1       8.020  25.229  55.967  1.00  0.00    -0.323 N 
HETATM   16  O   UNL     1       7.266  22.808  54.645  1.00  0.00    -0.335 OA
HETATM   17  C   UNL     1       6.356  24.070  52.889  1.00  0.00     0.041 A 
HETATM   18  C   UNL     1       8.144  22.786  55.767  1.00  0.00     0.217 C 
HETATM   19  C   UNL     1       8.335  24.062  56.602  1.00  0.00     0.251 C 
HETATM   20  C   UNL     1       9.512  22.305  55.290  1.00  0.00     0.050 C 
HETATM   21  O   UNL     1       8.806  24.059  57.737  1.00  0.00    -0.270 OA
HETATM   22  C   UNL     1       6.044  25.293  52.288  1.00  0.00     0.032 A 
HETATM   23  H   UNL     1       8.206  26.091  56.462  1.00  0.00     0.169 HD
ENDBRANCH   6  11
BRANCH   8  24
HETATM   24  C   UNL     1       3.003  28.594  49.156  1.00  0.00     0.003 A 
HETATM   25  C   UNL     1       1.612  28.455  49.072  1.00  0.00     0.124 A 
HETATM   26  F   UNL     1       0.824  29.146  49.909  1.00  0.00    -0.205 F 
HETATM   27  C   UNL     1       1.014  27.621  48.132  1.00  0.00     0.043 A 
HETATM   28  C   UNL     1       1.809  26.903  47.242  1.00  0.00     0.003 A 
HETATM   29  C   UNL     1       3.197  27.033  47.297  1.00  0.00     0.001 A 
HETATM   30  C   UNL     1       3.790  27.873  48.244  1.00  0.00     0.012 A 
ENDBRANCH   8  24
TORSDOF 2
ENDMDL
MODEL 10
REMARK VINA RESULT:      -8.7      5.983     12.121
REMARK  2 active torsions:
REMARK  status: ('A' for Active; 'I' for Inactive)
REMARK       I    between atoms: N_4  and  C_5 
REMARK       I    between atoms: C_5  and  N_6 
REMARK    1  A    between atoms: N_6  and  C_7 
REMARK    2  A    between atoms: C_20  and  C_21 
ROOT
HETATM    1  C   UNL     1       5.035  34.428  67.364  1.00  0.00     0.011 C 
HETATM    2  C   UNL     1       5.190  34.934  65.941  1.00  0.00     0.002 C 
HETATM    3  C   UNL     1       5.606  33.847  64.955  1.00  0.00     0.132 C 
HETATM    4  N   UNL     1       5.100  34.301  63.666  1.00  0.00    -0.325 N 
HETATM    5  C   UNL     1       5.395  33.784  62.420  1.00  0.00     0.323 C 
HETATM    6  N   UNL     1       6.213  32.677  62.450  1.00  0.00    -0.309 N 
HETATM    7  O   UNL     1       4.962  34.294  61.389  1.00  0.00    -0.247 OA
HETATM    8  C   UNL     1       4.161  35.416  63.818  1.00  0.00     0.125 C 
HETATM    9  C   UNL     1       3.882  35.447  65.330  1.00  0.00     0.036 C 
HETATM   10  H   UNL     1       6.103  32.079  63.253  1.00  0.00     0.170 HD
ENDROOT
BRANCH   6  11
HETATM   11  C   UNL     1       6.941  32.159  61.361  1.00  0.00     0.038 A 
HETATM   12  C   UNL     1       6.324  31.545  60.267  1.00  0.00     0.062 A 
HETATM   13  C   UNL     1       7.091  31.108  59.184  1.00  0.00     0.070 A 
HETATM   14  C   UNL     1       8.475  31.268  59.189  1.00  0.00     0.096 A 
HETATM   15  N   UNL     1       6.451  30.558  58.074  1.00  0.00    -0.323 N 
HETATM   16  O   UNL     1       9.290  30.894  58.157  1.00  0.00    -0.335 OA
HETATM   17  C   UNL     1       9.094  31.885  60.274  1.00  0.00     0.041 A 
HETATM   18  C   UNL     1       8.678  30.078  57.161  1.00  0.00     0.217 C 
HETATM   19  C   UNL     1       7.152  30.112  56.990  1.00  0.00     0.251 C 
HETATM   20  C   UNL     1       9.111  28.634  57.399  1.00  0.00     0.050 C 
HETATM   21  O   UNL     1       6.578  29.702  55.983  1.00  0.00    -0.270 OA
HETATM   22  C   UNL     1       8.329  32.338  61.353  1.00  0.00     0.032 A 
HETATM   23  H   UNL     1       5.442  30.520  58.022  1.00  0.00     0.169 HD
ENDBRANCH   6  11
BRANCH   8  24
HETATM   24  C   UNL     1       4.673  36.753  63.317  1.00  0.00     0.003 A 
HETATM   25  C   UNL     1       3.905  37.452  62.378  1.00  0.00     0.124 A 
HETATM   26  F   UNL     1       2.736  36.942  61.963  1.00  0.00    -0.205 F 
HETATM   27  C   UNL     1       4.316  38.678  61.862  1.00  0.00     0.043 A 
HETATM   28  C   UNL     1       5.519  39.237  62.287  1.00  0.00     0.003 A 
HETATM   29  C   UNL     1       6.296  38.566  63.230  1.00  0.00     0.001 A 
HETATM   30  C   UNL     1       5.877  37.335  63.744  1.00  0.00     0.012 A 
ENDBRANCH   8  24
TORSDOF 2
ENDMDL
