MODEL 1
REMARK VINA RESULT:     -10.4      0.000      0.000
REMARK  6 active torsions:
REMARK  status: ('A' for Active; 'I' for Inactive)
REMARK    1  A    between atoms: C_2  and  C_3 
REMARK    2  A    between atoms: C_3  and  N_4 
REMARK       I    between atoms: N_4  and  C_5 
REMARK    3  A    between atoms: C_5  and  C_6 
REMARK    4  A    between atoms: C_8  and  C_9 
REMARK    5  A    between atoms: C_9  and  N_10 
REMARK       I    between atoms: N_10  and  C_11 
REMARK    6  A    between atoms: C_11  and  C_12 
ROOT
HETATM    1  C   UNL     1       7.217  27.578  57.513  1.00  0.00     0.161 C 
ENDROOT
BRANCH   1   2
HETATM    2  C   UNL     1       8.225  28.684  57.655  1.00  0.00    -0.040 A 
HETATM    3  C   UNL     1       8.010  29.717  58.577  1.00  0.00     0.026 A 
HETATM    4  C   UNL     1       8.995  30.687  58.790  1.00  0.00     0.032 A 
HETATM    5  C   UNL     1      10.185  30.663  58.058  1.00  0.00     0.017 A 
HETATM    6  C   UNL     1      10.389  29.658  57.113  1.00  0.00     0.002 A 
HETATM    7  C   UNL     1       9.418  28.672  56.916  1.00  0.00     0.009 A 
BRANCH   4   8
HETATM    8  C   UNL     1       8.757  31.702  59.840  1.00  0.00     0.252 C 
HETATM    9  N   UNL     1       7.878  31.312  60.828  1.00  0.00    -0.353 N 
HETATM   10  H   UNL     1       7.407  30.424  60.713  1.00  0.00     0.163 HD
HETATM   11  O   UNL     1       9.267  32.810  59.741  1.00  0.00    -0.268 OA
BRANCH   9  12
HETATM   12  C   UNL     1       7.348  32.215  61.844  1.00  0.00     0.080 C 
HETATM   13  C   UNL     1       5.840  32.045  62.017  1.00  0.00     0.032 C 
BRANCH  12  14
HETATM   14  C   UNL     1       8.078  32.105  63.195  1.00  0.00     0.020 C 
HETATM   15  C   UNL     1       7.670  33.190  64.182  1.00  0.00     0.007 C 
ENDBRANCH  12  14
ENDBRANCH   9  12
ENDBRANCH   4   8
ENDBRANCH   1   2
BRANCH   1  16
HETATM   16  N   UNL     1       7.605  26.586  56.550  1.00  0.00    -0.351 N 
HETATM   17  C   UNL     1       6.645  26.029  55.729  1.00  0.00     0.273 C 
HETATM   18  O   UNL     1       5.441  26.185  55.914  1.00  0.00    -0.266 OA
HETATM   19  H   UNL     1       8.561  26.528  56.212  1.00  0.00     0.163 HD
BRANCH  17  20
HETATM   20  C   UNL     1       7.193  25.269  54.595  1.00  0.00     0.157 A 
HETATM   21  N   UNL     1       7.442  25.848  53.400  1.00  0.00    -0.168 NA
HETATM   22  N   UNL     1       7.912  24.835  52.647  1.00  0.00    -0.277 N 
HETATM   23  H   UNL     1       8.179  25.032  51.689  1.00  0.00     0.189 HD
HETATM   24  C   UNL     1       7.957  23.626  53.286  1.00  0.00     0.063 A 
HETATM   25  C   UNL     1       7.496  23.875  54.571  1.00  0.00     0.029 A 
HETATM   26  C   UNL     1       8.351  22.358  52.851  1.00  0.00     0.032 A 
HETATM   27  C   UNL     1       7.416  22.806  55.484  1.00  0.00     0.023 A 
HETATM   28  C   UNL     1       7.803  21.516  55.080  1.00  0.00    -0.061 A 
HETATM   29  C   UNL     1       8.260  21.307  53.774  1.00  0.00     0.009 A 
HETATM   30  C   UNL     1       7.685  20.376  56.049  1.00  0.00     0.048 C 
ENDBRANCH  17  20
ENDBRANCH   1  16
TORSDOF 6
ENDMDL
MODEL 2
REMARK VINA RESULT:      -9.9      1.630      2.317
REMARK  6 active torsions:
REMARK  status: ('A' for Active; 'I' for Inactive)
REMARK    1  A    between atoms: C_2  and  C_3 
REMARK    2  A    between atoms: C_3  and  N_4 
REMARK       I    between atoms: N_4  and  C_5 
REMARK    3  A    between atoms: C_5  and  C_6 
REMARK    4  A    between atoms: C_8  and  C_9 
REMARK    5  A    between atoms: C_9  and  N_10 
REMARK       I    between atoms: N_10  and  C_11 
REMARK    6  A    between atoms: C_11  and  C_12 
ROOT
HETATM    1  C   UNL     1       7.024  27.577  57.391  1.00  0.00     0.161 C 
ENDROOT
BRANCH   1   2
HETATM    2  C   UNL     1       8.106  28.618  57.471  1.00  0.00    -0.040 A 
HETATM    3  C   UNL     1       8.050  29.617  58.452  1.00  0.00     0.026 A 
HETATM    4  C   UNL     1       9.108  30.519  58.599  1.00  0.00     0.032 A 
HETATM    5  C   UNL     1      10.213  30.464  57.745  1.00  0.00     0.017 A 
HETATM    6  C   UNL     1      10.257  29.495  56.743  1.00  0.00     0.002 A 
HETATM    7  C   UNL     1       9.214  28.575  56.610  1.00  0.00     0.009 A 
BRANCH   4   8
HETATM    8  C   UNL     1       9.041  31.496  59.709  1.00  0.00     0.252 C 
HETATM    9  N   UNL     1       7.928  31.376  60.514  1.00  0.00    -0.353 N 
HETATM   10  H   UNL     1       7.218  30.710  60.236  1.00  0.00     0.163 HD
HETATM   11  O   UNL     1       9.895  32.366  59.805  1.00  0.00    -0.268 OA
BRANCH   9  12
HETATM   12  C   UNL     1       7.559  32.348  61.537  1.00  0.00     0.080 C 
HETATM   13  C   UNL     1       6.045  32.416  61.729  1.00  0.00     0.032 C 
BRANCH  12  14
HETATM   14  C   UNL     1       8.280  32.122  62.878  1.00  0.00     0.020 C 
HETATM   15  C   UNL     1       7.746  33.005  63.998  1.00  0.00     0.007 C 
ENDBRANCH  12  14
ENDBRANCH   9  12
ENDBRANCH   4   8
ENDBRANCH   1   2
BRANCH   1  16
HETATM   16  N   UNL     1       7.449  26.377  56.727  1.00  0.00    -0.351 N 
HETATM   17  C   UNL     1       7.949  25.330  57.476  1.00  0.00     0.273 C 
HETATM   18  O   UNL     1       8.241  25.445  58.663  1.00  0.00    -0.266 OA
HETATM   19  H   UNL     1       7.091  26.130  55.809  1.00  0.00     0.163 HD
BRANCH  17  20
HETATM   20  C   UNL     1       8.060  24.063  56.738  1.00  0.00     0.157 A 
HETATM   21  N   UNL     1       8.333  22.895  57.360  1.00  0.00    -0.168 NA
HETATM   22  N   UNL     1       8.362  21.999  56.355  1.00  0.00    -0.277 N 
HETATM   23  H   UNL     1       8.547  21.028  56.583  1.00  0.00     0.189 HD
HETATM   24  C   UNL     1       8.144  22.530  55.114  1.00  0.00     0.063 A 
HETATM   25  C   UNL     1       7.938  23.885  55.328  1.00  0.00     0.029 A 
HETATM   26  C   UNL     1       8.119  21.948  53.844  1.00  0.00     0.032 A 
HETATM   27  C   UNL     1       7.691  24.720  54.220  1.00  0.00     0.023 A 
HETATM   28  C   UNL     1       7.660  24.167  52.928  1.00  0.00    -0.061 A 
HETATM   29  C   UNL     1       7.878  22.796  52.754  1.00  0.00     0.009 A 
HETATM   30  C   UNL     1       7.430  25.069  51.750  1.00  0.00     0.048 C 
ENDBRANCH  17  20
ENDBRANCH   1  16
TORSDOF 6
ENDMDL
MODEL 3
REMARK VINA RESULT:      -9.9      2.015      3.109
REMARK  6 active torsions:
REMARK  status: ('A' for Active; 'I' for Inactive)
REMARK    1  A    between atoms: C_2  and  C_3 
REMARK    2  A    between atoms: C_3  and  N_4 
REMARK       I    between atoms: N_4  and  C_5 
REMARK    3  A    between atoms: C_5  and  C_6 
REMARK    4  A    between atoms: C_8  and  C_9 
REMARK    5  A    between atoms: C_9  and  N_10 
REMARK       I    between atoms: N_10  and  C_11 
REMARK    6  A    between atoms: C_11  and  C_12 
ROOT
HETATM    1  C   UNL     1       5.445  27.492  55.032  1.00  0.00     0.161 C 
ENDROOT
BRANCH   1   2
HETATM    2  C   UNL     1       5.517  28.592  56.054  1.00  0.00    -0.040 A 
HETATM    3  C   UNL     1       6.591  28.649  56.952  1.00  0.00     0.026 A 
HETATM    4  C   UNL     1       6.719  29.731  57.829  1.00  0.00     0.032 A 
HETATM    5  C   UNL     1       5.759  30.746  57.849  1.00  0.00     0.017 A 
HETATM    6  C   UNL     1       4.668  30.676  56.983  1.00  0.00     0.002 A 
HETATM    7  C   UNL     1       4.551  29.610  56.087  1.00  0.00     0.009 A 
BRANCH   4   8
HETATM    8  C   UNL     1       7.920  29.789  58.692  1.00  0.00     0.252 C 
HETATM    9  N   UNL     1       7.737  30.456  59.885  1.00  0.00    -0.353 N 
HETATM   10  H   UNL     1       6.850  30.920  60.032  1.00  0.00     0.163 HD
HETATM   11  O   UNL     1       8.981  29.332  58.290  1.00  0.00    -0.268 OA
BRANCH   9  12
HETATM   12  C   UNL     1       8.824  30.804  60.793  1.00  0.00     0.080 C 
HETATM   13  C   UNL     1       9.510  32.105  60.378  1.00  0.00     0.032 C 
BRANCH  12  14
HETATM   14  C   UNL     1       8.391  30.851  62.269  1.00  0.00     0.020 C 
HETATM   15  C   UNL     1       8.333  32.267  62.829  1.00  0.00     0.007 C 
ENDBRANCH  12  14
ENDBRANCH   9  12
ENDBRANCH   4   8
ENDBRANCH   1   2
BRANCH   1  16
HETATM   16  N   UNL     1       5.870  26.221  55.546  1.00  0.00    -0.351 N 
HETATM   17  C   UNL     1       7.026  25.645  55.058  1.00  0.00     0.273 C 
HETATM   18  O   UNL     1       7.606  26.065  54.061  1.00  0.00    -0.266 OA
HETATM   19  H   UNL     1       5.569  25.897  56.462  1.00  0.00     0.163 HD
BRANCH  17  20
HETATM   20  C   UNL     1       7.520  24.516  55.861  1.00  0.00     0.157 A 
HETATM   21  N   UNL     1       7.805  24.644  57.176  1.00  0.00    -0.168 NA
HETATM   22  N   UNL     1       8.231  23.417  57.530  1.00  0.00    -0.277 N 
HETATM   23  H   UNL     1       8.502  23.262  58.495  1.00  0.00     0.189 HD
HETATM   24  C   UNL     1       8.258  22.508  56.508  1.00  0.00     0.063 A 
HETATM   25  C   UNL     1       7.793  23.195  55.396  1.00  0.00     0.029 A 
HETATM   26  C   UNL     1       8.651  21.168  56.465  1.00  0.00     0.032 A 
HETATM   27  C   UNL     1       7.711  22.519  54.163  1.00  0.00     0.023 A 
HETATM   28  C   UNL     1       8.099  21.170  54.084  1.00  0.00    -0.061 A 
HETATM   29  C   UNL     1       8.567  20.515  55.228  1.00  0.00     0.009 A 
HETATM   30  C   UNL     1       8.040  20.467  52.759  1.00  0.00     0.048 C 
ENDBRANCH  17  20
ENDBRANCH   1  16
TORSDOF 6
ENDMDL
MODEL 4
REMARK VINA RESULT:      -9.5      1.669      2.543
REMARK  6 active torsions:
REMARK  status: ('A' for Active; 'I' for Inactive)
REMARK    1  A    between atoms: C_2  and  C_3 
REMARK    2  A    between atoms: C_3  and  N_4 
REMARK       I    between atoms: N_4  and  C_5 
REMARK    3  A    between atoms: C_5  and  C_6 
REMARK    4  A    between atoms: C_8  and  C_9 
REMARK    5  A    between atoms: C_9  and  N_10 
REMARK       I    between atoms: N_10  and  C_11 
REMARK    6  A    between atoms: C_11  and  C_12 
ROOT
HETATM    1  C   UNL     1       7.452  27.974  55.732  1.00  0.00     0.161 C 
ENDROOT
BRANCH   1   2
HETATM    2  C   UNL     1       8.331  28.919  56.502  1.00  0.00    -0.040 A 
HETATM    3  C   UNL     1       7.950  29.352  57.780  1.00  0.00     0.026 A 
HETATM    4  C   UNL     1       8.814  30.142  58.543  1.00  0.00     0.032 A 
HETATM    5  C   UNL     1      10.049  30.544  58.027  1.00  0.00     0.017 A 
HETATM    6  C   UNL     1      10.419  30.148  56.742  1.00  0.00     0.002 A 
HETATM    7  C   UNL     1       9.568  29.336  55.987  1.00  0.00     0.009 A 
BRANCH   4   8
HETATM    8  C   UNL     1       8.403  30.495  59.920  1.00  0.00     0.252 C 
HETATM    9  N   UNL     1       7.275  31.283  59.998  1.00  0.00    -0.353 N 
HETATM   10  H   UNL     1       6.881  31.626  59.131  1.00  0.00     0.163 HD
HETATM   11  O   UNL     1       9.095  30.151  60.868  1.00  0.00    -0.268 OA
BRANCH   9  12
HETATM   12  C   UNL     1       6.808  31.910  61.229  1.00  0.00     0.080 C 
HETATM   13  C   UNL     1       7.761  33.008  61.700  1.00  0.00     0.032 C 
BRANCH  12  14
HETATM   14  C   UNL     1       5.363  32.432  61.136  1.00  0.00     0.020 C 
HETATM   15  C   UNL     1       5.016  32.982  59.759  1.00  0.00     0.007 C 
ENDBRANCH  12  14
ENDBRANCH   9  12
ENDBRANCH   4   8
ENDBRANCH   1   2
BRANCH   1  16
HETATM   16  N   UNL     1       7.443  26.646  56.277  1.00  0.00    -0.351 N 
HETATM   17  C   UNL     1       7.693  25.572  55.446  1.00  0.00     0.273 C 
HETATM   18  O   UNL     1       7.723  25.672  54.223  1.00  0.00    -0.266 OA
HETATM   19  H   UNL     1       7.603  26.483  57.267  1.00  0.00     0.163 HD
BRANCH  17  20
HETATM   20  C   UNL     1       7.960  24.312  56.157  1.00  0.00     0.157 A 
HETATM   21  N   UNL     1       8.176  24.276  57.491  1.00  0.00    -0.168 NA
HETATM   22  N   UNL     1       8.390  22.970  57.743  1.00  0.00    -0.277 N 
HETATM   23  H   UNL     1       8.572  22.690  58.700  1.00  0.00     0.189 HD
HETATM   24  C   UNL     1       8.346  22.164  56.639  1.00  0.00     0.063 A 
HETATM   25  C   UNL     1       8.062  23.012  55.578  1.00  0.00     0.029 A 
HETATM   26  C   UNL     1       8.536  20.788  56.484  1.00  0.00     0.032 A 
HETATM   27  C   UNL     1       7.958  22.470  54.282  1.00  0.00     0.023 A 
HETATM   28  C   UNL     1       8.144  21.090  54.090  1.00  0.00    -0.061 A 
HETATM   29  C   UNL     1       8.434  20.270  55.185  1.00  0.00     0.009 A 
HETATM   30  C   UNL     1       8.065  20.526  52.701  1.00  0.00     0.048 C 
ENDBRANCH  17  20
ENDBRANCH   1  16
TORSDOF 6
ENDMDL
MODEL 5
REMARK VINA RESULT:      -9.3      2.025     10.241
REMARK  6 active torsions:
REMARK  status: ('A' for Active; 'I' for Inactive)
REMARK    1  A    between atoms: C_2  and  C_3 
REMARK    2  A    between atoms: C_3  and  N_4 
REMARK       I    between atoms: N_4  and  C_5 
REMARK    3  A    between atoms: C_5  and  C_6 
REMARK    4  A    between atoms: C_8  and  C_9 
REMARK    5  A    between atoms: C_9  and  N_10 
REMARK       I    between atoms: N_10  and  C_11 
REMARK    6  A    between atoms: C_11  and  C_12 
ROOT
HETATM    1  C   UNL     1       7.397  29.327  57.495  1.00  0.00     0.161 C 
ENDROOT
BRANCH   1   2
HETATM    2  C   UNL     1       6.871  27.947  57.211  1.00  0.00    -0.040 A 
HETATM    3  C   UNL     1       7.758  26.871  57.070  1.00  0.00     0.026 A 
HETATM    4  C   UNL     1       7.268  25.571  56.916  1.00  0.00     0.032 A 
HETATM    5  C   UNL     1       5.892  25.333  56.859  1.00  0.00     0.017 A 
HETATM    6  C   UNL     1       5.005  26.405  56.962  1.00  0.00     0.002 A 
HETATM    7  C   UNL     1       5.491  27.702  57.142  1.00  0.00     0.009 A 
BRANCH   4   8
HETATM    8  C   UNL     1       8.244  24.460  56.863  1.00  0.00     0.252 C 
HETATM    9  N   UNL     1       8.127  23.645  55.758  1.00  0.00    -0.353 N 
HETATM   10  H   UNL     1       7.347  23.808  55.134  1.00  0.00     0.163 HD
HETATM   11  O   UNL     1       9.016  24.285  57.795  1.00  0.00    -0.268 OA
BRANCH   9  12
HETATM   12  C   UNL     1       8.846  22.386  55.600  1.00  0.00     0.080 C 
HETATM   13  C   UNL     1       8.097  21.223  56.250  1.00  0.00     0.032 C 
BRANCH  12  14
HETATM   14  C   UNL     1       9.202  22.068  54.137  1.00  0.00     0.020 C 
HETATM   15  C   UNL     1       8.161  21.198  53.445  1.00  0.00     0.007 C 
ENDBRANCH  12  14
ENDBRANCH   9  12
ENDBRANCH   4   8
ENDBRANCH   1   2
BRANCH   1  16
HETATM   16  N   UNL     1       7.782  29.510  58.866  1.00  0.00    -0.351 N 
HETATM   17  C   UNL     1       8.359  30.703  59.254  1.00  0.00     0.273 C 
HETATM   18  O   UNL     1       8.750  31.543  58.448  1.00  0.00    -0.266 OA
HETATM   19  H   UNL     1       7.351  28.967  59.609  1.00  0.00     0.163 HD
BRANCH  17  20
HETATM   20  C   UNL     1       8.426  30.892  60.711  1.00  0.00     0.157 A 
HETATM   21  N   UNL     1       9.117  30.050  61.510  1.00  0.00    -0.168 NA
HETATM   22  N   UNL     1       8.921  30.551  62.745  1.00  0.00    -0.277 N 
HETATM   23  H   UNL     1       9.358  30.079  63.529  1.00  0.00     0.189 HD
HETATM   24  C   UNL     1       8.121  31.658  62.788  1.00  0.00     0.063 A 
HETATM   25  C   UNL     1       7.780  31.914  61.467  1.00  0.00     0.029 A 
HETATM   26  C   UNL     1       7.669  32.439  63.855  1.00  0.00     0.032 A 
HETATM   27  C   UNL     1       6.940  33.008  61.180  1.00  0.00     0.023 A 
HETATM   28  C   UNL     1       6.467  33.814  62.231  1.00  0.00    -0.061 A 
HETATM   29  C   UNL     1       6.831  33.520  63.549  1.00  0.00     0.009 A 
HETATM   30  C   UNL     1       5.546  34.958  61.919  1.00  0.00     0.048 C 
ENDBRANCH  17  20
ENDBRANCH   1  16
TORSDOF 6
ENDMDL
MODEL 6
REMARK VINA RESULT:      -9.1      2.202      3.190
REMARK  6 active torsions:
REMARK  status: ('A' for Active; 'I' for Inactive)
REMARK    1  A    between atoms: C_2  and  C_3 
REMARK    2  A    between atoms: C_3  and  N_4 
REMARK       I    between atoms: N_4  and  C_5 
REMARK    3  A    between atoms: C_5  and  C_6 
REMARK    4  A    between atoms: C_8  and  C_9 
REMARK    5  A    between atoms: C_9  and  N_10 
REMARK       I    between atoms: N_10  and  C_11 
REMARK    6  A    between atoms: C_11  and  C_12 
ROOT
HETATM    1  C   UNL     1       7.581  29.812  57.262  1.00  0.00     0.161 C 
ENDROOT
BRANCH   1   2
HETATM    2  C   UNL     1       8.072  30.756  58.325  1.00  0.00    -0.040 A 
HETATM    3  C   UNL     1       7.174  31.295  59.255  1.00  0.00     0.026 A 
HETATM    4  C   UNL     1       7.642  32.085  60.310  1.00  0.00     0.032 A 
HETATM    5  C   UNL     1       9.004  32.380  60.426  1.00  0.00     0.017 A 
HETATM    6  C   UNL     1       9.898  31.876  59.481  1.00  0.00     0.002 A 
HETATM    7  C   UNL     1       9.436  31.065  58.442  1.00  0.00     0.009 A 
BRANCH   4   8
HETATM    8  C   UNL     1       6.665  32.554  61.317  1.00  0.00     0.252 C 
HETATM    9  N   UNL     1       7.207  33.307  62.337  1.00  0.00    -0.353 N 
HETATM   10  H   UNL     1       8.214  33.399  62.367  1.00  0.00     0.163 HD
HETATM   11  O   UNL     1       5.496  32.203  61.239  1.00  0.00    -0.268 OA
BRANCH   9  12
HETATM   12  C   UNL     1       6.470  33.702  63.532  1.00  0.00     0.080 C 
HETATM   13  C   UNL     1       7.267  33.418  64.805  1.00  0.00     0.032 C 
BRANCH  12  14
HETATM   14  C   UNL     1       5.987  35.163  63.493  1.00  0.00     0.020 C 
HETATM   15  C   UNL     1       4.703  35.345  62.695  1.00  0.00     0.007 C 
ENDBRANCH  12  14
ENDBRANCH   9  12
ENDBRANCH   4   8
ENDBRANCH   1   2
BRANCH   1  16
HETATM   16  N   UNL     1       7.958  28.448  57.506  1.00  0.00    -0.351 N 
HETATM   17  C   UNL     1       7.042  27.441  57.276  1.00  0.00     0.273 C 
HETATM   18  O   UNL     1       5.853  27.662  57.067  1.00  0.00    -0.266 OA
HETATM   19  H   UNL     1       8.934  28.165  57.504  1.00  0.00     0.163 HD
BRANCH  17  20
HETATM   20  C   UNL     1       7.625  26.090  57.263  1.00  0.00     0.157 A 
HETATM   21  N   UNL     1       8.121  25.515  58.380  1.00  0.00    -0.168 NA
HETATM   22  N   UNL     1       8.561  24.317  57.952  1.00  0.00    -0.277 N 
HETATM   23  H   UNL     1       8.979  23.688  58.629  1.00  0.00     0.189 HD
HETATM   24  C   UNL     1       8.398  24.097  56.612  1.00  0.00     0.063 A 
HETATM   25  C   UNL     1       7.781  25.241  56.127  1.00  0.00     0.029 A 
HETATM   26  C   UNL     1       8.739  23.013  55.798  1.00  0.00     0.032 A 
HETATM   27  C   UNL     1       7.482  25.324  54.753  1.00  0.00     0.023 A 
HETATM   28  C   UNL     1       7.812  24.252  53.905  1.00  0.00    -0.061 A 
HETATM   29  C   UNL     1       8.437  23.117  54.433  1.00  0.00     0.009 A 
HETATM   30  C   UNL     1       7.520  24.361  52.437  1.00  0.00     0.048 C 
ENDBRANCH  17  20
ENDBRANCH   1  16
TORSDOF 6
ENDMDL
MODEL 7
REMARK VINA RESULT:      -8.8      2.402     10.016
REMARK  6 active torsions:
REMARK  status: ('A' for Active; 'I' for Inactive)
REMARK    1  A    between atoms: C_2  and  C_3 
REMARK    2  A    between atoms: C_3  and  N_4 
REMARK       I    between atoms: N_4  and  C_5 
REMARK    3  A    between atoms: C_5  and  C_6 
REMARK    4  A    between atoms: C_8  and  C_9 
REMARK    5  A    between atoms: C_9  and  N_10 
REMARK       I    between atoms: N_10  and  C_11 
REMARK    6  A    between atoms: C_11  and  C_12 
ROOT
HETATM    1  C   UNL     1       4.829  31.077  58.010  1.00  0.00     0.161 C 
ENDROOT
BRANCH   1   2
HETATM    2  C   UNL     1       5.846  29.992  57.790  1.00  0.00    -0.040 A 
HETATM    3  C   UNL     1       5.435  28.713  57.391  1.00  0.00     0.026 A 
HETATM    4  C   UNL     1       6.384  27.735  57.079  1.00  0.00     0.032 A 
HETATM    5  C   UNL     1       7.750  28.005  57.200  1.00  0.00     0.017 A 
HETATM    6  C   UNL     1       8.164  29.265  57.631  1.00  0.00     0.002 A 
HETATM    7  C   UNL     1       7.219  30.254  57.919  1.00  0.00     0.009 A 
BRANCH   4   8
HETATM    8  C   UNL     1       5.899  26.430  56.575  1.00  0.00     0.252 C 
HETATM    9  N   UNL     1       6.631  25.911  55.529  1.00  0.00    -0.353 N 
HETATM   10  H   UNL     1       7.365  26.487  55.137  1.00  0.00     0.163 HD
HETATM   11  O   UNL     1       4.879  25.941  57.039  1.00  0.00    -0.268 OA
BRANCH   9  12
HETATM   12  C   UNL     1       6.221  24.746  54.753  1.00  0.00     0.080 C 
HETATM   13  C   UNL     1       5.504  25.150  53.465  1.00  0.00     0.032 C 
BRANCH  12  14
HETATM   14  C   UNL     1       7.376  23.771  54.463  1.00  0.00     0.020 C 
HETATM   15  C   UNL     1       7.426  23.322  53.008  1.00  0.00     0.007 C 
ENDBRANCH  12  14
ENDBRANCH   9  12
ENDBRANCH   4   8
ENDBRANCH   1   2
BRANCH   1  16
HETATM   16  N   UNL     1       5.016  31.778  59.249  1.00  0.00    -0.351 N 
HETATM   17  C   UNL     1       3.987  31.813  60.169  1.00  0.00     0.273 C 
HETATM   18  O   UNL     1       2.846  31.449  59.901  1.00  0.00    -0.266 OA
HETATM   19  H   UNL     1       5.946  31.946  59.622  1.00  0.00     0.163 HD
BRANCH  17  20
HETATM   20  C   UNL     1       4.390  32.284  61.503  1.00  0.00     0.157 A 
HETATM   21  N   UNL     1       3.495  32.776  62.388  1.00  0.00    -0.168 NA
HETATM   22  N   UNL     1       4.249  33.101  63.455  1.00  0.00    -0.277 N 
HETATM   23  H   UNL     1       3.787  33.493  64.268  1.00  0.00     0.189 HD
HETATM   24  C   UNL     1       5.587  32.867  63.298  1.00  0.00     0.063 A 
HETATM   25  C   UNL     1       5.716  32.325  62.027  1.00  0.00     0.029 A 
HETATM   26  C   UNL     1       6.677  33.087  64.146  1.00  0.00     0.032 A 
HETATM   27  C   UNL     1       7.000  31.979  61.561  1.00  0.00     0.023 A 
HETATM   28  C   UNL     1       8.118  32.188  62.388  1.00  0.00    -0.061 A 
HETATM   29  C   UNL     1       7.945  32.740  63.661  1.00  0.00     0.009 A 
HETATM   30  C   UNL     1       9.486  31.847  61.871  1.00  0.00     0.048 C 
ENDBRANCH  17  20
ENDBRANCH   1  16
TORSDOF 6
ENDMDL
MODEL 8
REMARK VINA RESULT:      -8.8      1.797      9.982
REMARK  6 active torsions:
REMARK  status: ('A' for Active; 'I' for Inactive)
REMARK    1  A    between atoms: C_2  and  C_3 
REMARK    2  A    between atoms: C_3  and  N_4 
REMARK       I    between atoms: N_4  and  C_5 
REMARK    3  A    between atoms: C_5  and  C_6 
REMARK    4  A    between atoms: C_8  and  C_9 
REMARK    5  A    between atoms: C_9  and  N_10 
REMARK       I    between atoms: N_10  and  C_11 
REMARK    6  A    between atoms: C_11  and  C_12 
ROOT
HETATM    1  C   UNL     1       8.935  29.028  57.797  1.00  0.00     0.161 C 
ENDROOT
BRANCH   1   2
HETATM    2  C   UNL     1       8.319  28.263  56.660  1.00  0.00    -0.040 A 
HETATM    3  C   UNL     1       8.256  26.864  56.705  1.00  0.00     0.026 A 
HETATM    4  C   UNL     1       7.587  26.156  55.702  1.00  0.00     0.032 A 
HETATM    5  C   UNL     1       7.009  26.830  54.622  1.00  0.00     0.017 A 
HETATM    6  C   UNL     1       7.100  28.220  54.553  1.00  0.00     0.002 A 
HETATM    7  C   UNL     1       7.745  28.932  55.567  1.00  0.00     0.009 A 
BRANCH   4   8
HETATM    8  C   UNL     1       7.471  24.688  55.844  1.00  0.00     0.252 C 
HETATM    9  N   UNL     1       7.982  23.966  54.787  1.00  0.00    -0.353 N 
HETATM   10  H   UNL     1       8.304  24.482  53.978  1.00  0.00     0.163 HD
HETATM   11  O   UNL     1       6.886  24.216  56.809  1.00  0.00    -0.268 OA
BRANCH   9  12
HETATM   12  C   UNL     1       7.798  22.529  54.623  1.00  0.00     0.080 C 
HETATM   13  C   UNL     1       7.817  22.122  53.150  1.00  0.00     0.032 C 
BRANCH  12  14
HETATM   14  C   UNL     1       8.796  21.691  55.443  1.00  0.00     0.020 C 
HETATM   15  C   UNL     1       8.115  20.694  56.371  1.00  0.00     0.007 C 
ENDBRANCH  12  14
ENDBRANCH   9  12
ENDBRANCH   4   8
ENDBRANCH   1   2
BRANCH   1  16
HETATM   16  N   UNL     1       7.986  29.835  58.510  1.00  0.00    -0.351 N 
HETATM   17  C   UNL     1       8.264  31.169  58.733  1.00  0.00     0.273 C 
HETATM   18  O   UNL     1       9.372  31.658  58.533  1.00  0.00    -0.266 OA
HETATM   19  H   UNL     1       7.004  29.577  58.553  1.00  0.00     0.163 HD
BRANCH  17  20
HETATM   20  C   UNL     1       7.107  31.955  59.191  1.00  0.00     0.157 A 
HETATM   21  N   UNL     1       6.114  32.320  58.351  1.00  0.00    -0.168 NA
HETATM   22  N   UNL     1       5.275  33.021  59.138  1.00  0.00    -0.277 N 
HETATM   23  H   UNL     1       4.432  33.401  58.721  1.00  0.00     0.189 HD
HETATM   24  C   UNL     1       5.684  33.147  60.436  1.00  0.00     0.063 A 
HETATM   25  C   UNL     1       6.885  32.454  60.509  1.00  0.00     0.029 A 
HETATM   26  C   UNL     1       5.117  33.804  61.532  1.00  0.00     0.032 A 
HETATM   27  C   UNL     1       7.570  32.406  61.738  1.00  0.00     0.023 A 
HETATM   28  C   UNL     1       7.029  33.057  62.861  1.00  0.00    -0.061 A 
HETATM   29  C   UNL     1       5.818  33.748  62.745  1.00  0.00     0.009 A 
HETATM   30  C   UNL     1       7.781  33.029  64.159  1.00  0.00     0.048 C 
ENDBRANCH  17  20
ENDBRANCH   1  16
TORSDOF 6
ENDMDL
MODEL 9
REMARK VINA RESULT:      -8.6      3.164      5.505
REMARK  6 active torsions:
REMARK  status: ('A' for Active; 'I' for Inactive)
REMARK    1  A    between atoms: C_2  and  C_3 
REMARK    2  A    between atoms: C_3  and  N_4 
REMARK       I    between atoms: N_4  and  C_5 
REMARK    3  A    between atoms: C_5  and  C_6 
REMARK    4  A    between atoms: C_8  and  C_9 
REMARK    5  A    between atoms: C_9  and  N_10 
REMARK       I    between atoms: N_10  and  C_11 
REMARK    6  A    between atoms: C_11  and  C_12 
ROOT
HETATM    1  C   UNL     1       8.272  31.595  59.674  1.00  0.00     0.161 C 
ENDROOT
BRANCH   1   2
HETATM    2  C   UNL     1       7.809  32.140  60.996  1.00  0.00    -0.040 A 
HETATM    3  C   UNL     1       6.548  32.742  61.106  1.00  0.00     0.026 A 
HETATM    4  C   UNL     1       6.069  33.150  62.355  1.00  0.00     0.032 A 
HETATM    5  C   UNL     1       6.855  33.000  63.500  1.00  0.00     0.017 A 
HETATM    6  C   UNL     1       8.126  32.435  63.392  1.00  0.00     0.002 A 
HETATM    7  C   UNL     1       8.597  32.002  62.149  1.00  0.00     0.009 A 
BRANCH   4   8
HETATM    8  C   UNL     1       4.696  33.696  62.430  1.00  0.00     0.252 C 
HETATM    9  N   UNL     1       4.498  34.853  61.708  1.00  0.00    -0.353 N 
HETATM   10  H   UNL     1       5.306  35.278  61.271  1.00  0.00     0.163 HD
HETATM   11  O   UNL     1       3.868  33.161  63.154  1.00  0.00    -0.268 OA
BRANCH   9  12
HETATM   12  C   UNL     1       3.291  35.667  61.796  1.00  0.00     0.080 C 
HETATM   13  C   UNL     1       3.394  36.710  62.908  1.00  0.00     0.032 C 
BRANCH  12  14
HETATM   14  C   UNL     1       2.897  36.318  60.458  1.00  0.00     0.020 C 
HETATM   15  C   UNL     1       3.706  35.793  59.279  1.00  0.00     0.007 C 
ENDBRANCH  12  14
ENDBRANCH   9  12
ENDBRANCH   4   8
ENDBRANCH   1   2
BRANCH   1  16
HETATM   16  N   UNL     1       7.281  30.790  59.019  1.00  0.00    -0.351 N 
HETATM   17  C   UNL     1       7.653  29.982  57.963  1.00  0.00     0.273 C 
HETATM   18  O   UNL     1       8.750  30.067  57.419  1.00  0.00    -0.266 OA
HETATM   19  H   UNL     1       6.422  30.525  59.494  1.00  0.00     0.163 HD
BRANCH  17  20
HETATM   20  C   UNL     1       6.637  28.990  57.579  1.00  0.00     0.157 A 
HETATM   21  N   UNL     1       5.336  29.321  57.427  1.00  0.00    -0.168 NA
HETATM   22  N   UNL     1       4.749  28.156  57.093  1.00  0.00    -0.277 N 
HETATM   23  H   UNL     1       3.750  28.154  56.919  1.00  0.00     0.189 HD
HETATM   24  C   UNL     1       5.598  27.085  57.043  1.00  0.00     0.063 A 
HETATM   25  C   UNL     1       6.850  27.598  57.353  1.00  0.00     0.029 A 
HETATM   26  C   UNL     1       5.377  25.734  56.764  1.00  0.00     0.032 A 
HETATM   27  C   UNL     1       7.954  26.723  57.391  1.00  0.00     0.023 A 
HETATM   28  C   UNL     1       7.767  25.357  57.116  1.00  0.00    -0.061 A 
HETATM   29  C   UNL     1       6.487  24.879  56.812  1.00  0.00     0.009 A 
HETATM   30  C   UNL     1       8.942  24.426  57.191  1.00  0.00     0.048 C 
ENDBRANCH  17  20
ENDBRANCH   1  16
TORSDOF 6
ENDMDL
MODEL 10
REMARK VINA RESULT:      -8.5      2.053     10.175
REMARK  6 active torsions:
REMARK  status: ('A' for Active; 'I' for Inactive)
REMARK    1  A    between atoms: C_2  and  C_3 
REMARK    2  A    between atoms: C_3  and  N_4 
REMARK       I    between atoms: N_4  and  C_5 
REMARK    3  A    between atoms: C_5  and  C_6 
REMARK    4  A    between atoms: C_8  and  C_9 
REMARK    5  A    between atoms: C_9  and  N_10 
REMARK       I    between atoms: N_10  and  C_11 
REMARK    6  A    between atoms: C_11  and  C_12 
ROOT
HETATM    1  C   UNL     1       6.052  31.277  57.865  1.00  0.00     0.161 C 
ENDROOT
BRANCH   1   2
HETATM    2  C   UNL     1       5.791  29.964  57.180  1.00  0.00    -0.040 A 
HETATM    3  C   UNL     1       6.800  28.994  57.111  1.00  0.00     0.026 A 
HETATM    4  C   UNL     1       6.528  27.733  56.573  1.00  0.00     0.032 A 
HETATM    5  C   UNL     1       5.262  27.437  56.060  1.00  0.00     0.017 A 
HETATM    6  C   UNL     1       4.264  28.412  56.093  1.00  0.00     0.002 A 
HETATM    7  C   UNL     1       4.525  29.664  56.654  1.00  0.00     0.009 A 
BRANCH   4   8
HETATM    8  C   UNL     1       7.601  26.714  56.607  1.00  0.00     0.252 C 
HETATM    9  N   UNL     1       7.428  25.667  55.728  1.00  0.00    -0.353 N 
HETATM   10  H   UNL     1       6.560  25.629  55.208  1.00  0.00     0.163 HD
HETATM   11  O   UNL     1       8.503  26.809  57.428  1.00  0.00    -0.268 OA
BRANCH   9  12
HETATM   12  C   UNL     1       8.249  24.462  55.730  1.00  0.00     0.080 C 
HETATM   13  C   UNL     1       7.851  23.511  56.858  1.00  0.00     0.032 C 
BRANCH  12  14
HETATM   14  C   UNL     1       8.268  23.737  54.373  1.00  0.00     0.020 C 
HETATM   15  C   UNL     1       7.597  24.533  53.262  1.00  0.00     0.007 C 
ENDBRANCH  12  14
ENDBRANCH   9  12
ENDBRANCH   4   8
ENDBRANCH   1   2
BRANCH   1  16
HETATM   16  N   UNL     1       6.489  31.123  59.224  1.00  0.00    -0.351 N 
HETATM   17  C   UNL     1       7.721  31.622  59.599  1.00  0.00     0.273 C 
HETATM   18  O   UNL     1       8.554  32.012  58.786  1.00  0.00    -0.266 OA
HETATM   19  H   UNL     1       5.823  30.985  59.978  1.00  0.00     0.163 HD
BRANCH  17  20
HETATM   20  C   UNL     1       7.927  31.682  61.054  1.00  0.00     0.157 A 
HETATM   21  N   UNL     1       8.653  30.752  61.712  1.00  0.00    -0.168 NA
HETATM   22  N   UNL     1       8.590  31.150  62.997  1.00  0.00    -0.277 N 
HETATM   23  H   UNL     1       9.076  30.598  63.696  1.00  0.00     0.189 HD
HETATM   24  C   UNL     1       7.842  32.276  63.208  1.00  0.00     0.063 A 
HETATM   25  C   UNL     1       7.394  32.656  61.950  1.00  0.00     0.029 A 
HETATM   26  C   UNL     1       7.522  32.976  64.374  1.00  0.00     0.032 A 
HETATM   27  C   UNL     1       6.578  33.798  61.835  1.00  0.00     0.023 A 
HETATM   28  C   UNL     1       6.235  34.525  62.988  1.00  0.00    -0.061 A 
HETATM   29  C   UNL     1       6.704  34.106  64.238  1.00  0.00     0.009 A 
HETATM   30  C   UNL     1       5.338  35.722  62.861  1.00  0.00     0.048 C 
ENDBRANCH  17  20
ENDBRANCH   1  16
TORSDOF 6
ENDMDL
