MODEL 1
REMARK VINA RESULT:     -10.7      0.000      0.000
REMARK  7 active torsions:
REMARK  status: ('A' for Active; 'I' for Inactive)
REMARK    1  A    between atoms: C_2  and  N_3 
REMARK    2  A    between atoms: C_5  and  C_6 
REMARK    3  A    between atoms: C_6  and  N_7 
REMARK       I    between atoms: N_7  and  C_8 
REMARK    4  A    between atoms: C_8  and  C_9 
REMARK    5  A    between atoms: N_15  and  C_16 
REMARK    6  A    between atoms: C_16  and  C_17 
REMARK       I    between atoms: C_17  and  N_18 
REMARK    7  A    between atoms: N_18  and  C_19 
ROOT
HETATM    1  C   UNL     1       6.925  29.876  57.504  1.00  0.00     0.081 A 
HETATM    2  S   UNL     1       5.215  29.864  57.360  1.00  0.00    -0.063 SA
HETATM    3  C   UNL     1       5.267  29.130  55.833  1.00  0.00     0.116 A 
HETATM    4  C   UNL     1       6.558  28.912  55.408  1.00  0.00     0.075 A 
HETATM    5  C   UNL     1       6.731  28.216  54.137  1.00  0.00     0.262 A 
HETATM    6  O   UNL     1       7.833  27.953  53.665  1.00  0.00    -0.267 OA
HETATM    7  N   UNL     1       5.536  27.855  53.518  1.00  0.00    -0.299 N 
HETATM    8  C   UNL     1       4.309  28.151  54.081  1.00  0.00     0.214 A 
HETATM    9  N   UNL     1       4.124  28.793  55.189  1.00  0.00    -0.235 NA
HETATM   10  C   UNL     1       7.543  29.402  56.348  1.00  0.00    -0.021 A 
HETATM   11  C   UNL     1       9.026  29.333  56.146  1.00  0.00     0.051 C 
ENDROOT
BRANCH   1  12
HETATM   12  C   UNL     1       7.544  30.356  58.737  1.00  0.00     0.259 C 
HETATM   13  N   UNL     1       7.128  31.601  59.170  1.00  0.00    -0.354 N 
HETATM   14  H   UNL     1       6.382  32.016  58.616  1.00  0.00     0.162 HD
HETATM   15  O   UNL     1       8.395  29.730  59.370  1.00  0.00    -0.267 OA
BRANCH  13  16
HETATM   16  C   UNL     1       7.367  32.201  60.480  1.00  0.00     0.156 C 
BRANCH  16  17
HETATM   17  C   UNL     1       6.179  32.346  61.446  1.00  0.00     0.206 C 
HETATM   18  N   UNL     1       6.495  32.142  62.922  1.00  0.00    -0.066 N 
HETATM   19  H   UNL     1       6.548  31.105  63.013  1.00  0.00     0.280 HD
HETATM   20  C   UNL     1       5.269  32.664  63.643  1.00  0.00     0.235 C 
HETATM   21  C   UNL     1       4.600  33.630  62.668  1.00  0.00     0.030 C 
HETATM   22  C   UNL     1       5.506  33.705  61.448  1.00  0.00     0.036 C 
BRANCH  18  23
HETATM   23  C   UNL     1       7.790  32.710  63.446  1.00  0.00     0.231 C 
HETATM   24  C   UNL     1       7.536  33.489  64.725  1.00  0.00     0.034 C 
ENDBRANCH  18  23
ENDBRANCH  16  17
ENDBRANCH  13  16
ENDBRANCH   1  12
BRANCH   7  25
HETATM   25  C   UNL     1       5.602  26.980  52.359  1.00  0.00     0.236 C 
BRANCH  25  26
HETATM   26  C   UNL     1       5.647  25.521  52.836  1.00  0.00     0.240 C 
HETATM   27  N   UNL     1       6.899  25.148  53.301  1.00  0.00    -0.326 N 
HETATM   28  H   UNL     1       7.643  25.833  53.245  1.00  0.00     0.169 HD
HETATM   29  O   UNL     1       4.666  24.787  52.742  1.00  0.00    -0.271 OA
BRANCH  27  30
HETATM   30  C   UNL     1       7.268  23.890  53.828  1.00  0.00     0.036 A 
HETATM   31  C   UNL     1       7.645  22.795  53.049  1.00  0.00     0.053 A 
HETATM   32  C   UNL     1       7.991  21.577  53.650  1.00  0.00     0.042 A 
HETATM   33 CL   UNL     1       8.427  20.263  52.613  1.00  0.00    -0.084 Cl
HETATM   34  C   UNL     1       7.973  21.431  55.044  1.00  0.00    -0.040 A 
HETATM   35  C   UNL     1       8.335  20.136  55.714  1.00  0.00     0.050 C 
HETATM   36  C   UNL     1       7.589  22.532  55.821  1.00  0.00     0.011 A 
HETATM   37  C   UNL     1       7.237  23.744  55.220  1.00  0.00     0.030 A 
ENDBRANCH  27  30
ENDBRANCH  25  26
ENDBRANCH   7  25
TORSDOF 7
ENDMDL
MODEL 2
REMARK VINA RESULT:     -10.0      1.908      2.597
REMARK  7 active torsions:
REMARK  status: ('A' for Active; 'I' for Inactive)
REMARK    1  A    between atoms: C_2  and  N_3 
REMARK    2  A    between atoms: C_5  and  C_6 
REMARK    3  A    between atoms: C_6  and  N_7 
REMARK       I    between atoms: N_7  and  C_8 
REMARK    4  A    between atoms: C_8  and  C_9 
REMARK    5  A    between atoms: N_15  and  C_16 
REMARK    6  A    between atoms: C_16  and  C_17 
REMARK       I    between atoms: C_17  and  N_18 
REMARK    7  A    between atoms: N_18  and  C_19 
ROOT
HETATM    1  C   UNL     1       5.743  31.361  58.240  1.00  0.00     0.081 A 
HETATM    2  S   UNL     1       7.415  30.979  58.168  1.00  0.00    -0.063 SA
HETATM    3  C   UNL     1       7.186  29.847  56.926  1.00  0.00     0.116 A 
HETATM    4  C   UNL     1       5.861  29.725  56.575  1.00  0.00     0.075 A 
HETATM    5  C   UNL     1       5.547  28.834  55.464  1.00  0.00     0.262 A 
HETATM    6  O   UNL     1       4.404  28.657  55.052  1.00  0.00    -0.267 OA
HETATM    7  N   UNL     1       6.660  28.217  54.897  1.00  0.00    -0.299 N 
HETATM    8  C   UNL     1       7.938  28.446  55.371  1.00  0.00     0.214 A 
HETATM    9  N   UNL     1       8.244  29.207  56.372  1.00  0.00    -0.235 NA
HETATM   10  C   UNL     1       4.994  30.560  57.379  1.00  0.00    -0.021 A 
HETATM   11  C   UNL     1       3.502  30.618  57.248  1.00  0.00     0.051 C 
ENDROOT
BRANCH   1  12
HETATM   12  C   UNL     1       5.279  32.414  59.139  1.00  0.00     0.259 C 
HETATM   13  N   UNL     1       5.118  32.043  60.461  1.00  0.00    -0.354 N 
HETATM   14  H   UNL     1       5.409  31.091  60.674  1.00  0.00     0.162 HD
HETATM   15  O   UNL     1       5.023  33.564  58.780  1.00  0.00    -0.267 OA
BRANCH  13  16
HETATM   16  C   UNL     1       4.932  32.930  61.607  1.00  0.00     0.156 C 
BRANCH  16  17
HETATM   17  C   UNL     1       6.163  33.302  62.452  1.00  0.00     0.206 C 
HETATM   18  N   UNL     1       5.870  33.914  63.816  1.00  0.00    -0.066 N 
HETATM   19  H   UNL     1       5.628  34.902  63.586  1.00  0.00     0.280 HD
HETATM   20  C   UNL     1       7.198  33.861  64.542  1.00  0.00     0.235 C 
HETATM   21  C   UNL     1       7.998  32.756  63.854  1.00  0.00     0.030 C 
HETATM   22  C   UNL     1       7.076  32.145  62.809  1.00  0.00     0.036 C 
BRANCH  18  23
HETATM   23  C   UNL     1       4.725  33.340  64.611  1.00  0.00     0.231 C 
HETATM   24  C   UNL     1       4.751  33.885  66.029  1.00  0.00     0.034 C 
ENDBRANCH  18  23
ENDBRANCH  16  17
ENDBRANCH  13  16
ENDBRANCH   1  12
BRANCH   7  25
HETATM   25  C   UNL     1       6.476  27.476  53.659  1.00  0.00     0.236 C 
BRANCH  25  26
HETATM   26  C   UNL     1       6.335  25.982  53.985  1.00  0.00     0.240 C 
HETATM   27  N   UNL     1       7.560  25.346  54.121  1.00  0.00    -0.326 N 
HETATM   28  H   UNL     1       8.395  25.897  53.957  1.00  0.00     0.169 HD
HETATM   29  O   UNL     1       5.234  25.444  54.054  1.00  0.00    -0.271 OA
BRANCH  27  30
HETATM   30  C   UNL     1       7.780  23.987  54.440  1.00  0.00     0.036 A 
HETATM   31  C   UNL     1       7.951  22.978  53.490  1.00  0.00     0.053 A 
HETATM   32  C   UNL     1       8.157  21.651  53.890  1.00  0.00     0.042 A 
HETATM   33 CL   UNL     1       8.341  20.457  52.652  1.00  0.00    -0.084 Cl
HETATM   34  C   UNL     1       8.203  21.306  55.248  1.00  0.00    -0.040 A 
HETATM   35  C   UNL     1       8.419  19.891  55.704  1.00  0.00     0.050 C 
HETATM   36  C   UNL     1       8.025  22.322  56.196  1.00  0.00     0.011 A 
HETATM   37  C   UNL     1       7.812  23.645  55.796  1.00  0.00     0.030 A 
ENDBRANCH  27  30
ENDBRANCH  25  26
ENDBRANCH   7  25
TORSDOF 7
ENDMDL
MODEL 3
REMARK VINA RESULT:      -9.6      3.837     11.363
REMARK  7 active torsions:
REMARK  status: ('A' for Active; 'I' for Inactive)
REMARK    1  A    between atoms: C_2  and  N_3 
REMARK    2  A    between atoms: C_5  and  C_6 
REMARK    3  A    between atoms: C_6  and  N_7 
REMARK       I    between atoms: N_7  and  C_8 
REMARK    4  A    between atoms: C_8  and  C_9 
REMARK    5  A    between atoms: N_15  and  C_16 
REMARK    6  A    between atoms: C_16  and  C_17 
REMARK       I    between atoms: C_17  and  N_18 
REMARK    7  A    between atoms: N_18  and  C_19 
ROOT
HETATM    1  C   UNL     1       6.264  27.952  56.067  1.00  0.00     0.081 A 
HETATM    2  S   UNL     1       5.034  29.150  56.052  1.00  0.00    -0.063 SA
HETATM    3  C   UNL     1       5.765  30.033  57.302  1.00  0.00     0.116 A 
HETATM    4  C   UNL     1       6.915  29.428  57.758  1.00  0.00     0.075 A 
HETATM    5  C   UNL     1       7.675  30.134  58.784  1.00  0.00     0.262 A 
HETATM    6  O   UNL     1       8.723  29.701  59.256  1.00  0.00    -0.267 OA
HETATM    7  N   UNL     1       7.119  31.353  59.167  1.00  0.00    -0.299 N 
HETATM    8  C   UNL     1       5.946  31.823  58.609  1.00  0.00     0.214 A 
HETATM    9  N   UNL     1       5.235  31.207  57.720  1.00  0.00    -0.235 NA
HETATM   10  C   UNL     1       7.187  28.175  57.088  1.00  0.00    -0.021 A 
HETATM   11  C   UNL     1       8.350  27.279  57.390  1.00  0.00     0.051 C 
ENDROOT
BRANCH   1  12
HETATM   12  C   UNL     1       6.235  26.874  55.084  1.00  0.00     0.259 C 
HETATM   13  N   UNL     1       7.330  26.030  55.089  1.00  0.00    -0.354 N 
HETATM   14  H   UNL     1       8.005  26.215  55.829  1.00  0.00     0.162 HD
HETATM   15  O   UNL     1       5.321  26.701  54.276  1.00  0.00    -0.267 OA
BRANCH  13  16
HETATM   16  C   UNL     1       7.448  24.738  54.419  1.00  0.00     0.156 C 
BRANCH  16  17
HETATM   17  C   UNL     1       7.435  23.463  55.280  1.00  0.00     0.206 C 
HETATM   18  N   UNL     1       7.368  22.147  54.516  1.00  0.00    -0.066 N 
HETATM   19  H   UNL     1       6.363  22.076  54.250  1.00  0.00     0.280 HD
HETATM   20  C   UNL     1       7.706  21.096  55.552  1.00  0.00     0.235 C 
HETATM   21  C   UNL     1       8.488  21.828  56.641  1.00  0.00     0.030 C 
HETATM   22  C   UNL     1       8.654  23.262  56.159  1.00  0.00     0.036 C 
BRANCH  18  23
HETATM   23  C   UNL     1       8.180  22.030  53.251  1.00  0.00     0.231 C 
HETATM   24  C   UNL     1       8.341  20.568  52.869  1.00  0.00     0.034 C 
ENDBRANCH  18  23
ENDBRANCH  16  17
ENDBRANCH  13  16
ENDBRANCH   1  12
BRANCH   7  25
HETATM   25  C   UNL     1       7.905  32.224  60.027  1.00  0.00     0.236 C 
BRANCH  25  26
HETATM   26  C   UNL     1       7.333  32.170  61.451  1.00  0.00     0.240 C 
HETATM   27  N   UNL     1       6.780  33.378  61.852  1.00  0.00    -0.326 N 
HETATM   28  H   UNL     1       6.842  34.158  61.208  1.00  0.00     0.169 HD
HETATM   29  O   UNL     1       7.429  31.159  62.141  1.00  0.00    -0.271 OA
BRANCH  27  30
HETATM   30  C   UNL     1       6.155  33.656  63.088  1.00  0.00     0.036 A 
HETATM   31  C   UNL     1       6.834  33.761  64.303  1.00  0.00     0.053 A 
HETATM   32  C   UNL     1       6.137  34.033  65.488  1.00  0.00     0.042 A 
HETATM   33 CL   UNL     1       7.050  34.128  66.954  1.00  0.00    -0.084 Cl
HETATM   34  C   UNL     1       4.747  34.211  65.481  1.00  0.00    -0.040 A 
HETATM   35  C   UNL     1       3.975  34.499  66.737  1.00  0.00     0.050 C 
HETATM   36  C   UNL     1       4.070  34.098  64.260  1.00  0.00     0.011 A 
HETATM   37  C   UNL     1       4.765  33.820  63.079  1.00  0.00     0.030 A 
ENDBRANCH  27  30
ENDBRANCH  25  26
ENDBRANCH   7  25
TORSDOF 7
ENDMDL
MODEL 4
REMARK VINA RESULT:      -9.6      2.059      2.626
REMARK  7 active torsions:
REMARK  status: ('A' for Active; 'I' for Inactive)
REMARK    1  A    between atoms: C_2  and  N_3 
REMARK    2  A    between atoms: C_5  and  C_6 
REMARK    3  A    between atoms: C_6  and  N_7 
REMARK       I    between atoms: N_7  and  C_8 
REMARK    4  A    between atoms: C_8  and  C_9 
REMARK    5  A    between atoms: N_15  and  C_16 
REMARK    6  A    between atoms: C_16  and  C_17 
REMARK       I    between atoms: C_17  and  N_18 
REMARK    7  A    between atoms: N_18  and  C_19 
ROOT
HETATM    1  C   UNL     1       5.969  31.290  58.193  1.00  0.00     0.081 A 
HETATM    2  S   UNL     1       7.625  30.853  58.079  1.00  0.00    -0.063 SA
HETATM    3  C   UNL     1       7.334  29.761  56.815  1.00  0.00     0.116 A 
HETATM    4  C   UNL     1       5.999  29.693  56.487  1.00  0.00     0.075 A 
HETATM    5  C   UNL     1       5.634  28.841  55.360  1.00  0.00     0.262 A 
HETATM    6  O   UNL     1       4.478  28.714  54.966  1.00  0.00    -0.267 OA
HETATM    7  N   UNL     1       6.715  28.201  54.756  1.00  0.00    -0.299 N 
HETATM    8  C   UNL     1       8.008  28.374  55.212  1.00  0.00     0.214 A 
HETATM    9  N   UNL     1       8.358  29.098  56.225  1.00  0.00    -0.235 NA
HETATM   10  C   UNL     1       5.176  30.536  57.327  1.00  0.00    -0.021 A 
HETATM   11  C   UNL     1       3.686  30.649  57.226  1.00  0.00     0.051 C 
ENDROOT
BRANCH   1  12
HETATM   12  C   UNL     1       5.558  32.335  59.126  1.00  0.00     0.259 C 
HETATM   13  N   UNL     1       5.251  31.908  60.404  1.00  0.00    -0.354 N 
HETATM   14  H   UNL     1       5.413  30.916  60.572  1.00  0.00     0.162 HD
HETATM   15  O   UNL     1       5.465  33.526  58.830  1.00  0.00    -0.267 OA
BRANCH  13  16
HETATM   16  C   UNL     1       5.077  32.740  61.592  1.00  0.00     0.156 C 
BRANCH  16  17
HETATM   17  C   UNL     1       3.649  33.126  62.014  1.00  0.00     0.206 C 
HETATM   18  N   UNL     1       3.440  33.373  63.502  1.00  0.00    -0.066 N 
HETATM   19  H   UNL     1       3.385  32.410  63.897  1.00  0.00     0.280 HD
HETATM   20  C   UNL     1       2.086  34.046  63.583  1.00  0.00     0.235 C 
HETATM   21  C   UNL     1       1.851  34.664  62.206  1.00  0.00     0.030 C 
HETATM   22  C   UNL     1       3.115  34.405  61.398  1.00  0.00     0.036 C 
BRANCH  18  23
HETATM   23  C   UNL     1       4.524  34.108  64.249  1.00  0.00     0.231 C 
HETATM   24  C   UNL     1       4.253  34.056  65.743  1.00  0.00     0.034 C 
ENDBRANCH  18  23
ENDBRANCH  16  17
ENDBRANCH  13  16
ENDBRANCH   1  12
BRANCH   7  25
HETATM   25  C   UNL     1       6.482  27.498  53.504  1.00  0.00     0.236 C 
BRANCH  25  26
HETATM   26  C   UNL     1       6.334  25.997  53.793  1.00  0.00     0.240 C 
HETATM   27  N   UNL     1       7.544  25.387  54.091  1.00  0.00    -0.326 N 
HETATM   28  H   UNL     1       8.380  25.960  54.051  1.00  0.00     0.169 HD
HETATM   29  O   UNL     1       5.247  25.433  53.701  1.00  0.00    -0.271 OA
BRANCH  27  30
HETATM   30  C   UNL     1       7.750  24.030  54.424  1.00  0.00     0.036 A 
HETATM   31  C   UNL     1       7.932  23.013  53.484  1.00  0.00     0.053 A 
HETATM   32  C   UNL     1       8.124  21.688  53.897  1.00  0.00     0.042 A 
HETATM   33 CL   UNL     1       8.322  20.484  52.671  1.00  0.00    -0.084 Cl
HETATM   34  C   UNL     1       8.145  21.353  55.258  1.00  0.00    -0.040 A 
HETATM   35  C   UNL     1       8.346  19.940  55.728  1.00  0.00     0.050 C 
HETATM   36  C   UNL     1       7.957  22.376  56.196  1.00  0.00     0.011 A 
HETATM   37  C   UNL     1       7.758  23.698  55.783  1.00  0.00     0.030 A 
ENDBRANCH  27  30
ENDBRANCH  25  26
ENDBRANCH   7  25
TORSDOF 7
ENDMDL
MODEL 5
REMARK VINA RESULT:      -9.4      4.226     11.371
REMARK  7 active torsions:
REMARK  status: ('A' for Active; 'I' for Inactive)
REMARK    1  A    between atoms: C_2  and  N_3 
REMARK    2  A    between atoms: C_5  and  C_6 
REMARK    3  A    between atoms: C_6  and  N_7 
REMARK       I    between atoms: N_7  and  C_8 
REMARK    4  A    between atoms: C_8  and  C_9 
REMARK    5  A    between atoms: N_15  and  C_16 
REMARK    6  A    between atoms: C_16  and  C_17 
REMARK       I    between atoms: C_17  and  N_18 
REMARK    7  A    between atoms: N_18  and  C_19 
ROOT
HETATM    1  C   UNL     1       6.942  29.216  56.513  1.00  0.00     0.081 A 
HETATM    2  S   UNL     1       8.069  29.936  57.589  1.00  0.00    -0.063 SA
HETATM    3  C   UNL     1       6.873  30.870  58.346  1.00  0.00     0.116 A 
HETATM    4  C   UNL     1       5.631  30.672  57.786  1.00  0.00     0.075 A 
HETATM    5  C   UNL     1       4.506  31.366  58.404  1.00  0.00     0.262 A 
HETATM    6  O   UNL     1       3.351  31.254  58.002  1.00  0.00    -0.267 OA
HETATM    7  N   UNL     1       4.853  32.148  59.503  1.00  0.00    -0.299 N 
HETATM    8  C   UNL     1       6.159  32.243  59.943  1.00  0.00     0.214 A 
HETATM    9  N   UNL     1       7.180  31.665  59.399  1.00  0.00    -0.235 NA
HETATM   10  C   UNL     1       5.665  29.753  56.669  1.00  0.00    -0.021 A 
HETATM   11  C   UNL     1       4.475  29.365  55.845  1.00  0.00     0.051 C 
ENDROOT
BRANCH   1  12
HETATM   12  C   UNL     1       7.387  28.179  55.586  1.00  0.00     0.259 C 
HETATM   13  N   UNL     1       7.115  26.879  55.967  1.00  0.00    -0.354 N 
HETATM   14  H   UNL     1       6.569  26.792  56.822  1.00  0.00     0.162 HD
HETATM   15  O   UNL     1       7.982  28.407  54.532  1.00  0.00    -0.267 OA
BRANCH  13  16
HETATM   16  C   UNL     1       7.198  25.682  55.133  1.00  0.00     0.156 C 
BRANCH  16  17
HETATM   17  C   UNL     1       7.271  24.311  55.826  1.00  0.00     0.206 C 
HETATM   18  N   UNL     1       7.220  23.099  54.905  1.00  0.00    -0.066 N 
HETATM   19  H   UNL     1       6.208  23.019  54.671  1.00  0.00     0.280 HD
HETATM   20  C   UNL     1       7.643  21.942  55.786  1.00  0.00     0.235 C 
HETATM   21  C   UNL     1       8.443  22.566  56.928  1.00  0.00     0.030 C 
HETATM   22  C   UNL     1       8.534  24.054  56.625  1.00  0.00     0.036 C 
BRANCH  18  23
HETATM   23  C   UNL     1       7.981  23.175  53.605  1.00  0.00     0.231 C 
HETATM   24  C   UNL     1       8.001  21.813  52.933  1.00  0.00     0.034 C 
ENDBRANCH  18  23
ENDBRANCH  16  17
ENDBRANCH  13  16
ENDBRANCH   1  12
BRANCH   7  25
HETATM   25  C   UNL     1       3.780  32.711  60.309  1.00  0.00     0.236 C 
BRANCH  25  26
HETATM   26  C   UNL     1       4.123  32.528  61.795  1.00  0.00     0.240 C 
HETATM   27  N   UNL     1       4.806  33.613  62.324  1.00  0.00    -0.326 N 
HETATM   28  H   UNL     1       5.040  34.372  61.695  1.00  0.00     0.169 HD
HETATM   29  O   UNL     1       3.848  31.490  62.391  1.00  0.00    -0.271 OA
BRANCH  27  30
HETATM   30  C   UNL     1       5.244  33.771  63.658  1.00  0.00     0.036 A 
HETATM   31  C   UNL     1       4.399  34.065  64.730  1.00  0.00     0.053 A 
HETATM   32  C   UNL     1       4.915  34.213  66.024  1.00  0.00     0.042 A 
HETATM   33 CL   UNL     1       3.805  34.598  67.294  1.00  0.00    -0.084 Cl
HETATM   34  C   UNL     1       6.286  34.063  66.275  1.00  0.00    -0.040 A 
HETATM   35  C   UNL     1       6.866  34.219  67.652  1.00  0.00     0.050 C 
HETATM   36  C   UNL     1       7.130  33.772  65.195  1.00  0.00     0.011 A 
HETATM   37  C   UNL     1       6.615  33.632  63.902  1.00  0.00     0.030 A 
ENDBRANCH  27  30
ENDBRANCH  25  26
ENDBRANCH   7  25
TORSDOF 7
ENDMDL
MODEL 6
REMARK VINA RESULT:      -9.3      2.923      4.804
REMARK  7 active torsions:
REMARK  status: ('A' for Active; 'I' for Inactive)
REMARK    1  A    between atoms: C_2  and  N_3 
REMARK    2  A    between atoms: C_5  and  C_6 
REMARK    3  A    between atoms: C_6  and  N_7 
REMARK       I    between atoms: N_7  and  C_8 
REMARK    4  A    between atoms: C_8  and  C_9 
REMARK    5  A    between atoms: N_15  and  C_16 
REMARK    6  A    between atoms: C_16  and  C_17 
REMARK       I    between atoms: C_17  and  N_18 
REMARK    7  A    between atoms: N_18  and  C_19 
ROOT
HETATM    1  C   UNL     1       6.249  30.780  58.336  1.00  0.00     0.081 A 
HETATM    2  S   UNL     1       7.791  30.089  58.637  1.00  0.00    -0.063 SA
HETATM    3  C   UNL     1       7.443  28.709  57.717  1.00  0.00     0.116 A 
HETATM    4  C   UNL     1       6.167  28.739  57.201  1.00  0.00     0.075 A 
HETATM    5  C   UNL     1       5.777  27.638  56.327  1.00  0.00     0.262 A 
HETATM    6  O   UNL     1       4.672  27.565  55.797  1.00  0.00    -0.267 OA
HETATM    7  N   UNL     1       6.776  26.686  56.129  1.00  0.00    -0.299 N 
HETATM    8  C   UNL     1       8.017  26.802  56.726  1.00  0.00     0.214 A 
HETATM    9  N   UNL     1       8.381  27.749  57.528  1.00  0.00    -0.235 NA
HETATM   10  C   UNL     1       5.432  29.917  57.607  1.00  0.00    -0.021 A 
HETATM   11  C   UNL     1       4.013  30.212  57.226  1.00  0.00     0.051 C 
ENDROOT
BRANCH   1  12
HETATM   12  C   UNL     1       5.944  32.116  58.840  1.00  0.00     0.259 C 
HETATM   13  N   UNL     1       5.645  32.193  60.187  1.00  0.00    -0.354 N 
HETATM   14  H   UNL     1       5.741  31.315  60.694  1.00  0.00     0.162 HD
HETATM   15  O   UNL     1       5.928  33.130  58.141  1.00  0.00    -0.267 OA
BRANCH  13  16
HETATM   16  C   UNL     1       5.568  33.402  61.004  1.00  0.00     0.156 C 
BRANCH  16  17
HETATM   17  C   UNL     1       6.591  33.587  62.137  1.00  0.00     0.206 C 
HETATM   18  N   UNL     1       6.047  34.171  63.434  1.00  0.00    -0.066 N 
HETATM   19  H   UNL     1       5.973  35.189  63.224  1.00  0.00     0.280 HD
HETATM   20  C   UNL     1       7.148  33.928  64.445  1.00  0.00     0.235 C 
HETATM   21  C   UNL     1       7.968  32.766  63.888  1.00  0.00     0.030 C 
HETATM   22  C   UNL     1       7.265  32.315  62.616  1.00  0.00     0.036 C 
BRANCH  18  23
HETATM   23  C   UNL     1       4.690  33.704  63.897  1.00  0.00     0.231 C 
HETATM   24  C   UNL     1       4.635  33.688  65.415  1.00  0.00     0.034 C 
ENDBRANCH  18  23
ENDBRANCH  16  17
ENDBRANCH  13  16
ENDBRANCH   1  12
BRANCH   7  25
HETATM   25  C   UNL     1       6.558  25.666  55.116  1.00  0.00     0.236 C 
BRANCH  25  26
HETATM   26  C   UNL     1       6.752  26.290  53.727  1.00  0.00     0.240 C 
HETATM   27  N   UNL     1       5.550  26.598  53.105  1.00  0.00    -0.326 N 
HETATM   28  H   UNL     1       4.695  26.352  53.591  1.00  0.00     0.169 HD
HETATM   29  O   UNL     1       7.870  26.430  53.239  1.00  0.00    -0.271 OA
BRANCH  27  30
HETATM   30  C   UNL     1       5.380  27.199  51.838  1.00  0.00     0.036 A 
HETATM   31  C   UNL     1       5.048  26.498  50.677  1.00  0.00     0.053 A 
HETATM   32  C   UNL     1       4.905  27.170  49.456  1.00  0.00     0.042 A 
HETATM   33 CL   UNL     1       4.512  26.227  48.060  1.00  0.00    -0.084 Cl
HETATM   34  C   UNL     1       5.082  28.558  49.372  1.00  0.00    -0.040 A 
HETATM   35  C   UNL     1       4.938  29.302  48.075  1.00  0.00     0.050 C 
HETATM   36  C   UNL     1       5.420  29.255  50.539  1.00  0.00     0.011 A 
HETATM   37  C   UNL     1       5.571  28.583  51.756  1.00  0.00     0.030 A 
ENDBRANCH  27  30
ENDBRANCH  25  26
ENDBRANCH   7  25
TORSDOF 7
ENDMDL
MODEL 7
REMARK VINA RESULT:      -9.1      5.398     12.833
REMARK  7 active torsions:
REMARK  status: ('A' for Active; 'I' for Inactive)
REMARK    1  A    between atoms: C_2  and  N_3 
REMARK    2  A    between atoms: C_5  and  C_6 
REMARK    3  A    between atoms: C_6  and  N_7 
REMARK       I    between atoms: N_7  and  C_8 
REMARK    4  A    between atoms: C_8  and  C_9 
REMARK    5  A    between atoms: N_15  and  C_16 
REMARK    6  A    between atoms: C_16  and  C_17 
REMARK       I    between atoms: C_17  and  N_18 
REMARK    7  A    between atoms: N_18  and  C_19 
ROOT
HETATM    1  C   UNL     1       7.016  32.280  60.489  1.00  0.00     0.081 A 
HETATM    2  S   UNL     1       5.374  32.666  60.172  1.00  0.00    -0.063 SA
HETATM    3  C   UNL     1       5.163  33.381  61.695  1.00  0.00     0.116 A 
HETATM    4  C   UNL     1       6.305  33.314  62.460  1.00  0.00     0.075 A 
HETATM    5  C   UNL     1       6.270  33.964  63.766  1.00  0.00     0.262 A 
HETATM    6  O   UNL     1       7.232  33.983  64.529  1.00  0.00    -0.267 OA
HETATM    7  N   UNL     1       5.055  34.580  64.063  1.00  0.00    -0.299 N 
HETATM    8  C   UNL     1       3.994  34.555  63.178  1.00  0.00     0.214 A 
HETATM    9  N   UNL     1       3.986  33.963  62.028  1.00  0.00    -0.235 NA
HETATM   10  C   UNL     1       7.382  32.615  61.792  1.00  0.00    -0.021 A 
HETATM   11  C   UNL     1       8.734  32.361  62.385  1.00  0.00     0.051 C 
ENDROOT
BRANCH   1  12
HETATM   12  C   UNL     1       7.831  31.670  59.443  1.00  0.00     0.259 C 
HETATM   13  N   UNL     1       7.364  30.467  58.946  1.00  0.00    -0.354 N 
HETATM   14  H   UNL     1       6.463  30.176  59.318  1.00  0.00     0.162 HD
HETATM   15  O   UNL     1       8.879  32.155  59.014  1.00  0.00    -0.267 OA
BRANCH  13  16
HETATM   16  C   UNL     1       7.814  29.781  57.737  1.00  0.00     0.156 C 
BRANCH  16  17
HETATM   17  C   UNL     1       6.754  29.163  56.809  1.00  0.00     0.206 C 
HETATM   18  N   UNL     1       7.012  27.727  56.371  1.00  0.00    -0.066 N 
HETATM   19  H   UNL     1       7.726  27.832  55.620  1.00  0.00     0.280 HD
HETATM   20  C   UNL     1       5.694  27.277  55.775  1.00  0.00     0.235 C 
HETATM   21  C   UNL     1       4.632  28.185  56.390  1.00  0.00     0.030 C 
HETATM   22  C   UNL     1       5.356  29.076  57.390  1.00  0.00     0.036 C 
BRANCH  18  23
HETATM   23  C   UNL     1       7.567  26.772  57.396  1.00  0.00     0.231 C 
HETATM   24  C   UNL     1       6.865  25.428  57.290  1.00  0.00     0.034 C 
ENDBRANCH  18  23
ENDBRANCH  16  17
ENDBRANCH  13  16
ENDBRANCH   1  12
BRANCH   7  25
HETATM   25  C   UNL     1       4.988  35.427  65.243  1.00  0.00     0.236 C 
BRANCH  25  26
HETATM   26  C   UNL     1       5.196  34.560  66.494  1.00  0.00     0.240 C 
HETATM   27  N   UNL     1       6.192  35.051  67.326  1.00  0.00    -0.326 N 
HETATM   28  H   UNL     1       6.693  35.878  67.020  1.00  0.00     0.169 HD
HETATM   29  O   UNL     1       4.562  33.523  66.665  1.00  0.00    -0.271 OA
BRANCH  27  30
HETATM   30  C   UNL     1       6.612  34.506  68.559  1.00  0.00     0.036 A 
HETATM   31  C   UNL     1       5.875  33.575  69.295  1.00  0.00     0.053 A 
HETATM   32  C   UNL     1       6.360  33.088  70.516  1.00  0.00     0.042 A 
HETATM   33 CL   UNL     1       5.378  31.953  71.376  1.00  0.00    -0.084 Cl
HETATM   34  C   UNL     1       7.595  33.515  71.023  1.00  0.00    -0.040 A 
HETATM   35  C   UNL     1       8.137  33.011  72.330  1.00  0.00     0.050 C 
HETATM   36  C   UNL     1       8.327  34.452  70.283  1.00  0.00     0.011 A 
HETATM   37  C   UNL     1       7.839  34.944  69.068  1.00  0.00     0.030 A 
ENDBRANCH  27  30
ENDBRANCH  25  26
ENDBRANCH   7  25
TORSDOF 7
ENDMDL
MODEL 8
REMARK VINA RESULT:      -8.7      2.502      3.280
REMARK  7 active torsions:
REMARK  status: ('A' for Active; 'I' for Inactive)
REMARK    1  A    between atoms: C_2  and  N_3 
REMARK    2  A    between atoms: C_5  and  C_6 
REMARK    3  A    between atoms: C_6  and  N_7 
REMARK       I    between atoms: N_7  and  C_8 
REMARK    4  A    between atoms: C_8  and  C_9 
REMARK    5  A    between atoms: N_15  and  C_16 
REMARK    6  A    between atoms: C_16  and  C_17 
REMARK       I    between atoms: C_17  and  N_18 
REMARK    7  A    between atoms: N_18  and  C_19 
ROOT
HETATM    1  C   UNL     1       4.338  32.057  57.237  1.00  0.00     0.081 A 
HETATM    2  S   UNL     1       5.846  31.573  57.899  1.00  0.00    -0.063 SA
HETATM    3  C   UNL     1       6.051  30.348  56.745  1.00  0.00     0.116 A 
HETATM    4  C   UNL     1       4.986  30.272  55.876  1.00  0.00     0.075 A 
HETATM    5  C   UNL     1       5.082  29.302  54.790  1.00  0.00     0.262 A 
HETATM    6  O   UNL     1       4.202  29.156  53.946  1.00  0.00    -0.267 OA
HETATM    7  N   UNL     1       6.269  28.572  54.782  1.00  0.00    -0.299 N 
HETATM    8  C   UNL     1       7.248  28.769  55.736  1.00  0.00     0.214 A 
HETATM    9  N   UNL     1       7.179  29.598  56.726  1.00  0.00    -0.235 NA
HETATM   10  C   UNL     1       3.944  31.226  56.190  1.00  0.00    -0.021 A 
HETATM   11  C   UNL     1       2.654  31.359  55.440  1.00  0.00     0.051 C 
ENDROOT
BRANCH   1  12
HETATM   12  C   UNL     1       3.641  33.213  57.794  1.00  0.00     0.259 C 
HETATM   13  N   UNL     1       4.162  33.716  58.972  1.00  0.00    -0.354 N 
HETATM   14  H   UNL     1       5.020  33.264  59.283  1.00  0.00     0.162 HD
HETATM   15  O   UNL     1       2.643  33.727  57.287  1.00  0.00    -0.267 OA
BRANCH  13  16
HETATM   16  C   UNL     1       3.846  34.997  59.597  1.00  0.00     0.156 C 
BRANCH  16  17
HETATM   17  C   UNL     1       4.445  35.305  60.981  1.00  0.00     0.206 C 
HETATM   18  N   UNL     1       3.447  35.417  62.126  1.00  0.00    -0.066 N 
HETATM   19  H   UNL     1       3.045  36.370  61.998  1.00  0.00     0.280 HD
HETATM   20  C   UNL     1       4.305  35.379  63.374  1.00  0.00     0.235 C 
HETATM   21  C   UNL     1       5.603  34.690  62.959  1.00  0.00     0.030 C 
HETATM   22  C   UNL     1       5.423  34.272  61.507  1.00  0.00     0.036 C 
BRANCH  18  23
HETATM   23  C   UNL     1       2.300  34.440  62.153  1.00  0.00     0.231 C 
HETATM   24  C   UNL     1       2.059  33.959  63.574  1.00  0.00     0.034 C 
ENDBRANCH  18  23
ENDBRANCH  16  17
ENDBRANCH  13  16
ENDBRANCH   1  12
BRANCH   7  25
HETATM   25  C   UNL     1       6.548  27.733  53.627  1.00  0.00     0.236 C 
BRANCH  25  26
HETATM   26  C   UNL     1       6.374  26.260  54.025  1.00  0.00     0.240 C 
HETATM   27  N   UNL     1       7.583  25.589  54.136  1.00  0.00    -0.326 N 
HETATM   28  H   UNL     1       8.427  26.104  53.914  1.00  0.00     0.169 HD
HETATM   29  O   UNL     1       5.260  25.763  54.162  1.00  0.00    -0.271 OA
BRANCH  27  30
HETATM   30  C   UNL     1       7.773  24.239  54.505  1.00  0.00     0.036 A 
HETATM   31  C   UNL     1       7.760  23.172  53.604  1.00  0.00     0.053 A 
HETATM   32  C   UNL     1       7.949  21.858  54.053  1.00  0.00     0.042 A 
HETATM   33 CL   UNL     1       7.899  20.591  52.876  1.00  0.00    -0.084 Cl
HETATM   34  C   UNL     1       8.163  21.584  55.411  1.00  0.00    -0.040 A 
HETATM   35  C   UNL     1       8.365  20.185  55.918  1.00  0.00     0.050 C 
HETATM   36  C   UNL     1       8.170  22.658  56.310  1.00  0.00     0.011 A 
HETATM   37  C   UNL     1       7.973  23.968  55.863  1.00  0.00     0.030 A 
ENDBRANCH  27  30
ENDBRANCH  25  26
ENDBRANCH   7  25
TORSDOF 7
ENDMDL
MODEL 9
REMARK VINA RESULT:      -8.4      2.988      3.794
REMARK  7 active torsions:
REMARK  status: ('A' for Active; 'I' for Inactive)
REMARK    1  A    between atoms: C_2  and  N_3 
REMARK    2  A    between atoms: C_5  and  C_6 
REMARK    3  A    between atoms: C_6  and  N_7 
REMARK       I    between atoms: N_7  and  C_8 
REMARK    4  A    between atoms: C_8  and  C_9 
REMARK    5  A    between atoms: N_15  and  C_16 
REMARK    6  A    between atoms: C_16  and  C_17 
REMARK       I    between atoms: C_17  and  N_18 
REMARK    7  A    between atoms: N_18  and  C_19 
ROOT
HETATM    1  C   UNL     1       4.898  31.590  58.014  1.00  0.00     0.081 A 
HETATM    2  S   UNL     1       6.575  31.315  58.256  1.00  0.00    -0.063 SA
HETATM    3  C   UNL     1       6.638  30.128  57.047  1.00  0.00     0.116 A 
HETATM    4  C   UNL     1       5.406  29.909  56.474  1.00  0.00     0.075 A 
HETATM    5  C   UNL     1       5.348  28.960  55.366  1.00  0.00     0.262 A 
HETATM    6  O   UNL     1       4.309  28.696  54.768  1.00  0.00    -0.267 OA
HETATM    7  N   UNL     1       6.579  28.397  55.033  1.00  0.00    -0.299 N 
HETATM    8  C   UNL     1       7.735  28.725  55.715  1.00  0.00     0.214 A 
HETATM    9  N   UNL     1       7.813  29.538  56.718  1.00  0.00    -0.235 NA
HETATM   10  C   UNL     1       4.363  30.713  57.073  1.00  0.00    -0.021 A 
HETATM   11  C   UNL     1       2.918  30.670  56.678  1.00  0.00     0.051 C 
ENDROOT
BRANCH   1  12
HETATM   12  C   UNL     1       4.221  32.642  58.768  1.00  0.00     0.259 C 
HETATM   13  N   UNL     1       3.767  33.714  58.023  1.00  0.00    -0.354 N 
HETATM   14  H   UNL     1       3.894  33.617  57.018  1.00  0.00     0.162 HD
HETATM   15  O   UNL     1       4.059  32.619  59.989  1.00  0.00    -0.267 OA
BRANCH  13  16
HETATM   16  C   UNL     1       2.839  34.756  58.457  1.00  0.00     0.156 C 
BRANCH  16  17
HETATM   17  C   UNL     1       3.271  36.226  58.315  1.00  0.00     0.206 C 
HETATM   18  N   UNL     1       3.551  36.963  59.618  1.00  0.00    -0.066 N 
HETATM   19  H   UNL     1       2.597  37.192  59.972  1.00  0.00     0.280 HD
HETATM   20  C   UNL     1       4.261  38.229  59.185  1.00  0.00     0.235 C 
HETATM   21  C   UNL     1       4.860  37.916  57.815  1.00  0.00     0.030 C 
HETATM   22  C   UNL     1       4.552  36.453  57.536  1.00  0.00     0.036 C 
BRANCH  18  23
HETATM   23  C   UNL     1       4.270  36.211  60.708  1.00  0.00     0.231 C 
HETATM   24  C   UNL     1       3.606  36.474  62.049  1.00  0.00     0.034 C 
ENDBRANCH  18  23
ENDBRANCH  16  17
ENDBRANCH  13  16
ENDBRANCH   1  12
BRANCH   7  25
HETATM   25  C   UNL     1       6.662  27.604  53.818  1.00  0.00     0.236 C 
BRANCH  25  26
HETATM   26  C   UNL     1       6.499  26.119  54.177  1.00  0.00     0.240 C 
HETATM   27  N   UNL     1       7.707  25.436  54.189  1.00  0.00    -0.326 N 
HETATM   28  H   UNL     1       8.540  25.952  53.929  1.00  0.00     0.169 HD
HETATM   29  O   UNL     1       5.392  25.626  54.369  1.00  0.00    -0.271 OA
BRANCH  27  30
HETATM   30  C   UNL     1       7.907  24.072  54.500  1.00  0.00     0.036 A 
HETATM   31  C   UNL     1       7.980  23.055  53.547  1.00  0.00     0.053 A 
HETATM   32  C   UNL     1       8.174  21.724  53.939  1.00  0.00     0.042 A 
HETATM   33 CL   UNL     1       8.234  20.520  52.699  1.00  0.00    -0.084 Cl
HETATM   34  C   UNL     1       8.304  21.383  55.293  1.00  0.00    -0.040 A 
HETATM   35  C   UNL     1       8.508  19.964  55.741  1.00  0.00     0.050 C 
HETATM   36  C   UNL     1       8.224  22.408  56.245  1.00  0.00     0.011 A 
HETATM   37  C   UNL     1       8.023  23.735  55.853  1.00  0.00     0.030 A 
ENDBRANCH  27  30
ENDBRANCH  25  26
ENDBRANCH   7  25
TORSDOF 7
ENDMDL
MODEL 10
REMARK VINA RESULT:      -8.3      6.859     11.957
REMARK  7 active torsions:
REMARK  status: ('A' for Active; 'I' for Inactive)
REMARK    1  A    between atoms: C_2  and  N_3 
REMARK    2  A    between atoms: C_5  and  C_6 
REMARK    3  A    between atoms: C_6  and  N_7 
REMARK       I    between atoms: N_7  and  C_8 
REMARK    4  A    between atoms: C_8  and  C_9 
REMARK    5  A    between atoms: N_15  and  C_16 
REMARK    6  A    between atoms: C_16  and  C_17 
REMARK       I    between atoms: C_17  and  N_18 
REMARK    7  A    between atoms: N_18  and  C_19 
ROOT
HETATM    1  C   UNL     1       1.877  28.501  48.184  1.00  0.00     0.081 A 
HETATM    2  S   UNL     1       3.012  27.310  47.695  1.00  0.00    -0.063 SA
HETATM    3  C   UNL     1       3.816  27.346  49.187  1.00  0.00     0.116 A 
HETATM    4  C   UNL     1       3.262  28.264  50.051  1.00  0.00     0.075 A 
HETATM    5  C   UNL     1       3.823  28.334  51.396  1.00  0.00     0.262 A 
HETATM    6  O   UNL     1       3.401  29.103  52.256  1.00  0.00    -0.267 OA
HETATM    7  N   UNL     1       4.864  27.438  51.626  1.00  0.00    -0.299 N 
HETATM    8  C   UNL     1       5.309  26.573  50.644  1.00  0.00     0.214 A 
HETATM    9  N   UNL     1       4.852  26.509  49.435  1.00  0.00    -0.235 NA
HETATM   10  C   UNL     1       2.164  28.995  49.456  1.00  0.00    -0.021 A 
HETATM   11  C   UNL     1       1.386  30.076  50.141  1.00  0.00     0.051 C 
ENDROOT
BRANCH   1  12
HETATM   12  C   UNL     1       0.787  28.874  47.286  1.00  0.00     0.259 C 
HETATM   13  N   UNL     1       0.479  27.952  46.304  1.00  0.00    -0.354 N 
HETATM   14  H   UNL     1       1.003  27.080  46.360  1.00  0.00     0.162 HD
HETATM   15  O   UNL     1       0.169  29.937  47.357  1.00  0.00    -0.267 OA
BRANCH  13  16
HETATM   16  C   UNL     1      -0.710  27.934  45.456  1.00  0.00     0.156 C 
BRANCH  16  17
HETATM   17  C   UNL     1      -0.930  29.101  44.478  1.00  0.00     0.206 C 
HETATM   18  N   UNL     1      -0.754  28.771  43.001  1.00  0.00    -0.066 N 
HETATM   19  H   UNL     1       0.281  28.759  42.882  1.00  0.00     0.280 HD
HETATM   20  C   UNL     1      -1.346  29.964  42.279  1.00  0.00     0.235 C 
HETATM   21  C   UNL     1      -2.312  30.608  43.272  1.00  0.00     0.030 C 
HETATM   22  C   UNL     1      -2.315  29.718  44.506  1.00  0.00     0.036 C 
BRANCH  18  23
HETATM   23  C   UNL     1      -1.283  27.447  42.512  1.00  0.00     0.231 C 
HETATM   24  C   UNL     1      -0.372  26.890  41.431  1.00  0.00     0.034 C 
ENDBRANCH  18  23
ENDBRANCH  16  17
ENDBRANCH  13  16
ENDBRANCH   1  12
BRANCH   7  25
HETATM   25  C   UNL     1       5.348  27.285  52.989  1.00  0.00     0.236 C 
BRANCH  25  26
HETATM   26  C   UNL     1       5.486  25.789  53.307  1.00  0.00     0.240 C 
HETATM   27  N   UNL     1       6.803  25.406  53.517  1.00  0.00    -0.326 N 
HETATM   28  H   UNL     1       7.521  26.113  53.405  1.00  0.00     0.169 HD
HETATM   29  O   UNL     1       4.512  25.043  53.307  1.00  0.00    -0.271 OA
BRANCH  27  30
HETATM   30  C   UNL     1       7.268  24.114  53.849  1.00  0.00     0.036 A 
HETATM   31  C   UNL     1       7.505  23.679  55.155  1.00  0.00     0.053 A 
HETATM   32  C   UNL     1       7.974  22.381  55.399  1.00  0.00     0.042 A 
HETATM   33 CL   UNL     1       8.261  21.927  57.043  1.00  0.00    -0.084 Cl
HETATM   34  C   UNL     1       8.209  21.490  54.344  1.00  0.00    -0.040 A 
HETATM   35  C   UNL     1       8.715  20.095  54.578  1.00  0.00     0.050 C 
HETATM   36  C   UNL     1       7.975  21.933  53.036  1.00  0.00     0.011 A 
HETATM   37  C   UNL     1       7.514  23.231  52.792  1.00  0.00     0.030 A 
ENDBRANCH  27  30
ENDBRANCH  25  26
ENDBRANCH   7  25
TORSDOF 7
ENDMDL
