MODEL 1
REMARK VINA RESULT:      -8.1      0.000      0.000
REMARK  11 active torsions:
REMARK  status: ('A' for Active; 'I' for Inactive)
REMARK    1  A    between atoms: O_2  and  C_3 
REMARK    2  A    between atoms: C_6  and  C_7 
REMARK    3  A    between atoms: C_7  and  C_8 
REMARK       I    between atoms: C_8  and  N_9 
REMARK    4  A    between atoms: N_9  and  C_10 
REMARK    5  A    between atoms: C_10  and  N_11 
REMARK    6  A    between atoms: N_11  and  C_12 
REMARK    7  A    between atoms: C_13  and  C_14 
REMARK       I    between atoms: C_14  and  N_15 
REMARK    8  A    between atoms: N_15  and  C_16 
REMARK    9  A    between atoms: C_16  and  C_17 
REMARK   10  A    between atoms: C_17  and  C_18 
REMARK   11  A    between atoms: C_18  and  O_19 
ROOT
HETATM    1  N   UNL     1       5.959  28.460  54.612  1.00  0.00    -0.332 N 
HETATM    2  H   UNL     1       5.248  29.133  54.913  1.00  0.00     0.168 HD
ENDROOT
BRANCH   1   3
HETATM    3  C   UNL     1       5.841  28.169  53.264  1.00  0.00     0.178 C 
HETATM    4  S   UNL     1       4.854  28.865  52.111  1.00  0.00    -0.040 SA
BRANCH   3   5
HETATM    5  N   UNL     1       6.723  27.200  52.804  1.00  0.00    -0.303 N 
HETATM    6  C   UNL     1       6.438  25.881  52.474  1.00  0.00     0.228 C 
HETATM    7  O   UNL     1       5.293  25.470  52.291  1.00  0.00    -0.273 OA
HETATM    8  H   UNL     1       7.692  27.428  52.994  1.00  0.00     0.171 HD
BRANCH   6   9
HETATM    9  C   UNL     1       7.652  24.989  52.294  1.00  0.00     0.141 C 
BRANCH   9  10
HETATM   10  C   UNL     1       7.701  23.751  53.164  1.00  0.00    -0.049 A 
HETATM   11  C   UNL     1       7.974  22.473  52.654  1.00  0.00     0.010 A 
HETATM   12  C   UNL     1       8.029  21.357  53.500  1.00  0.00     0.037 A 
HETATM   13  C   UNL     1       7.848  21.506  54.873  1.00  0.00     0.068 A 
HETATM   14  C   UNL     1       7.620  22.781  55.393  1.00  0.00     0.037 A 
HETATM   15  C   UNL     1       7.547  23.893  54.550  1.00  0.00     0.010 A 
BRANCH  13  16
HETATM   16  O   UNL     1       7.885  20.507  55.805  1.00  0.00    -0.356 OA
HETATM   17  C   UNL     1       8.431  20.833  57.077  1.00  0.00     0.210 C 
ENDBRANCH  13  16
ENDBRANCH   9  10
ENDBRANCH   6   9
ENDBRANCH   3   5
ENDBRANCH   1   3
BRANCH   1  18
HETATM   18  C   UNL     1       6.424  27.613  55.650  1.00  0.00     0.050 A 
HETATM   19  C   UNL     1       7.719  27.585  56.197  1.00  0.00     0.058 A 
HETATM   20  C   UNL     1       8.041  26.611  57.162  1.00  0.00     0.019 A 
HETATM   21  C   UNL     1       7.080  25.712  57.625  1.00  0.00     0.001 A 
HETATM   22  C   UNL     1       5.780  25.790  57.144  1.00  0.00     0.002 A 
HETATM   23  C   UNL     1       5.454  26.738  56.172  1.00  0.00     0.030 A 
BRANCH  19  24
HETATM   24  C   UNL     1       8.773  28.613  55.976  1.00  0.00     0.253 C 
HETATM   25  N   UNL     1       9.580  28.899  57.058  1.00  0.00    -0.357 N 
HETATM   26  H   UNL     1       9.398  28.436  57.939  1.00  0.00     0.162 HD
HETATM   27  O   UNL     1       8.956  29.080  54.858  1.00  0.00    -0.268 OA
BRANCH  25  28
HETATM   28  C   UNL     1      10.696  29.815  56.956  1.00  0.00     0.125 C 
BRANCH  28  29
HETATM   29  C   UNL     1      10.527  31.065  57.815  1.00  0.00     0.046 C 
BRANCH  29  30
HETATM   30  C   UNL     1       9.207  31.113  58.574  1.00  0.00     0.165 C 
BRANCH  30  31
HETATM   31  O   UNL     1       9.070  32.388  59.198  1.00  0.00    -0.401 OA
HETATM   32  H   UNL     1       8.693  32.992  58.536  1.00  0.00     0.209 HD
ENDBRANCH  30  31
ENDBRANCH  29  30
ENDBRANCH  28  29
ENDBRANCH  25  28
ENDBRANCH  19  24
ENDBRANCH   1  18
TORSDOF 11
ENDMDL
MODEL 2
REMARK VINA RESULT:      -8.0      2.531      4.135
REMARK  11 active torsions:
REMARK  status: ('A' for Active; 'I' for Inactive)
REMARK    1  A    between atoms: O_2  and  C_3 
REMARK    2  A    between atoms: C_6  and  C_7 
REMARK    3  A    between atoms: C_7  and  C_8 
REMARK       I    between atoms: C_8  and  N_9 
REMARK    4  A    between atoms: N_9  and  C_10 
REMARK    5  A    between atoms: C_10  and  N_11 
REMARK    6  A    between atoms: N_11  and  C_12 
REMARK    7  A    between atoms: C_13  and  C_14 
REMARK       I    between atoms: C_14  and  N_15 
REMARK    8  A    between atoms: N_15  and  C_16 
REMARK    9  A    between atoms: C_16  and  C_17 
REMARK   10  A    between atoms: C_17  and  C_18 
REMARK   11  A    between atoms: C_18  and  O_19 
ROOT
HETATM    1  N   UNL     1       7.484  28.363  58.052  1.00  0.00    -0.332 N 
HETATM    2  H   UNL     1       7.727  27.399  58.291  1.00  0.00     0.168 HD
ENDROOT
BRANCH   1   3
HETATM    3  C   UNL     1       6.308  28.422  57.323  1.00  0.00     0.178 C 
HETATM    4  S   UNL     1       5.274  29.710  57.082  1.00  0.00    -0.040 SA
BRANCH   3   5
HETATM    5  N   UNL     1       5.988  27.251  56.649  1.00  0.00    -0.303 N 
HETATM    6  C   UNL     1       6.514  26.791  55.449  1.00  0.00     0.228 C 
HETATM    7  O   UNL     1       7.546  27.245  54.954  1.00  0.00    -0.273 OA
HETATM    8  H   UNL     1       5.101  26.857  56.945  1.00  0.00     0.171 HD
BRANCH   6   9
HETATM    9  C   UNL     1       5.755  25.641  54.815  1.00  0.00     0.141 C 
BRANCH   9  10
HETATM   10  C   UNL     1       6.579  24.426  54.442  1.00  0.00    -0.049 A 
HETATM   11  C   UNL     1       6.980  24.155  53.125  1.00  0.00     0.010 A 
HETATM   12  C   UNL     1       7.759  23.029  52.829  1.00  0.00     0.037 A 
HETATM   13  C   UNL     1       8.179  22.175  53.847  1.00  0.00     0.068 A 
HETATM   14  C   UNL     1       7.820  22.464  55.164  1.00  0.00     0.037 A 
HETATM   15  C   UNL     1       7.029  23.577  55.461  1.00  0.00     0.010 A 
BRANCH  13  16
HETATM   16  O   UNL     1       8.945  21.054  53.696  1.00  0.00    -0.356 OA
HETATM   17  C   UNL     1       8.782  20.027  54.666  1.00  0.00     0.210 C 
ENDBRANCH  13  16
ENDBRANCH   9  10
ENDBRANCH   6   9
ENDBRANCH   3   5
ENDBRANCH   1   3
BRANCH   1  18
HETATM   18  C   UNL     1       8.599  29.236  57.979  1.00  0.00     0.050 A 
HETATM   19  C   UNL     1       8.812  30.397  58.744  1.00  0.00     0.058 A 
HETATM   20  C   UNL     1       9.933  31.205  58.477  1.00  0.00     0.019 A 
HETATM   21  C   UNL     1      10.867  30.842  57.508  1.00  0.00     0.001 A 
HETATM   22  C   UNL     1      10.701  29.655  56.806  1.00  0.00     0.002 A 
HETATM   23  C   UNL     1       9.582  28.856  57.047  1.00  0.00     0.030 A 
BRANCH  19  24
HETATM   24  C   UNL     1       8.037  30.787  59.955  1.00  0.00     0.253 C 
HETATM   25  N   UNL     1       8.613  30.477  61.170  1.00  0.00    -0.357 N 
HETATM   26  H   UNL     1       9.492  29.977  61.180  1.00  0.00     0.162 HD
HETATM   27  O   UNL     1       7.007  31.441  59.846  1.00  0.00    -0.268 OA
BRANCH  25  28
HETATM   28  C   UNL     1       8.008  30.874  62.423  1.00  0.00     0.125 C 
BRANCH  28  29
HETATM   29  C   UNL     1       8.341  32.310  62.822  1.00  0.00     0.046 C 
BRANCH  29  30
HETATM   30  C   UNL     1       7.113  33.180  63.055  1.00  0.00     0.165 C 
BRANCH  30  31
HETATM   31  O   UNL     1       6.668  33.709  61.808  1.00  0.00    -0.401 OA
HETATM   32  H   UNL     1       7.402  34.229  61.439  1.00  0.00     0.209 HD
ENDBRANCH  30  31
ENDBRANCH  29  30
ENDBRANCH  28  29
ENDBRANCH  25  28
ENDBRANCH  19  24
ENDBRANCH   1  18
TORSDOF 11
ENDMDL
MODEL 3
REMARK VINA RESULT:      -8.0      4.433      9.209
REMARK  11 active torsions:
REMARK  status: ('A' for Active; 'I' for Inactive)
REMARK    1  A    between atoms: O_2  and  C_3 
REMARK    2  A    between atoms: C_6  and  C_7 
REMARK    3  A    between atoms: C_7  and  C_8 
REMARK       I    between atoms: C_8  and  N_9 
REMARK    4  A    between atoms: N_9  and  C_10 
REMARK    5  A    between atoms: C_10  and  N_11 
REMARK    6  A    between atoms: N_11  and  C_12 
REMARK    7  A    between atoms: C_13  and  C_14 
REMARK       I    between atoms: C_14  and  N_15 
REMARK    8  A    between atoms: N_15  and  C_16 
REMARK    9  A    between atoms: C_16  and  C_17 
REMARK   10  A    between atoms: C_17  and  C_18 
REMARK   11  A    between atoms: C_18  and  O_19 
ROOT
HETATM    1  N   UNL     1       7.984  29.851  57.600  1.00  0.00    -0.332 N 
HETATM    2  H   UNL     1       7.727  30.524  56.873  1.00  0.00     0.168 HD
ENDROOT
BRANCH   1   3
HETATM    3  C   UNL     1       9.165  30.210  58.227  1.00  0.00     0.178 C 
HETATM    4  S   UNL     1      10.693  30.398  57.582  1.00  0.00    -0.040 SA
BRANCH   3   5
HETATM    5  N   UNL     1       9.032  30.517  59.575  1.00  0.00    -0.303 N 
HETATM    6  C   UNL     1       9.062  31.773  60.167  1.00  0.00     0.228 C 
HETATM    7  O   UNL     1       8.943  32.817  59.526  1.00  0.00    -0.273 OA
HETATM    8  H   UNL     1       9.200  29.719  60.179  1.00  0.00     0.171 HD
BRANCH   6   9
HETATM    9  C   UNL     1       9.194  31.767  61.678  1.00  0.00     0.141 C 
BRANCH   9  10
HETATM   10  C   UNL     1       7.936  32.090  62.457  1.00  0.00    -0.049 A 
HETATM   11  C   UNL     1       6.662  31.665  62.052  1.00  0.00     0.010 A 
HETATM   12  C   UNL     1       5.527  31.970  62.814  1.00  0.00     0.037 A 
HETATM   13  C   UNL     1       5.651  32.674  64.011  1.00  0.00     0.068 A 
HETATM   14  C   UNL     1       6.920  33.061  64.441  1.00  0.00     0.037 A 
HETATM   15  C   UNL     1       8.052  32.774  63.675  1.00  0.00     0.010 A 
BRANCH  13  16
HETATM   16  O   UNL     1       4.630  33.027  64.849  1.00  0.00    -0.356 OA
HETATM   17  C   UNL     1       4.940  33.946  65.888  1.00  0.00     0.210 C 
ENDBRANCH  13  16
ENDBRANCH   9  10
ENDBRANCH   6   9
ENDBRANCH   3   5
ENDBRANCH   1   3
BRANCH   1  18
HETATM   18  C   UNL     1       7.474  28.546  57.381  1.00  0.00     0.050 A 
HETATM   19  C   UNL     1       6.121  28.174  57.287  1.00  0.00     0.058 A 
HETATM   20  C   UNL     1       5.786  26.813  57.161  1.00  0.00     0.019 A 
HETATM   21  C   UNL     1       6.774  25.833  57.071  1.00  0.00     0.001 A 
HETATM   22  C   UNL     1       8.111  26.206  57.085  1.00  0.00     0.002 A 
HETATM   23  C   UNL     1       8.457  27.551  57.229  1.00  0.00     0.030 A 
BRANCH  19  24
HETATM   24  C   UNL     1       4.977  29.114  57.136  1.00  0.00     0.253 C 
HETATM   25  N   UNL     1       4.710  29.927  58.219  1.00  0.00    -0.357 N 
HETATM   26  H   UNL     1       5.266  29.820  59.058  1.00  0.00     0.162 HD
HETATM   27  O   UNL     1       4.395  29.214  56.061  1.00  0.00    -0.268 OA
BRANCH  25  28
HETATM   28  C   UNL     1       3.681  30.943  58.175  1.00  0.00     0.125 C 
BRANCH  28  29
HETATM   29  C   UNL     1       3.959  32.120  59.106  1.00  0.00     0.046 C 
BRANCH  29  30
HETATM   30  C   UNL     1       5.025  33.076  58.584  1.00  0.00     0.165 C 
BRANCH  30  31
HETATM   31  O   UNL     1       6.211  32.341  58.290  1.00  0.00    -0.401 OA
HETATM   32  H   UNL     1       6.471  32.569  57.382  1.00  0.00     0.209 HD
ENDBRANCH  30  31
ENDBRANCH  29  30
ENDBRANCH  28  29
ENDBRANCH  25  28
ENDBRANCH  19  24
ENDBRANCH   1  18
TORSDOF 11
ENDMDL
MODEL 4
REMARK VINA RESULT:      -7.9      2.100      7.458
REMARK  11 active torsions:
REMARK  status: ('A' for Active; 'I' for Inactive)
REMARK    1  A    between atoms: O_2  and  C_3 
REMARK    2  A    between atoms: C_6  and  C_7 
REMARK    3  A    between atoms: C_7  and  C_8 
REMARK       I    between atoms: C_8  and  N_9 
REMARK    4  A    between atoms: N_9  and  C_10 
REMARK    5  A    between atoms: C_10  and  N_11 
REMARK    6  A    between atoms: N_11  and  C_12 
REMARK    7  A    between atoms: C_13  and  C_14 
REMARK       I    between atoms: C_14  and  N_15 
REMARK    8  A    between atoms: N_15  and  C_16 
REMARK    9  A    between atoms: C_16  and  C_17 
REMARK   10  A    between atoms: C_17  and  C_18 
REMARK   11  A    between atoms: C_18  and  O_19 
ROOT
HETATM    1  N   UNL     1       6.096  25.355  55.910  1.00  0.00    -0.332 N 
HETATM    2  H   UNL     1       5.223  24.938  56.241  1.00  0.00     0.168 HD
ENDROOT
BRANCH   1   3
HETATM    3  C   UNL     1       6.034  26.738  55.925  1.00  0.00     0.178 C 
HETATM    4  S   UNL     1       4.700  27.739  55.987  1.00  0.00    -0.040 SA
BRANCH   3   5
HETATM    5  N   UNL     1       7.270  27.371  55.957  1.00  0.00    -0.303 N 
HETATM    6  C   UNL     1       8.186  27.393  57.001  1.00  0.00     0.228 C 
HETATM    7  O   UNL     1       8.131  26.618  57.955  1.00  0.00    -0.273 OA
HETATM    8  H   UNL     1       7.363  28.089  55.247  1.00  0.00     0.171 HD
BRANCH   6   9
HETATM    9  C   UNL     1       9.302  28.411  56.854  1.00  0.00     0.141 C 
BRANCH   9  10
HETATM   10  C   UNL     1       9.238  29.606  57.781  1.00  0.00    -0.049 A 
HETATM   11  C   UNL     1      10.229  30.598  57.811  1.00  0.00     0.010 A 
HETATM   12  C   UNL     1      10.119  31.698  58.672  1.00  0.00     0.037 A 
HETATM   13  C   UNL     1       9.001  31.842  59.491  1.00  0.00     0.068 A 
HETATM   14  C   UNL     1       7.991  30.881  59.434  1.00  0.00     0.037 A 
HETATM   15  C   UNL     1       8.105  29.775  58.589  1.00  0.00     0.010 A 
BRANCH  13  16
HETATM   16  O   UNL     1       8.767  32.866  60.365  1.00  0.00    -0.356 OA
HETATM   17  C   UNL     1       7.611  32.761  61.186  1.00  0.00     0.210 C 
ENDBRANCH  13  16
ENDBRANCH   9  10
ENDBRANCH   6   9
ENDBRANCH   3   5
ENDBRANCH   1   3
BRANCH   1  18
HETATM   18  C   UNL     1       6.831  24.524  55.026  1.00  0.00     0.050 A 
HETATM   19  C   UNL     1       6.568  24.306  53.662  1.00  0.00     0.058 A 
HETATM   20  C   UNL     1       7.344  23.372  52.949  1.00  0.00     0.019 A 
HETATM   21  C   UNL     1       8.405  22.704  53.559  1.00  0.00     0.001 A 
HETATM   22  C   UNL     1       8.716  22.977  54.884  1.00  0.00     0.002 A 
HETATM   23  C   UNL     1       7.941  23.886  55.607  1.00  0.00     0.030 A 
BRANCH  19  24
HETATM   24  C   UNL     1       5.631  25.104  52.824  1.00  0.00     0.253 C 
HETATM   25  N   UNL     1       6.197  25.811  51.783  1.00  0.00    -0.357 N 
HETATM   26  H   UNL     1       7.202  25.784  51.664  1.00  0.00     0.162 HD
HETATM   27  O   UNL     1       4.421  25.031  53.008  1.00  0.00    -0.268 OA
BRANCH  25  28
HETATM   28  C   UNL     1       5.392  26.558  50.841  1.00  0.00     0.125 C 
BRANCH  28  29
HETATM   29  C   UNL     1       5.652  28.061  50.889  1.00  0.00     0.046 C 
BRANCH  29  30
HETATM   30  C   UNL     1       5.473  28.670  52.274  1.00  0.00     0.165 C 
BRANCH  30  31
HETATM   31  O   UNL     1       6.721  28.640  52.965  1.00  0.00    -0.401 OA
HETATM   32  H   UNL     1       7.349  28.159  52.400  1.00  0.00     0.209 HD
ENDBRANCH  30  31
ENDBRANCH  29  30
ENDBRANCH  28  29
ENDBRANCH  25  28
ENDBRANCH  19  24
ENDBRANCH   1  18
TORSDOF 11
ENDMDL
MODEL 5
REMARK VINA RESULT:      -7.6      2.259      3.134
REMARK  11 active torsions:
REMARK  status: ('A' for Active; 'I' for Inactive)
REMARK    1  A    between atoms: O_2  and  C_3 
REMARK    2  A    between atoms: C_6  and  C_7 
REMARK    3  A    between atoms: C_7  and  C_8 
REMARK       I    between atoms: C_8  and  N_9 
REMARK    4  A    between atoms: N_9  and  C_10 
REMARK    5  A    between atoms: C_10  and  N_11 
REMARK    6  A    between atoms: N_11  and  C_12 
REMARK    7  A    between atoms: C_13  and  C_14 
REMARK       I    between atoms: C_14  and  N_15 
REMARK    8  A    between atoms: N_15  and  C_16 
REMARK    9  A    between atoms: C_16  and  C_17 
REMARK   10  A    between atoms: C_17  and  C_18 
REMARK   11  A    between atoms: C_18  and  O_19 
ROOT
HETATM    1  N   UNL     1       5.287  29.087  57.060  1.00  0.00    -0.332 N 
HETATM    2  H   UNL     1       4.368  29.017  57.505  1.00  0.00     0.168 HD
ENDROOT
BRANCH   1   3
HETATM    3  C   UNL     1       5.292  30.042  56.057  1.00  0.00     0.178 C 
HETATM    4  S   UNL     1       4.924  31.668  56.140  1.00  0.00    -0.040 SA
BRANCH   3   5
HETATM    5  N   UNL     1       5.730  29.580  54.823  1.00  0.00    -0.303 N 
HETATM    6  C   UNL     1       4.980  28.956  53.835  1.00  0.00     0.228 C 
HETATM    7  O   UNL     1       3.749  28.973  53.819  1.00  0.00    -0.273 OA
HETATM    8  H   UNL     1       6.736  29.459  54.783  1.00  0.00     0.171 HD
BRANCH   6   9
HETATM    9  C   UNL     1       5.789  28.298  52.734  1.00  0.00     0.141 C 
BRANCH   9  10
HETATM   10  C   UNL     1       6.220  26.869  52.989  1.00  0.00    -0.049 A 
HETATM   11  C   UNL     1       7.550  26.513  53.257  1.00  0.00     0.010 A 
HETATM   12  C   UNL     1       7.901  25.179  53.507  1.00  0.00     0.037 A 
HETATM   13  C   UNL     1       6.923  24.186  53.529  1.00  0.00     0.068 A 
HETATM   14  C   UNL     1       5.592  24.541  53.307  1.00  0.00     0.037 A 
HETATM   15  C   UNL     1       5.241  25.867  53.040  1.00  0.00     0.010 A 
BRANCH  13  16
HETATM   16  O   UNL     1       7.128  22.856  53.767  1.00  0.00    -0.356 OA
HETATM   17  C   UNL     1       8.272  22.509  54.537  1.00  0.00     0.210 C 
ENDBRANCH  13  16
ENDBRANCH   9  10
ENDBRANCH   6   9
ENDBRANCH   3   5
ENDBRANCH   1   3
BRANCH   1  18
HETATM   18  C   UNL     1       6.054  27.897  57.134  1.00  0.00     0.050 A 
HETATM   19  C   UNL     1       7.433  27.797  57.388  1.00  0.00     0.058 A 
HETATM   20  C   UNL     1       8.057  26.537  57.332  1.00  0.00     0.019 A 
HETATM   21  C   UNL     1       7.320  25.379  57.088  1.00  0.00     0.001 A 
HETATM   22  C   UNL     1       5.945  25.466  56.916  1.00  0.00     0.002 A 
HETATM   23  C   UNL     1       5.317  26.713  56.948  1.00  0.00     0.030 A 
BRANCH  19  24
HETATM   24  C   UNL     1       8.301  28.900  57.886  1.00  0.00     0.253 C 
HETATM   25  N   UNL     1       7.935  29.464  59.091  1.00  0.00    -0.357 N 
HETATM   26  H   UNL     1       7.094  29.136  59.549  1.00  0.00     0.162 HD
HETATM   27  O   UNL     1       9.333  29.192  57.292  1.00  0.00    -0.268 OA
BRANCH  25  28
HETATM   28  C   UNL     1       8.738  30.485  59.730  1.00  0.00     0.125 C 
BRANCH  28  29
HETATM   29  C   UNL     1       7.980  31.260  60.804  1.00  0.00     0.046 C 
BRANCH  29  30
HETATM   30  C   UNL     1       8.212  30.736  62.216  1.00  0.00     0.165 C 
BRANCH  30  31
HETATM   31  O   UNL     1       9.079  29.605  62.160  1.00  0.00    -0.401 OA
HETATM   32  H   UNL     1       8.984  29.215  61.275  1.00  0.00     0.209 HD
ENDBRANCH  30  31
ENDBRANCH  29  30
ENDBRANCH  28  29
ENDBRANCH  25  28
ENDBRANCH  19  24
ENDBRANCH   1  18
TORSDOF 11
ENDMDL
MODEL 6
REMARK VINA RESULT:      -7.6      4.326      9.867
REMARK  11 active torsions:
REMARK  status: ('A' for Active; 'I' for Inactive)
REMARK    1  A    between atoms: O_2  and  C_3 
REMARK    2  A    between atoms: C_6  and  C_7 
REMARK    3  A    between atoms: C_7  and  C_8 
REMARK       I    between atoms: C_8  and  N_9 
REMARK    4  A    between atoms: N_9  and  C_10 
REMARK    5  A    between atoms: C_10  and  N_11 
REMARK    6  A    between atoms: N_11  and  C_12 
REMARK    7  A    between atoms: C_13  and  C_14 
REMARK       I    between atoms: C_14  and  N_15 
REMARK    8  A    between atoms: N_15  and  C_16 
REMARK    9  A    between atoms: C_16  and  C_17 
REMARK   10  A    between atoms: C_17  and  C_18 
REMARK   11  A    between atoms: C_18  and  O_19 
ROOT
HETATM    1  N   UNL     1       7.625  29.188  58.385  1.00  0.00    -0.332 N 
HETATM    2  H   UNL     1       7.224  28.708  59.195  1.00  0.00     0.168 HD
ENDROOT
BRANCH   1   3
HETATM    3  C   UNL     1       8.749  29.917  58.736  1.00  0.00     0.178 C 
HETATM    4  S   UNL     1      10.055  30.368  57.799  1.00  0.00    -0.040 SA
BRANCH   3   5
HETATM    5  N   UNL     1       8.745  30.390  60.042  1.00  0.00    -0.303 N 
HETATM    6  C   UNL     1       8.842  31.708  60.468  1.00  0.00     0.228 C 
HETATM    7  O   UNL     1       8.675  32.668  59.716  1.00  0.00    -0.273 OA
HETATM    8  H   UNL     1       8.960  29.669  60.722  1.00  0.00     0.171 HD
BRANCH   6   9
HETATM    9  C   UNL     1       9.114  31.885  61.950  1.00  0.00     0.141 C 
BRANCH   9  10
HETATM   10  C   UNL     1       7.921  32.257  62.805  1.00  0.00    -0.049 A 
HETATM   11  C   UNL     1       8.019  33.105  63.919  1.00  0.00     0.010 A 
HETATM   12  C   UNL     1       6.885  33.438  64.670  1.00  0.00     0.037 A 
HETATM   13  C   UNL     1       5.629  32.959  64.300  1.00  0.00     0.068 A 
HETATM   14  C   UNL     1       5.519  32.152  63.168  1.00  0.00     0.037 A 
HETATM   15  C   UNL     1       6.651  31.803  62.426  1.00  0.00     0.010 A 
BRANCH  13  16
HETATM   16  O   UNL     1       4.448  33.214  64.938  1.00  0.00    -0.356 OA
HETATM   17  C   UNL     1       4.522  33.911  66.175  1.00  0.00     0.210 C 
ENDBRANCH  13  16
ENDBRANCH   9  10
ENDBRANCH   6   9
ENDBRANCH   3   5
ENDBRANCH   1   3
BRANCH   1  18
HETATM   18  C   UNL     1       6.685  29.473  57.362  1.00  0.00     0.050 A 
HETATM   19  C   UNL     1       6.293  28.617  56.317  1.00  0.00     0.058 A 
HETATM   20  C   UNL     1       5.414  29.094  55.326  1.00  0.00     0.019 A 
HETATM   21  C   UNL     1       4.883  30.381  55.394  1.00  0.00     0.001 A 
HETATM   22  C   UNL     1       5.208  31.201  56.468  1.00  0.00     0.002 A 
HETATM   23  C   UNL     1       6.094  30.746  57.447  1.00  0.00     0.030 A 
BRANCH  19  24
HETATM   24  C   UNL     1       6.589  27.160  56.238  1.00  0.00     0.253 C 
HETATM   25  N   UNL     1       5.715  26.402  55.485  1.00  0.00    -0.357 N 
HETATM   26  H   UNL     1       4.913  26.854  55.065  1.00  0.00     0.162 HD
HETATM   27  O   UNL     1       7.616  26.709  56.732  1.00  0.00    -0.268 OA
BRANCH  25  28
HETATM   28  C   UNL     1       5.934  24.990  55.254  1.00  0.00     0.125 C 
BRANCH  28  29
HETATM   29  C   UNL     1       6.362  24.674  53.824  1.00  0.00     0.046 C 
BRANCH  29  30
HETATM   30  C   UNL     1       5.379  25.164  52.768  1.00  0.00     0.165 C 
BRANCH  30  31
HETATM   31  O   UNL     1       4.052  25.069  53.282  1.00  0.00    -0.401 OA
HETATM   32  H   UNL     1       3.691  25.971  53.311  1.00  0.00     0.209 HD
ENDBRANCH  30  31
ENDBRANCH  29  30
ENDBRANCH  28  29
ENDBRANCH  25  28
ENDBRANCH  19  24
ENDBRANCH   1  18
TORSDOF 11
ENDMDL
MODEL 7
REMARK VINA RESULT:      -7.6      2.611      7.412
REMARK  11 active torsions:
REMARK  status: ('A' for Active; 'I' for Inactive)
REMARK    1  A    between atoms: O_2  and  C_3 
REMARK    2  A    between atoms: C_6  and  C_7 
REMARK    3  A    between atoms: C_7  and  C_8 
REMARK       I    between atoms: C_8  and  N_9 
REMARK    4  A    between atoms: N_9  and  C_10 
REMARK    5  A    between atoms: C_10  and  N_11 
REMARK    6  A    between atoms: N_11  and  C_12 
REMARK    7  A    between atoms: C_13  and  C_14 
REMARK       I    between atoms: C_14  and  N_15 
REMARK    8  A    between atoms: N_15  and  C_16 
REMARK    9  A    between atoms: C_16  and  C_17 
REMARK   10  A    between atoms: C_17  and  C_18 
REMARK   11  A    between atoms: C_18  and  O_19 
ROOT
HETATM    1  N   UNL     1       7.012  24.080  55.759  1.00  0.00    -0.332 N 
HETATM    2  H   UNL     1       6.178  24.599  55.470  1.00  0.00     0.168 HD
ENDROOT
BRANCH   1   3
HETATM    3  C   UNL     1       7.839  24.854  56.555  1.00  0.00     0.178 C 
HETATM    4  S   UNL     1       8.830  24.393  57.816  1.00  0.00    -0.040 SA
BRANCH   3   5
HETATM    5  N   UNL     1       7.891  26.195  56.199  1.00  0.00    -0.303 N 
HETATM    6  C   UNL     1       6.975  26.909  55.439  1.00  0.00     0.228 C 
HETATM    7  O   UNL     1       5.840  26.496  55.199  1.00  0.00    -0.273 OA
HETATM    8  H   UNL     1       8.821  26.591  56.291  1.00  0.00     0.171 HD
BRANCH   6   9
HETATM    9  C   UNL     1       7.452  28.270  54.968  1.00  0.00     0.141 C 
BRANCH   9  10
HETATM   10  C   UNL     1       8.259  29.073  55.965  1.00  0.00    -0.049 A 
HETATM   11  C   UNL     1       9.617  29.371  55.779  1.00  0.00     0.010 A 
HETATM   12  C   UNL     1      10.321  30.135  56.720  1.00  0.00     0.037 A 
HETATM   13  C   UNL     1       9.671  30.642  57.843  1.00  0.00     0.068 A 
HETATM   14  C   UNL     1       8.310  30.385  58.011  1.00  0.00     0.037 A 
HETATM   15  C   UNL     1       7.609  29.610  57.085  1.00  0.00     0.010 A 
BRANCH  13  16
HETATM   16  O   UNL     1      10.236  31.404  58.827  1.00  0.00    -0.356 OA
HETATM   17  C   UNL     1       9.350  32.015  59.756  1.00  0.00     0.210 C 
ENDBRANCH  13  16
ENDBRANCH   9  10
ENDBRANCH   6   9
ENDBRANCH   3   5
ENDBRANCH   1   3
BRANCH   1  18
HETATM   18  C   UNL     1       7.382  23.044  54.864  1.00  0.00     0.050 A 
HETATM   19  C   UNL     1       7.427  23.119  53.460  1.00  0.00     0.058 A 
HETATM   20  C   UNL     1       7.727  21.963  52.715  1.00  0.00     0.019 A 
HETATM   21  C   UNL     1       8.037  20.760  53.348  1.00  0.00     0.001 A 
HETATM   22  C   UNL     1       8.071  20.703  54.735  1.00  0.00     0.002 A 
HETATM   23  C   UNL     1       7.755  21.838  55.485  1.00  0.00     0.030 A 
BRANCH  19  24
HETATM   24  C   UNL     1       7.348  24.372  52.660  1.00  0.00     0.253 C 
HETATM   25  N   UNL     1       6.082  24.878  52.444  1.00  0.00    -0.357 N 
HETATM   26  H   UNL     1       5.285  24.364  52.797  1.00  0.00     0.162 HD
HETATM   27  O   UNL     1       8.372  24.956  52.322  1.00  0.00    -0.268 OA
BRANCH  25  28
HETATM   28  C   UNL     1       5.869  26.133  51.757  1.00  0.00     0.125 C 
BRANCH  28  29
HETATM   29  C   UNL     1       4.967  26.002  50.533  1.00  0.00     0.046 C 
BRANCH  29  30
HETATM   30  C   UNL     1       4.602  27.337  49.895  1.00  0.00     0.165 C 
BRANCH  30  31
HETATM   31  O   UNL     1       5.794  27.999  49.477  1.00  0.00    -0.401 OA
HETATM   32  H   UNL     1       6.492  27.758  50.109  1.00  0.00     0.209 HD
ENDBRANCH  30  31
ENDBRANCH  29  30
ENDBRANCH  28  29
ENDBRANCH  25  28
ENDBRANCH  19  24
ENDBRANCH   1  18
TORSDOF 11
ENDMDL
MODEL 8
REMARK VINA RESULT:      -7.4      2.763      6.559
REMARK  11 active torsions:
REMARK  status: ('A' for Active; 'I' for Inactive)
REMARK    1  A    between atoms: O_2  and  C_3 
REMARK    2  A    between atoms: C_6  and  C_7 
REMARK    3  A    between atoms: C_7  and  C_8 
REMARK       I    between atoms: C_8  and  N_9 
REMARK    4  A    between atoms: N_9  and  C_10 
REMARK    5  A    between atoms: C_10  and  N_11 
REMARK    6  A    between atoms: N_11  and  C_12 
REMARK    7  A    between atoms: C_13  and  C_14 
REMARK       I    between atoms: C_14  and  N_15 
REMARK    8  A    between atoms: N_15  and  C_16 
REMARK    9  A    between atoms: C_16  and  C_17 
REMARK   10  A    between atoms: C_17  and  C_18 
REMARK   11  A    between atoms: C_18  and  O_19 
ROOT
HETATM    1  N   UNL     1       6.140  28.773  53.491  1.00  0.00    -0.332 N 
HETATM    2  H   UNL     1       6.940  29.408  53.559  1.00  0.00     0.168 HD
ENDROOT
BRANCH   1   3
HETATM    3  C   UNL     1       5.203  29.034  54.476  1.00  0.00     0.178 C 
HETATM    4  S   UNL     1       3.996  30.186  54.512  1.00  0.00    -0.040 SA
BRANCH   3   5
HETATM    5  N   UNL     1       5.243  28.162  55.556  1.00  0.00    -0.303 N 
HETATM    6  C   UNL     1       6.269  28.000  56.478  1.00  0.00     0.228 C 
HETATM    7  O   UNL     1       7.182  28.814  56.613  1.00  0.00    -0.273 OA
HETATM    8  H   UNL     1       4.570  27.408  55.478  1.00  0.00     0.171 HD
BRANCH   6   9
HETATM    9  C   UNL     1       6.153  26.769  57.357  1.00  0.00     0.141 C 
BRANCH   9  10
HETATM   10  C   UNL     1       6.903  25.542  56.884  1.00  0.00    -0.049 A 
HETATM   11  C   UNL     1       6.320  24.563  56.066  1.00  0.00     0.010 A 
HETATM   12  C   UNL     1       7.058  23.452  55.636  1.00  0.00     0.037 A 
HETATM   13  C   UNL     1       8.400  23.321  55.986  1.00  0.00     0.068 A 
HETATM   14  C   UNL     1       8.998  24.313  56.763  1.00  0.00     0.037 A 
HETATM   15  C   UNL     1       8.260  25.413  57.209  1.00  0.00     0.010 A 
BRANCH  13  16
HETATM   16  O   UNL     1       9.231  22.297  55.628  1.00  0.00    -0.356 OA
HETATM   17  C   UNL     1       8.781  20.976  55.904  1.00  0.00     0.210 C 
ENDBRANCH  13  16
ENDBRANCH   9  10
ENDBRANCH   6   9
ENDBRANCH   3   5
ENDBRANCH   1   3
BRANCH   1  18
HETATM   18  C   UNL     1       6.445  27.527  52.885  1.00  0.00     0.050 A 
HETATM   19  C   UNL     1       5.753  26.915  51.825  1.00  0.00     0.058 A 
HETATM   20  C   UNL     1       6.133  25.626  51.404  1.00  0.00     0.019 A 
HETATM   21  C   UNL     1       7.220  24.972  51.982  1.00  0.00     0.001 A 
HETATM   22  C   UNL     1       7.954  25.608  52.975  1.00  0.00     0.002 A 
HETATM   23  C   UNL     1       7.574  26.878  53.415  1.00  0.00     0.030 A 
BRANCH  19  24
HETATM   24  C   UNL     1       4.732  27.575  50.964  1.00  0.00     0.253 C 
HETATM   25  N   UNL     1       4.790  27.280  49.617  1.00  0.00    -0.357 N 
HETATM   26  H   UNL     1       5.529  26.675  49.281  1.00  0.00     0.162 HD
HETATM   27  O   UNL     1       3.840  28.248  51.468  1.00  0.00    -0.268 OA
BRANCH  25  28
HETATM   28  C   UNL     1       3.807  27.785  48.683  1.00  0.00     0.125 C 
BRANCH  28  29
HETATM   29  C   UNL     1       2.679  26.796  48.405  1.00  0.00     0.046 C 
BRANCH  29  30
HETATM   30  C   UNL     1       3.140  25.523  47.705  1.00  0.00     0.165 C 
BRANCH  30  31
HETATM   31  O   UNL     1       2.823  25.609  46.317  1.00  0.00    -0.401 OA
HETATM   32  H   UNL     1       2.852  26.550  46.075  1.00  0.00     0.209 HD
ENDBRANCH  30  31
ENDBRANCH  29  30
ENDBRANCH  28  29
ENDBRANCH  25  28
ENDBRANCH  19  24
ENDBRANCH   1  18
TORSDOF 11
ENDMDL
MODEL 9
REMARK VINA RESULT:      -7.3      2.000      7.652
REMARK  11 active torsions:
REMARK  status: ('A' for Active; 'I' for Inactive)
REMARK    1  A    between atoms: O_2  and  C_3 
REMARK    2  A    between atoms: C_6  and  C_7 
REMARK    3  A    between atoms: C_7  and  C_8 
REMARK       I    between atoms: C_8  and  N_9 
REMARK    4  A    between atoms: N_9  and  C_10 
REMARK    5  A    between atoms: C_10  and  N_11 
REMARK    6  A    between atoms: N_11  and  C_12 
REMARK    7  A    between atoms: C_13  and  C_14 
REMARK       I    between atoms: C_14  and  N_15 
REMARK    8  A    between atoms: N_15  and  C_16 
REMARK    9  A    between atoms: C_16  and  C_17 
REMARK   10  A    between atoms: C_17  and  C_18 
REMARK   11  A    between atoms: C_18  and  O_19 
ROOT
HETATM    1  N   UNL     1       4.788  26.768  55.075  1.00  0.00    -0.332 N 
HETATM    2  H   UNL     1       3.828  26.471  55.269  1.00  0.00     0.168 HD
ENDROOT
BRANCH   1   3
HETATM    3  C   UNL     1       5.040  28.031  55.583  1.00  0.00     0.178 C 
HETATM    4  S   UNL     1       4.090  29.403  55.534  1.00  0.00    -0.040 SA
BRANCH   3   5
HETATM    5  N   UNL     1       6.230  28.141  56.290  1.00  0.00    -0.303 N 
HETATM    6  C   UNL     1       7.521  28.177  55.779  1.00  0.00     0.228 C 
HETATM    7  O   UNL     1       7.764  28.385  54.591  1.00  0.00    -0.273 OA
HETATM    8  H   UNL     1       6.129  27.902  57.271  1.00  0.00     0.171 HD
BRANCH   6   9
HETATM    9  C   UNL     1       8.623  27.997  56.806  1.00  0.00     0.141 C 
BRANCH   9  10
HETATM   10  C   UNL     1       8.950  29.212  57.650  1.00  0.00    -0.049 A 
HETATM   11  C   UNL     1      10.003  30.088  57.345  1.00  0.00     0.010 A 
HETATM   12  C   UNL     1      10.257  31.211  58.143  1.00  0.00     0.037 A 
HETATM   13  C   UNL     1       9.442  31.497  59.236  1.00  0.00     0.068 A 
HETATM   14  C   UNL     1       8.367  30.653  59.519  1.00  0.00     0.037 A 
HETATM   15  C   UNL     1       8.121  29.523  58.736  1.00  0.00     0.010 A 
BRANCH  13  16
HETATM   16  O   UNL     1       9.575  32.558  60.086  1.00  0.00    -0.356 OA
HETATM   17  C   UNL     1       8.541  32.750  61.043  1.00  0.00     0.210 C 
ENDBRANCH  13  16
ENDBRANCH   9  10
ENDBRANCH   6   9
ENDBRANCH   3   5
ENDBRANCH   1   3
BRANCH   1  18
HETATM   18  C   UNL     1       5.356  26.162  53.925  1.00  0.00     0.050 A 
HETATM   19  C   UNL     1       6.329  25.146  53.901  1.00  0.00     0.058 A 
HETATM   20  C   UNL     1       6.854  24.722  52.666  1.00  0.00     0.019 A 
HETATM   21  C   UNL     1       6.385  25.251  51.464  1.00  0.00     0.001 A 
HETATM   22  C   UNL     1       5.369  26.197  51.482  1.00  0.00     0.002 A 
HETATM   23  C   UNL     1       4.853  26.641  52.702  1.00  0.00     0.030 A 
BRANCH  19  24
HETATM   24  C   UNL     1       6.755  24.332  55.072  1.00  0.00     0.253 C 
HETATM   25  N   UNL     1       7.217  23.062  54.794  1.00  0.00    -0.357 N 
HETATM   26  H   UNL     1       7.207  22.738  53.835  1.00  0.00     0.162 HD
HETATM   27  O   UNL     1       6.786  24.828  56.193  1.00  0.00    -0.268 OA
BRANCH  25  28
HETATM   28  C   UNL     1       7.742  22.198  55.829  1.00  0.00     0.125 C 
BRANCH  28  29
HETATM   29  C   UNL     1       9.124  21.640  55.502  1.00  0.00     0.046 C 
BRANCH  29  30
HETATM   30  C   UNL     1       9.287  20.165  55.844  1.00  0.00     0.165 C 
BRANCH  30  31
HETATM   31  O   UNL     1       9.072  19.384  54.670  1.00  0.00    -0.401 OA
HETATM   32  H   UNL     1       9.919  18.963  54.448  1.00  0.00     0.209 HD
ENDBRANCH  30  31
ENDBRANCH  29  30
ENDBRANCH  28  29
ENDBRANCH  25  28
ENDBRANCH  19  24
ENDBRANCH   1  18
TORSDOF 11
ENDMDL
MODEL 10
REMARK VINA RESULT:      -7.1      2.469      5.518
REMARK  11 active torsions:
REMARK  status: ('A' for Active; 'I' for Inactive)
REMARK    1  A    between atoms: O_2  and  C_3 
REMARK    2  A    between atoms: C_6  and  C_7 
REMARK    3  A    between atoms: C_7  and  C_8 
REMARK       I    between atoms: C_8  and  N_9 
REMARK    4  A    between atoms: N_9  and  C_10 
REMARK    5  A    between atoms: C_10  and  N_11 
REMARK    6  A    between atoms: N_11  and  C_12 
REMARK    7  A    between atoms: C_13  and  C_14 
REMARK       I    between atoms: C_14  and  N_15 
REMARK    8  A    between atoms: N_15  and  C_16 
REMARK    9  A    between atoms: C_16  and  C_17 
REMARK   10  A    between atoms: C_17  and  C_18 
REMARK   11  A    between atoms: C_18  and  O_19 
ROOT
HETATM    1  N   UNL     1       6.701  28.669  54.216  1.00  0.00    -0.332 N 
HETATM    2  H   UNL     1       7.577  29.198  54.188  1.00  0.00     0.168 HD
ENDROOT
BRANCH   1   3
HETATM    3  C   UNL     1       6.055  28.824  55.431  1.00  0.00     0.178 C 
HETATM    4  S   UNL     1       4.949  29.981  55.904  1.00  0.00    -0.040 SA
BRANCH   3   5
HETATM    5  N   UNL     1       6.328  27.828  56.360  1.00  0.00    -0.303 N 
HETATM    6  C   UNL     1       7.547  27.531  56.953  1.00  0.00     0.228 C 
HETATM    7  O   UNL     1       8.508  28.300  56.928  1.00  0.00    -0.273 OA
HETATM    8  H   UNL     1       5.616  27.106  56.382  1.00  0.00     0.171 HD
BRANCH   6   9
HETATM    9  C   UNL     1       7.596  26.207  57.692  1.00  0.00     0.141 C 
BRANCH   9  10
HETATM   10  C   UNL     1       7.739  24.970  56.830  1.00  0.00    -0.049 A 
HETATM   11  C   UNL     1       8.935  24.244  56.735  1.00  0.00     0.010 A 
HETATM   12  C   UNL     1       9.017  23.093  55.939  1.00  0.00     0.037 A 
HETATM   13  C   UNL     1       7.895  22.630  55.255  1.00  0.00     0.068 A 
HETATM   14  C   UNL     1       6.690  23.323  55.381  1.00  0.00     0.037 A 
HETATM   15  C   UNL     1       6.610  24.480  56.159  1.00  0.00     0.010 A 
BRANCH  13  16
HETATM   16  O   UNL     1       7.837  21.522  54.457  1.00  0.00    -0.356 OA
HETATM   17  C   UNL     1       8.343  21.654  53.135  1.00  0.00     0.210 C 
ENDBRANCH  13  16
ENDBRANCH   9  10
ENDBRANCH   6   9
ENDBRANCH   3   5
ENDBRANCH   1   3
BRANCH   1  18
HETATM   18  C   UNL     1       6.684  27.541  53.357  1.00  0.00     0.050 A 
HETATM   19  C   UNL     1       5.688  27.211  52.420  1.00  0.00     0.058 A 
HETATM   20  C   UNL     1       5.781  25.998  51.712  1.00  0.00     0.019 A 
HETATM   21  C   UNL     1       6.873  25.147  51.881  1.00  0.00     0.001 A 
HETATM   22  C   UNL     1       7.896  25.509  52.748  1.00  0.00     0.002 A 
HETATM   23  C   UNL     1       7.806  26.700  53.471  1.00  0.00     0.030 A 
BRANCH  19  24
HETATM   24  C   UNL     1       4.597  28.116  51.965  1.00  0.00     0.253 C 
HETATM   25  N   UNL     1       4.635  28.496  50.639  1.00  0.00    -0.357 N 
HETATM   26  H   UNL     1       5.405  28.181  50.063  1.00  0.00     0.162 HD
HETATM   27  O   UNL     1       3.674  28.399  52.720  1.00  0.00    -0.268 OA
BRANCH  25  28
HETATM   28  C   UNL     1       3.590  29.302  50.046  1.00  0.00     0.125 C 
BRANCH  28  29
HETATM   29  C   UNL     1       4.117  30.562  49.365  1.00  0.00     0.046 C 
BRANCH  29  30
HETATM   30  C   UNL     1       5.634  30.696  49.414  1.00  0.00     0.165 C 
BRANCH  30  31
HETATM   31  O   UNL     1       6.030  31.066  50.733  1.00  0.00    -0.401 OA
HETATM   32  H   UNL     1       5.526  30.509  51.350  1.00  0.00     0.209 HD
ENDBRANCH  30  31
ENDBRANCH  29  30
ENDBRANCH  28  29
ENDBRANCH  25  28
ENDBRANCH  19  24
ENDBRANCH   1  18
TORSDOF 11
ENDMDL
