MODEL 1
REMARK VINA RESULT:      -9.1      0.000      0.000
REMARK  5 active torsions:
REMARK  status: ('A' for Active; 'I' for Inactive)
REMARK    1  A    between atoms: C_9  and  C_10 
REMARK       I    between atoms: C_10  and  N_11 
REMARK    2  A    between atoms: N_11  and  C_12 
REMARK    3  A    between atoms: C_12  and  C_13 
REMARK    4  A    between atoms: C_12  and  C_16 
REMARK    5  A    between atoms: C_19  and  O_20 
ROOT
HETATM    1  C   UNL     1       7.604  25.687  55.356  1.00  0.00     0.273 C 
HETATM    2  N   UNL     1       7.464  26.771  56.187  1.00  0.00    -0.346 N 
HETATM    3  O   UNL     1       7.484  25.740  54.135  1.00  0.00    -0.266 OA
HETATM    4  H   UNL     1       7.615  26.587  57.173  1.00  0.00     0.163 HD
ENDROOT
BRANCH   2   5
HETATM    5  C   UNL     1       7.230  28.115  55.727  1.00  0.00     0.122 C 
BRANCH   5   6
HETATM    6  C   UNL     1       5.773  28.514  55.828  1.00  0.00     0.013 A 
HETATM    7  C   UNL     1       5.180  29.543  54.891  1.00  0.00     0.007 A 
HETATM    8  C   UNL     1       4.712  28.115  54.823  1.00  0.00     0.007 A 
ENDBRANCH   5   6
BRANCH   5   9
HETATM    9  C   UNL     1       8.104  29.078  56.515  1.00  0.00    -0.035 A 
HETATM   10  C   UNL     1       7.577  29.749  57.628  1.00  0.00     0.012 A 
HETATM   11  C   UNL     1       8.358  30.659  58.344  1.00  0.00     0.037 A 
HETATM   12  C   UNL     1       9.675  30.925  57.963  1.00  0.00     0.068 A 
HETATM   13  C   UNL     1      10.208  30.268  56.855  1.00  0.00     0.037 A 
HETATM   14  C   UNL     1       9.428  29.353  56.137  1.00  0.00     0.012 A 
BRANCH  12  15
HETATM   15  O   UNL     1      10.324  31.838  58.747  1.00  0.00    -0.356 OA
HETATM   16  C   UNL     1       9.750  32.116  60.018  1.00  0.00     0.210 C 
ENDBRANCH  12  15
ENDBRANCH   5   9
ENDBRANCH   2   5
BRANCH   1  17
HETATM   17  C   UNL     1       7.923  24.449  56.087  1.00  0.00     0.157 A 
HETATM   18  C   UNL     1       8.053  23.133  55.551  1.00  0.00     0.029 A 
HETATM   19  C   UNL     1       7.940  22.538  54.278  1.00  0.00     0.023 A 
HETATM   20  C   UNL     1       8.378  22.331  56.638  1.00  0.00     0.063 A 
HETATM   21  C   UNL     1       8.154  21.157  54.138  1.00  0.00    -0.061 A 
HETATM   22  C   UNL     1       8.045  20.503  52.790  1.00  0.00     0.048 C 
HETATM   23  C   UNL     1       8.484  20.385  55.260  1.00  0.00     0.009 A 
HETATM   24  C   UNL     1       8.602  20.955  56.533  1.00  0.00     0.032 A 
HETATM   25  N   UNL     1       8.416  23.176  57.712  1.00  0.00    -0.277 N 
HETATM   26  H   UNL     1       8.625  22.933  58.673  1.00  0.00     0.189 HD
HETATM   27  N   UNL     1       8.144  24.460  57.422  1.00  0.00    -0.168 NA
ENDBRANCH   1  17
TORSDOF 5
ENDMDL
MODEL 2
REMARK VINA RESULT:      -8.8      2.752      4.320
REMARK  5 active torsions:
REMARK  status: ('A' for Active; 'I' for Inactive)
REMARK    1  A    between atoms: C_9  and  C_10 
REMARK       I    between atoms: C_10  and  N_11 
REMARK    2  A    between atoms: N_11  and  C_12 
REMARK    3  A    between atoms: C_12  and  C_13 
REMARK    4  A    between atoms: C_12  and  C_16 
REMARK    5  A    between atoms: C_19  and  O_20 
ROOT
HETATM    1  C   UNL     1       7.470  27.356  57.056  1.00  0.00     0.273 C 
HETATM    2  N   UNL     1       7.875  28.661  56.924  1.00  0.00    -0.346 N 
HETATM    3  O   UNL     1       7.907  26.585  57.905  1.00  0.00    -0.266 OA
HETATM    4  H   UNL     1       7.411  29.191  56.194  1.00  0.00     0.163 HD
ENDROOT
BRANCH   2   5
HETATM    5  C   UNL     1       8.809  29.308  57.808  1.00  0.00     0.122 C 
BRANCH   5   6
HETATM    6  C   UNL     1       9.909  30.030  57.060  1.00  0.00     0.013 A 
HETATM    7  C   UNL     1      10.900  30.910  57.789  1.00  0.00     0.007 A 
HETATM    8  C   UNL     1      11.373  29.646  57.126  1.00  0.00     0.007 A 
ENDBRANCH   5   6
BRANCH   5   9
HETATM    9  C   UNL     1       8.060  30.271  58.716  1.00  0.00    -0.035 A 
HETATM   10  C   UNL     1       6.980  31.010  58.213  1.00  0.00     0.012 A 
HETATM   11  C   UNL     1       6.301  31.920  59.026  1.00  0.00     0.037 A 
HETATM   12  C   UNL     1       6.689  32.120  60.352  1.00  0.00     0.068 A 
HETATM   13  C   UNL     1       7.764  31.395  60.863  1.00  0.00     0.037 A 
HETATM   14  C   UNL     1       8.445  30.480  60.050  1.00  0.00     0.012 A 
BRANCH  12  15
HETATM   15  O   UNL     1       5.943  33.042  61.034  1.00  0.00    -0.356 OA
HETATM   16  C   UNL     1       5.273  32.587  62.203  1.00  0.00     0.210 C 
ENDBRANCH  12  15
ENDBRANCH   5   9
ENDBRANCH   2   5
BRANCH   1  17
HETATM   17  C   UNL     1       6.443  26.979  56.069  1.00  0.00     0.157 A 
HETATM   18  C   UNL     1       6.534  25.969  55.065  1.00  0.00     0.029 A 
HETATM   19  C   UNL     1       7.507  25.041  54.642  1.00  0.00     0.023 A 
HETATM   20  C   UNL     1       5.307  25.995  54.414  1.00  0.00     0.063 A 
HETATM   21  C   UNL     1       7.217  24.170  53.578  1.00  0.00    -0.061 A 
HETATM   22  C   UNL     1       8.236  23.168  53.116  1.00  0.00     0.048 C 
HETATM   23  C   UNL     1       5.964  24.226  52.953  1.00  0.00     0.009 A 
HETATM   24  C   UNL     1       4.984  25.141  53.357  1.00  0.00     0.032 A 
HETATM   25  N   UNL     1       4.589  26.978  55.036  1.00  0.00    -0.277 N 
HETATM   26  H   UNL     1       3.644  27.272  54.824  1.00  0.00     0.189 HD
HETATM   27  N   UNL     1       5.240  27.597  56.036  1.00  0.00    -0.168 NA
ENDBRANCH   1  17
TORSDOF 5
ENDMDL
MODEL 3
REMARK VINA RESULT:      -8.5      2.290      7.404
REMARK  5 active torsions:
REMARK  status: ('A' for Active; 'I' for Inactive)
REMARK    1  A    between atoms: C_9  and  C_10 
REMARK       I    between atoms: C_10  and  N_11 
REMARK    2  A    between atoms: N_11  and  C_12 
REMARK    3  A    between atoms: C_12  and  C_13 
REMARK    4  A    between atoms: C_12  and  C_16 
REMARK    5  A    between atoms: C_19  and  O_20 
ROOT
HETATM    1  C   UNL     1       6.849  27.180  54.980  1.00  0.00     0.273 C 
HETATM    2  N   UNL     1       5.824  26.272  54.880  1.00  0.00    -0.346 N 
HETATM    3  O   UNL     1       7.783  27.249  54.186  1.00  0.00    -0.266 OA
HETATM    4  H   UNL     1       5.105  26.343  55.592  1.00  0.00     0.163 HD
ENDROOT
BRANCH   2   5
HETATM    5  C   UNL     1       5.680  25.336  53.795  1.00  0.00     0.122 C 
BRANCH   5   6
HETATM    6  C   UNL     1       5.933  25.972  52.445  1.00  0.00     0.013 A 
HETATM    7  C   UNL     1       5.101  25.597  51.238  1.00  0.00     0.007 A 
HETATM    8  C   UNL     1       5.013  26.989  51.801  1.00  0.00     0.007 A 
ENDBRANCH   5   6
BRANCH   5   9
HETATM    9  C   UNL     1       6.619  24.160  54.015  1.00  0.00    -0.035 A 
HETATM   10  C   UNL     1       6.849  23.682  55.313  1.00  0.00     0.012 A 
HETATM   11  C   UNL     1       7.731  22.622  55.534  1.00  0.00     0.037 A 
HETATM   12  C   UNL     1       8.408  22.023  54.470  1.00  0.00     0.068 A 
HETATM   13  C   UNL     1       8.191  22.492  53.175  1.00  0.00     0.037 A 
HETATM   14  C   UNL     1       7.306  23.553  52.951  1.00  0.00     0.012 A 
BRANCH  12  15
HETATM   15  O   UNL     1       9.244  21.000  54.826  1.00  0.00    -0.356 OA
HETATM   16  C   UNL     1       9.053  20.436  56.117  1.00  0.00     0.210 C 
ENDBRANCH  12  15
ENDBRANCH   5   9
ENDBRANCH   2   5
BRANCH   1  17
HETATM   17  C   UNL     1       6.703  28.072  56.143  1.00  0.00     0.157 A 
HETATM   18  C   UNL     1       7.729  28.810  56.805  1.00  0.00     0.029 A 
HETATM   19  C   UNL     1       9.122  28.971  56.657  1.00  0.00     0.023 A 
HETATM   20  C   UNL     1       7.080  29.504  57.818  1.00  0.00     0.063 A 
HETATM   21  C   UNL     1       9.817  29.822  57.532  1.00  0.00    -0.061 A 
HETATM   22  C   UNL     1      11.300  30.015  57.388  1.00  0.00     0.048 C 
HETATM   23  C   UNL     1       9.122  30.507  58.537  1.00  0.00     0.009 A 
HETATM   24  C   UNL     1       7.739  30.361  58.702  1.00  0.00     0.032 A 
HETATM   25  N   UNL     1       5.763  29.151  57.710  1.00  0.00    -0.277 N 
HETATM   26  H   UNL     1       4.995  29.472  58.288  1.00  0.00     0.189 HD
HETATM   27  N   UNL     1       5.496  28.288  56.715  1.00  0.00    -0.168 NA
ENDBRANCH   1  17
TORSDOF 5
ENDMDL
MODEL 4
REMARK VINA RESULT:      -8.5      4.446      6.808
REMARK  5 active torsions:
REMARK  status: ('A' for Active; 'I' for Inactive)
REMARK    1  A    between atoms: C_9  and  C_10 
REMARK       I    between atoms: C_10  and  N_11 
REMARK    2  A    between atoms: N_11  and  C_12 
REMARK    3  A    between atoms: C_12  and  C_13 
REMARK    4  A    between atoms: C_12  and  C_16 
REMARK    5  A    between atoms: C_19  and  O_20 
ROOT
HETATM    1  C   UNL     1       5.407  25.914  52.076  1.00  0.00     0.273 C 
HETATM    2  N   UNL     1       6.495  26.099  52.892  1.00  0.00    -0.346 N 
HETATM    3  O   UNL     1       4.642  24.957  52.160  1.00  0.00    -0.266 OA
HETATM    4  H   UNL     1       7.026  26.948  52.727  1.00  0.00     0.163 HD
ENDROOT
BRANCH   2   5
HETATM    5  C   UNL     1       6.835  25.233  53.991  1.00  0.00     0.122 C 
BRANCH   5   6
HETATM    6  C   UNL     1       7.998  24.320  53.668  1.00  0.00     0.013 A 
HETATM    7  C   UNL     1       8.137  22.969  54.336  1.00  0.00     0.007 A 
HETATM    8  C   UNL     1       7.877  23.047  52.857  1.00  0.00     0.007 A 
ENDBRANCH   5   6
BRANCH   5   9
HETATM    9  C   UNL     1       7.142  26.074  55.220  1.00  0.00    -0.035 A 
HETATM   10  C   UNL     1       7.365  27.452  55.087  1.00  0.00     0.012 A 
HETATM   11  C   UNL     1       7.676  28.233  56.202  1.00  0.00     0.037 A 
HETATM   12  C   UNL     1       7.781  27.657  57.470  1.00  0.00     0.068 A 
HETATM   13  C   UNL     1       7.566  26.288  57.615  1.00  0.00     0.037 A 
HETATM   14  C   UNL     1       7.251  25.503  56.498  1.00  0.00     0.012 A 
BRANCH  12  15
HETATM   15  O   UNL     1       8.096  28.533  58.472  1.00  0.00    -0.356 OA
HETATM   16  C   UNL     1       8.834  29.691  58.104  1.00  0.00     0.210 C 
ENDBRANCH  12  15
ENDBRANCH   5   9
ENDBRANCH   2   5
BRANCH   1  17
HETATM   17  C   UNL     1       5.248  26.997  51.089  1.00  0.00     0.157 A 
HETATM   18  C   UNL     1       4.626  26.918  49.808  1.00  0.00     0.029 A 
HETATM   19  C   UNL     1       3.997  25.914  49.043  1.00  0.00     0.023 A 
HETATM   20  C   UNL     1       4.717  28.201  49.282  1.00  0.00     0.063 A 
HETATM   21  C   UNL     1       3.481  26.231  47.775  1.00  0.00    -0.061 A 
HETATM   22  C   UNL     1       2.800  25.180  46.946  1.00  0.00     0.048 C 
HETATM   23  C   UNL     1       3.590  27.539  47.285  1.00  0.00     0.009 A 
HETATM   24  C   UNL     1       4.211  28.551  48.028  1.00  0.00     0.032 A 
HETATM   25  N   UNL     1       5.363  28.936  50.236  1.00  0.00    -0.277 N 
HETATM   26  H   UNL     1       5.600  29.920  50.193  1.00  0.00     0.189 HD
HETATM   27  N   UNL     1       5.703  28.246  51.338  1.00  0.00    -0.168 NA
ENDBRANCH   1  17
TORSDOF 5
ENDMDL
MODEL 5
REMARK VINA RESULT:      -8.3      1.937      2.445
REMARK  5 active torsions:
REMARK  status: ('A' for Active; 'I' for Inactive)
REMARK    1  A    between atoms: C_9  and  C_10 
REMARK       I    between atoms: C_10  and  N_11 
REMARK    2  A    between atoms: N_11  and  C_12 
REMARK    3  A    between atoms: C_12  and  C_13 
REMARK    4  A    between atoms: C_12  and  C_16 
REMARK    5  A    between atoms: C_19  and  O_20 
ROOT
HETATM    1  C   UNL     1       7.339  25.723  54.805  1.00  0.00     0.273 C 
HETATM    2  N   UNL     1       6.416  26.561  55.382  1.00  0.00    -0.346 N 
HETATM    3  O   UNL     1       7.826  25.904  53.693  1.00  0.00    -0.266 OA
HETATM    4  H   UNL     1       6.117  26.303  56.316  1.00  0.00     0.163 HD
ENDROOT
BRANCH   2   5
HETATM    5  C   UNL     1       5.960  27.790  54.787  1.00  0.00     0.122 C 
BRANCH   5   6
HETATM    6  C   UNL     1       4.716  27.597  53.945  1.00  0.00     0.013 A 
HETATM    7  C   UNL     1       4.357  28.577  52.850  1.00  0.00     0.007 A 
HETATM    8  C   UNL     1       4.734  27.166  52.493  1.00  0.00     0.007 A 
ENDBRANCH   5   6
BRANCH   5   9
HETATM    9  C   UNL     1       5.710  28.817  55.880  1.00  0.00    -0.035 A 
HETATM   10  C   UNL     1       4.398  29.114  56.274  1.00  0.00     0.012 A 
HETATM   11  C   UNL     1       4.152  30.077  57.256  1.00  0.00     0.037 A 
HETATM   12  C   UNL     1       5.205  30.769  57.857  1.00  0.00     0.068 A 
HETATM   13  C   UNL     1       6.513  30.487  57.469  1.00  0.00     0.037 A 
HETATM   14  C   UNL     1       6.763  29.521  56.487  1.00  0.00     0.012 A 
BRANCH  12  15
HETATM   15  O   UNL     1       4.823  31.687  58.798  1.00  0.00    -0.356 OA
HETATM   16  C   UNL     1       5.832  32.560  59.287  1.00  0.00     0.210 C 
ENDBRANCH  12  15
ENDBRANCH   5   9
ENDBRANCH   2   5
BRANCH   1  17
HETATM   17  C   UNL     1       7.689  24.583  55.670  1.00  0.00     0.157 A 
HETATM   18  C   UNL     1       7.926  23.234  55.273  1.00  0.00     0.029 A 
HETATM   19  C   UNL     1       7.920  22.515  54.061  1.00  0.00     0.023 A 
HETATM   20  C   UNL     1       8.236  22.561  56.448  1.00  0.00     0.063 A 
HETATM   21  C   UNL     1       8.223  21.143  54.068  1.00  0.00    -0.061 A 
HETATM   22  C   UNL     1       8.229  20.359  52.787  1.00  0.00     0.048 C 
HETATM   23  C   UNL     1       8.534  20.504  55.275  1.00  0.00     0.009 A 
HETATM   24  C   UNL     1       8.546  21.199  56.490  1.00  0.00     0.032 A 
HETATM   25  N   UNL     1       8.163  23.504  57.434  1.00  0.00    -0.277 N 
HETATM   26  H   UNL     1       8.332  23.368  58.424  1.00  0.00     0.189 HD
HETATM   27  N   UNL     1       7.833  24.735  57.007  1.00  0.00    -0.168 NA
ENDBRANCH   1  17
TORSDOF 5
ENDMDL
MODEL 6
REMARK VINA RESULT:      -8.3      2.293      3.394
REMARK  5 active torsions:
REMARK  status: ('A' for Active; 'I' for Inactive)
REMARK    1  A    between atoms: C_9  and  C_10 
REMARK       I    between atoms: C_10  and  N_11 
REMARK    2  A    between atoms: N_11  and  C_12 
REMARK    3  A    between atoms: C_12  and  C_13 
REMARK    4  A    between atoms: C_12  and  C_16 
REMARK    5  A    between atoms: C_19  and  O_20 
ROOT
HETATM    1  C   UNL     1       7.602  28.465  56.635  1.00  0.00     0.273 C 
HETATM    2  N   UNL     1       6.981  29.102  57.680  1.00  0.00    -0.346 N 
HETATM    3  O   UNL     1       8.068  29.045  55.658  1.00  0.00    -0.266 OA
HETATM    4  H   UNL     1       6.665  28.500  58.433  1.00  0.00     0.163 HD
ENDROOT
BRANCH   2   5
HETATM    5  C   UNL     1       6.862  30.532  57.796  1.00  0.00     0.122 C 
BRANCH   5   6
HETATM    6  C   UNL     1       5.442  31.013  57.589  1.00  0.00     0.013 A 
HETATM    7  C   UNL     1       5.152  32.275  56.807  1.00  0.00     0.007 A 
HETATM    8  C   UNL     1       4.707  30.944  56.266  1.00  0.00     0.007 A 
ENDBRANCH   5   6
BRANCH   5   9
HETATM    9  C   UNL     1       7.382  30.974  59.155  1.00  0.00    -0.035 A 
HETATM   10  C   UNL     1       6.802  32.073  59.803  1.00  0.00     0.012 A 
HETATM   11  C   UNL     1       7.288  32.508  61.038  1.00  0.00     0.037 A 
HETATM   12  C   UNL     1       8.366  31.865  61.648  1.00  0.00     0.068 A 
HETATM   13  C   UNL     1       8.955  30.774  61.011  1.00  0.00     0.037 A 
HETATM   14  C   UNL     1       8.468  30.334  59.774  1.00  0.00     0.012 A 
BRANCH  12  15
HETATM   15  O   UNL     1       8.743  32.395  62.851  1.00  0.00    -0.356 OA
HETATM   16  C   UNL     1       7.701  32.752  63.750  1.00  0.00     0.210 C 
ENDBRANCH  12  15
ENDBRANCH   5   9
ENDBRANCH   2   5
BRANCH   1  17
HETATM   17  C   UNL     1       7.656  27.003  56.814  1.00  0.00     0.157 A 
HETATM   18  C   UNL     1       7.643  26.004  55.796  1.00  0.00     0.029 A 
HETATM   19  C   UNL     1       7.573  25.987  54.388  1.00  0.00     0.023 A 
HETATM   20  C   UNL     1       7.731  24.795  56.476  1.00  0.00     0.063 A 
HETATM   21  C   UNL     1       7.591  24.757  53.709  1.00  0.00    -0.061 A 
HETATM   22  C   UNL     1       7.525  24.715  52.209  1.00  0.00     0.048 C 
HETATM   23  C   UNL     1       7.686  23.562  54.433  1.00  0.00     0.009 A 
HETATM   24  C   UNL     1       7.757  23.555  55.831  1.00  0.00     0.032 A 
HETATM   25  N   UNL     1       7.784  25.129  57.800  1.00  0.00    -0.277 N 
HETATM   26  H   UNL     1       7.855  24.496  58.588  1.00  0.00     0.189 HD
HETATM   27  N   UNL     1       7.738  26.450  58.045  1.00  0.00    -0.168 NA
ENDBRANCH   1  17
TORSDOF 5
ENDMDL
MODEL 7
REMARK VINA RESULT:      -8.2      9.779     14.572
REMARK  5 active torsions:
REMARK  status: ('A' for Active; 'I' for Inactive)
REMARK    1  A    between atoms: C_9  and  C_10 
REMARK       I    between atoms: C_10  and  N_11 
REMARK    2  A    between atoms: N_11  and  C_12 
REMARK    3  A    between atoms: C_12  and  C_13 
REMARK    4  A    between atoms: C_12  and  C_16 
REMARK    5  A    between atoms: C_19  and  O_20 
ROOT
HETATM    1  C   UNL     1       5.337  34.229  68.019  1.00  0.00     0.273 C 
HETATM    2  N   UNL     1       5.707  34.515  66.728  1.00  0.00    -0.346 N 
HETATM    3  O   UNL     1       4.288  33.669  68.323  1.00  0.00    -0.266 OA
HETATM    4  H   UNL     1       6.612  34.960  66.621  1.00  0.00     0.163 HD
ENDROOT
BRANCH   2   5
HETATM    5  C   UNL     1       4.945  34.130  65.568  1.00  0.00     0.122 C 
BRANCH   5   6
HETATM    6  C   UNL     1       4.292  35.314  64.887  1.00  0.00     0.013 A 
HETATM    7  C   UNL     1       4.586  36.729  65.333  1.00  0.00     0.007 A 
HETATM    8  C   UNL     1       5.021  36.271  63.968  1.00  0.00     0.007 A 
ENDBRANCH   5   6
BRANCH   5   9
HETATM    9  C   UNL     1       5.848  33.386  64.596  1.00  0.00    -0.035 A 
HETATM   10  C   UNL     1       5.286  32.551  63.620  1.00  0.00     0.012 A 
HETATM   11  C   UNL     1       6.104  31.839  62.739  1.00  0.00     0.037 A 
HETATM   12  C   UNL     1       7.494  31.936  62.818  1.00  0.00     0.068 A 
HETATM   13  C   UNL     1       8.064  32.760  63.787  1.00  0.00     0.037 A 
HETATM   14  C   UNL     1       7.247  33.477  64.670  1.00  0.00     0.012 A 
BRANCH  12  15
HETATM   15  O   UNL     1       8.174  31.183  61.900  1.00  0.00    -0.356 OA
HETATM   16  C   UNL     1       7.816  31.359  60.535  1.00  0.00     0.210 C 
ENDBRANCH  12  15
ENDBRANCH   5   9
ENDBRANCH   2   5
BRANCH   1  17
HETATM   17  C   UNL     1       6.342  34.663  69.005  1.00  0.00     0.157 A 
HETATM   18  C   UNL     1       6.904  33.894  70.067  1.00  0.00     0.029 A 
HETATM   19  C   UNL     1       6.754  32.582  70.562  1.00  0.00     0.023 A 
HETATM   20  C   UNL     1       7.809  34.744  70.690  1.00  0.00     0.063 A 
HETATM   21  C   UNL     1       7.516  32.168  71.668  1.00  0.00    -0.061 A 
HETATM   22  C   UNL     1       7.378  30.773  72.207  1.00  0.00     0.048 C 
HETATM   23  C   UNL     1       8.421  33.057  72.263  1.00  0.00     0.009 A 
HETATM   24  C   UNL     1       8.585  34.364  71.788  1.00  0.00     0.032 A 
HETATM   25  N   UNL     1       7.733  35.921  69.998  1.00  0.00    -0.277 N 
HETATM   26  H   UNL     1       8.259  36.769  70.175  1.00  0.00     0.189 HD
HETATM   27  N   UNL     1       6.858  35.913  68.978  1.00  0.00    -0.168 NA
ENDBRANCH   1  17
TORSDOF 5
ENDMDL
MODEL 8
REMARK VINA RESULT:      -8.2      2.311      4.125
REMARK  5 active torsions:
REMARK  status: ('A' for Active; 'I' for Inactive)
REMARK    1  A    between atoms: C_9  and  C_10 
REMARK       I    between atoms: C_10  and  N_11 
REMARK    2  A    between atoms: N_11  and  C_12 
REMARK    3  A    between atoms: C_12  and  C_13 
REMARK    4  A    between atoms: C_12  and  C_16 
REMARK    5  A    between atoms: C_19  and  O_20 
ROOT
HETATM    1  C   UNL     1       7.549  26.211  55.985  1.00  0.00     0.273 C 
HETATM    2  N   UNL     1       7.956  27.500  55.749  1.00  0.00    -0.346 N 
HETATM    3  O   UNL     1       7.149  25.808  57.074  1.00  0.00    -0.266 OA
HETATM    4  H   UNL     1       8.239  27.701  54.796  1.00  0.00     0.163 HD
ENDROOT
BRANCH   2   5
HETATM    5  C   UNL     1       7.899  28.556  56.727  1.00  0.00     0.122 C 
BRANCH   5   6
HETATM    6  C   UNL     1       9.040  29.540  56.582  1.00  0.00     0.013 A 
HETATM    7  C   UNL     1       9.628  30.235  57.790  1.00  0.00     0.007 A 
HETATM    8  C   UNL     1      10.464  29.256  57.012  1.00  0.00     0.007 A 
ENDBRANCH   5   6
BRANCH   5   9
HETATM    9  C   UNL     1       6.561  29.270  56.621  1.00  0.00    -0.035 A 
HETATM   10  C   UNL     1       5.950  29.784  57.773  1.00  0.00     0.012 A 
HETATM   11  C   UNL     1       4.707  30.418  57.696  1.00  0.00     0.037 A 
HETATM   12  C   UNL     1       4.045  30.543  56.473  1.00  0.00     0.068 A 
HETATM   13  C   UNL     1       4.640  30.031  55.322  1.00  0.00     0.037 A 
HETATM   14  C   UNL     1       5.887  29.398  55.396  1.00  0.00     0.012 A 
BRANCH  12  15
HETATM   15  O   UNL     1       2.835  31.179  56.540  1.00  0.00    -0.356 OA
HETATM   16  C   UNL     1       2.361  31.783  55.344  1.00  0.00     0.210 C 
ENDBRANCH  12  15
ENDBRANCH   5   9
ENDBRANCH   2   5
BRANCH   1  17
HETATM   17  C   UNL     1       7.635  25.360  54.786  1.00  0.00     0.157 A 
HETATM   18  C   UNL     1       7.767  23.941  54.737  1.00  0.00     0.029 A 
HETATM   19  C   UNL     1       7.867  22.896  55.677  1.00  0.00     0.023 A 
HETATM   20  C   UNL     1       7.785  23.626  53.383  1.00  0.00     0.063 A 
HETATM   21  C   UNL     1       7.983  21.569  55.229  1.00  0.00    -0.061 A 
HETATM   22  C   UNL     1       8.083  20.439  56.214  1.00  0.00     0.048 C 
HETATM   23  C   UNL     1       7.992  21.296  53.855  1.00  0.00     0.009 A 
HETATM   24  C   UNL     1       7.895  22.318  52.904  1.00  0.00     0.032 A 
HETATM   25  N   UNL     1       7.673  24.823  52.733  1.00  0.00    -0.277 N 
HETATM   26  H   UNL     1       7.648  24.975  51.732  1.00  0.00     0.189 HD
HETATM   27  N   UNL     1       7.583  25.892  53.543  1.00  0.00    -0.168 NA
ENDBRANCH   1  17
TORSDOF 5
ENDMDL
MODEL 9
REMARK VINA RESULT:      -8.2      2.742      5.391
REMARK  5 active torsions:
REMARK  status: ('A' for Active; 'I' for Inactive)
REMARK    1  A    between atoms: C_9  and  C_10 
REMARK       I    between atoms: C_10  and  N_11 
REMARK    2  A    between atoms: N_11  and  C_12 
REMARK    3  A    between atoms: C_12  and  C_13 
REMARK    4  A    between atoms: C_12  and  C_16 
REMARK    5  A    between atoms: C_19  and  O_20 
ROOT
HETATM    1  C   UNL     1       7.124  25.843  55.127  1.00  0.00     0.273 C 
HETATM    2  N   UNL     1       5.768  26.035  55.208  1.00  0.00    -0.346 N 
HETATM    3  O   UNL     1       7.877  26.550  54.463  1.00  0.00    -0.266 OA
HETATM    4  H   UNL     1       5.271  25.390  55.813  1.00  0.00     0.163 HD
ENDROOT
BRANCH   2   5
HETATM    5  C   UNL     1       5.069  27.128  54.583  1.00  0.00     0.122 C 
BRANCH   5   6
HETATM    6  C   UNL     1       5.673  28.472  54.929  1.00  0.00     0.013 A 
HETATM    7  C   UNL     1       4.795  29.660  55.259  1.00  0.00     0.007 A 
HETATM    8  C   UNL     1       5.677  29.067  56.323  1.00  0.00     0.007 A 
ENDBRANCH   5   6
BRANCH   5   9
HETATM    9  C   UNL     1       5.053  26.922  53.077  1.00  0.00    -0.035 A 
HETATM   10  C   UNL     1       5.091  28.030  52.219  1.00  0.00     0.012 A 
HETATM   11  C   UNL     1       5.048  27.859  50.833  1.00  0.00     0.037 A 
HETATM   12  C   UNL     1       4.957  26.583  50.275  1.00  0.00     0.068 A 
HETATM   13  C   UNL     1       4.913  25.473  51.117  1.00  0.00     0.037 A 
HETATM   14  C   UNL     1       4.959  25.642  52.506  1.00  0.00     0.012 A 
BRANCH  12  15
HETATM   15  O   UNL     1       4.918  26.558  48.907  1.00  0.00    -0.356 OA
HETATM   16  C   UNL     1       4.653  27.790  48.251  1.00  0.00     0.210 C 
ENDBRANCH  12  15
ENDBRANCH   5   9
ENDBRANCH   2   5
BRANCH   1  17
HETATM   17  C   UNL     1       7.584  24.697  55.931  1.00  0.00     0.157 A 
HETATM   18  C   UNL     1       7.800  23.358  55.489  1.00  0.00     0.029 A 
HETATM   19  C   UNL     1       7.675  22.656  54.273  1.00  0.00     0.023 A 
HETATM   20  C   UNL     1       8.245  22.674  56.613  1.00  0.00     0.063 A 
HETATM   21  C   UNL     1       7.999  21.290  54.226  1.00  0.00    -0.061 A 
HETATM   22  C   UNL     1       7.881  20.524  52.939  1.00  0.00     0.048 C 
HETATM   23  C   UNL     1       8.449  20.640  55.382  1.00  0.00     0.009 A 
HETATM   24  C   UNL     1       8.580  21.318  56.600  1.00  0.00     0.032 A 
HETATM   25  N   UNL     1       8.263  23.602  57.616  1.00  0.00    -0.277 N 
HETATM   26  H   UNL     1       8.540  23.456  58.580  1.00  0.00     0.189 HD
HETATM   27  N   UNL     1       7.869  24.833  57.246  1.00  0.00    -0.168 NA
ENDBRANCH   1  17
TORSDOF 5
ENDMDL
MODEL 10
REMARK VINA RESULT:      -8.2      2.294      7.983
REMARK  5 active torsions:
REMARK  status: ('A' for Active; 'I' for Inactive)
REMARK    1  A    between atoms: C_9  and  C_10 
REMARK       I    between atoms: C_10  and  N_11 
REMARK    2  A    between atoms: N_11  and  C_12 
REMARK    3  A    between atoms: C_12  and  C_13 
REMARK    4  A    between atoms: C_12  and  C_16 
REMARK    5  A    between atoms: C_19  and  O_20 
ROOT
HETATM    1  C   UNL     1       6.821  28.346  56.562  1.00  0.00     0.273 C 
HETATM    2  N   UNL     1       7.149  27.449  55.575  1.00  0.00    -0.346 N 
HETATM    3  O   UNL     1       5.676  28.538  56.961  1.00  0.00    -0.266 OA
HETATM    4  H   UNL     1       8.137  27.376  55.362  1.00  0.00     0.163 HD
ENDROOT
BRANCH   2   5
HETATM    5  C   UNL     1       6.201  26.573  54.936  1.00  0.00     0.122 C 
BRANCH   5   6
HETATM    6  C   UNL     1       5.628  27.169  53.668  1.00  0.00     0.013 A 
HETATM    7  C   UNL     1       4.482  26.498  52.941  1.00  0.00     0.007 A 
HETATM    8  C   UNL     1       4.273  27.841  53.585  1.00  0.00     0.007 A 
ENDBRANCH   5   6
BRANCH   5   9
HETATM    9  C   UNL     1       6.867  25.237  54.644  1.00  0.00    -0.035 A 
HETATM   10  C   UNL     1       6.825  24.212  55.600  1.00  0.00     0.012 A 
HETATM   11  C   UNL     1       7.456  22.990  55.359  1.00  0.00     0.037 A 
HETATM   12  C   UNL     1       8.149  22.767  54.167  1.00  0.00     0.068 A 
HETATM   13  C   UNL     1       8.202  23.780  53.212  1.00  0.00     0.037 A 
HETATM   14  C   UNL     1       7.568  25.005  53.450  1.00  0.00     0.012 A 
BRANCH  12  15
HETATM   15  O   UNL     1       8.724  21.530  54.062  1.00  0.00    -0.356 OA
HETATM   16  C   UNL     1       8.274  20.701  52.999  1.00  0.00     0.210 C 
ENDBRANCH  12  15
ENDBRANCH   5   9
ENDBRANCH   2   5
BRANCH   1  17
HETATM   17  C   UNL     1       7.998  29.052  57.099  1.00  0.00     0.157 A 
HETATM   18  C   UNL     1       8.012  30.119  58.045  1.00  0.00     0.029 A 
HETATM   19  C   UNL     1       7.047  30.856  58.761  1.00  0.00     0.023 A 
HETATM   20  C   UNL     1       9.356  30.417  58.234  1.00  0.00     0.063 A 
HETATM   21  C   UNL     1       7.462  31.869  59.642  1.00  0.00    -0.061 A 
HETATM   22  C   UNL     1       6.451  32.661  60.421  1.00  0.00     0.048 C 
HETATM   23  C   UNL     1       8.828  32.133  59.806  1.00  0.00     0.009 A 
HETATM   24  C   UNL     1       9.803  31.414  59.105  1.00  0.00     0.032 A 
HETATM   25  N   UNL     1      10.034  29.552  57.422  1.00  0.00    -0.277 N 
HETATM   26  H   UNL     1      11.039  29.482  57.306  1.00  0.00     0.189 HD
HETATM   27  N   UNL     1       9.252  28.715  56.719  1.00  0.00    -0.168 NA
ENDBRANCH   1  17
TORSDOF 5
ENDMDL
