MODEL 1
REMARK VINA RESULT:      -8.3      0.000      0.000
REMARK  3 active torsions:
REMARK  status: ('A' for Active; 'I' for Inactive)
REMARK       I    between atoms: C_2  and  N_3 
REMARK    1  A    between atoms: N_3  and  C_4 
REMARK    2  A    between atoms: C_6  and  N_7 
REMARK       I    between atoms: N_7  and  C_8 
REMARK    3  A    between atoms: C_8  and  C_9 
ROOT
HETATM    1  C   UNL     1       8.822  30.467  59.110  1.00  0.00     0.036 A 
HETATM    2  C   UNL     1       8.258  29.344  58.492  1.00  0.00     0.059 A 
HETATM    3  C   UNL     1       8.826  28.809  57.327  1.00  0.00     0.037 A 
HETATM    4  C   UNL     1       9.965  29.411  56.782  1.00  0.00     0.029 A 
HETATM    5  C   UNL     1      10.521  30.540  57.378  1.00  0.00     0.004 A 
HETATM    6  C   UNL     1       9.950  31.066  58.535  1.00  0.00     0.029 A 
ENDROOT
BRANCH   3   7
HETATM    7  N   UNL     1       8.333  27.671  56.662  1.00  0.00    -0.322 N 
HETATM    8  C   UNL     1       8.010  26.437  57.193  1.00  0.00     0.274 C 
HETATM    9  O   UNL     1       8.010  26.110  58.373  1.00  0.00    -0.266 OA
HETATM   10  H   UNL     1       8.187  27.737  55.657  1.00  0.00     0.169 HD
BRANCH   8  11
HETATM   11  C   UNL     1       7.608  25.440  56.148  1.00  0.00     0.126 A 
HETATM   12  N   UNL     1       7.103  25.957  54.989  1.00  0.00    -0.255 NA
HETATM   13  C   UNL     1       6.761  25.068  54.030  1.00  0.00     0.119 A 
HETATM   14  C   UNL     1       6.894  23.699  54.173  1.00  0.00     0.043 A 
HETATM   15  C   UNL     1       7.405  23.216  55.372  1.00  0.00     0.037 A 
HETATM   16 CL   UNL     1       7.585  21.518  55.594  1.00  0.00    -0.084 Cl
HETATM   17  C   UNL     1       7.774  24.086  56.386  1.00  0.00     0.061 A 
ENDBRANCH   8  11
ENDBRANCH   3   7
BRANCH   1  18
HETATM   18  N   UNL     1       8.329  31.054  60.296  1.00  0.00    -0.327 N 
HETATM   19  C   UNL     1       8.696  30.768  61.598  1.00  0.00     0.218 C 
HETATM   20  C   UNL     1       7.941  31.598  62.607  1.00  0.00     0.117 C 
HETATM   21  O   UNL     1       9.557  29.981  61.970  1.00  0.00    -0.274 OA
HETATM   22  H   UNL     1       7.662  31.803  60.169  1.00  0.00     0.169 HD
ENDBRANCH   1  18
TORSDOF 3
ENDMDL
MODEL 2
REMARK VINA RESULT:      -8.2      1.526      1.553
REMARK  3 active torsions:
REMARK  status: ('A' for Active; 'I' for Inactive)
REMARK       I    between atoms: C_2  and  N_3 
REMARK    1  A    between atoms: N_3  and  C_4 
REMARK    2  A    between atoms: C_6  and  N_7 
REMARK       I    between atoms: N_7  and  C_8 
REMARK    3  A    between atoms: C_8  and  C_9 
ROOT
HETATM    1  C   UNL     1       8.297  30.314  58.955  1.00  0.00     0.036 A 
HETATM    2  C   UNL     1       7.843  29.158  58.308  1.00  0.00     0.059 A 
HETATM    3  C   UNL     1       8.649  28.504  57.366  1.00  0.00     0.037 A 
HETATM    4  C   UNL     1       9.916  29.020  57.073  1.00  0.00     0.029 A 
HETATM    5  C   UNL     1      10.368  30.181  57.695  1.00  0.00     0.004 A 
HETATM    6  C   UNL     1       9.560  30.825  58.631  1.00  0.00     0.029 A 
ENDROOT
BRANCH   3   7
HETATM    7  N   UNL     1       8.275  27.327  56.693  1.00  0.00    -0.322 N 
HETATM    8  C   UNL     1       8.032  26.074  57.222  1.00  0.00     0.274 C 
HETATM    9  O   UNL     1       8.013  25.754  58.403  1.00  0.00    -0.266 OA
HETATM   10  H   UNL     1       8.163  27.374  55.683  1.00  0.00     0.169 HD
BRANCH   8  11
HETATM   11  C   UNL     1       7.751  25.042  56.171  1.00  0.00     0.126 A 
HETATM   12  N   UNL     1       7.468  25.518  54.923  1.00  0.00    -0.255 NA
HETATM   13  C   UNL     1       7.239  24.596  53.962  1.00  0.00     0.119 A 
HETATM   14  C   UNL     1       7.273  23.232  54.187  1.00  0.00     0.043 A 
HETATM   15  C   UNL     1       7.557  22.790  55.474  1.00  0.00     0.037 A 
HETATM   16 CL   UNL     1       7.608  21.101  55.799  1.00  0.00    -0.084 Cl
HETATM   17  C   UNL     1       7.803  23.695  56.494  1.00  0.00     0.061 A 
ENDBRANCH   8  11
ENDBRANCH   3   7
BRANCH   1  18
HETATM   18  N   UNL     1       7.561  31.020  59.932  1.00  0.00    -0.327 N 
HETATM   19  C   UNL     1       6.705  32.088  59.740  1.00  0.00     0.218 C 
HETATM   20  C   UNL     1       6.105  32.589  61.031  1.00  0.00     0.117 C 
HETATM   21  O   UNL     1       6.384  32.598  58.674  1.00  0.00    -0.274 OA
HETATM   22  H   UNL     1       7.639  30.669  60.878  1.00  0.00     0.169 HD
ENDBRANCH   1  18
TORSDOF 3
ENDMDL
MODEL 3
REMARK VINA RESULT:      -8.1      2.275      3.449
REMARK  3 active torsions:
REMARK  status: ('A' for Active; 'I' for Inactive)
REMARK       I    between atoms: C_2  and  N_3 
REMARK    1  A    between atoms: N_3  and  C_4 
REMARK    2  A    between atoms: C_6  and  N_7 
REMARK       I    between atoms: N_7  and  C_8 
REMARK    3  A    between atoms: C_8  and  C_9 
ROOT
HETATM    1  C   UNL     1       7.797  28.925  57.438  1.00  0.00     0.036 A 
HETATM    2  C   UNL     1       8.208  27.625  57.117  1.00  0.00     0.059 A 
HETATM    3  C   UNL     1       7.265  26.629  56.827  1.00  0.00     0.037 A 
HETATM    4  C   UNL     1       5.903  26.944  56.865  1.00  0.00     0.029 A 
HETATM    5  C   UNL     1       5.483  28.227  57.204  1.00  0.00     0.004 A 
HETATM    6  C   UNL     1       6.427  29.212  57.491  1.00  0.00     0.029 A 
ENDROOT
BRANCH   3   7
HETATM    7  N   UNL     1       7.599  25.309  56.473  1.00  0.00    -0.322 N 
HETATM    8  C   UNL     1       7.718  24.762  55.209  1.00  0.00     0.274 C 
HETATM    9  O   UNL     1       7.636  25.341  54.135  1.00  0.00    -0.266 OA
HETATM   10  H   UNL     1       7.781  24.648  57.225  1.00  0.00     0.169 HD
BRANCH   8  11
HETATM   11  C   UNL     1       7.994  23.288  55.237  1.00  0.00     0.126 A 
HETATM   12  N   UNL     1       8.145  22.728  56.473  1.00  0.00    -0.255 NA
HETATM   13  C   UNL     1       8.369  21.397  56.510  1.00  0.00     0.119 A 
HETATM   14  C   UNL     1       8.454  20.603  55.381  1.00  0.00     0.043 A 
HETATM   15  C   UNL     1       8.302  21.214  54.142  1.00  0.00     0.037 A 
HETATM   16 CL   UNL     1       8.403  20.265  52.710  1.00  0.00    -0.084 Cl
HETATM   17  C   UNL     1       8.067  22.577  54.050  1.00  0.00     0.061 A 
ENDBRANCH   8  11
ENDBRANCH   3   7
BRANCH   1  18
HETATM   18  N   UNL     1       8.678  29.991  57.719  1.00  0.00    -0.327 N 
HETATM   19  C   UNL     1       9.043  30.483  58.959  1.00  0.00     0.218 C 
HETATM   20  C   UNL     1      10.004  31.644  58.860  1.00  0.00     0.117 C 
HETATM   21  O   UNL     1       8.707  30.055  60.055  1.00  0.00    -0.274 OA
HETATM   22  H   UNL     1       9.127  30.411  56.917  1.00  0.00     0.169 HD
ENDBRANCH   1  18
TORSDOF 3
ENDMDL
MODEL 4
REMARK VINA RESULT:      -7.9      3.831      8.184
REMARK  3 active torsions:
REMARK  status: ('A' for Active; 'I' for Inactive)
REMARK       I    between atoms: C_2  and  N_3 
REMARK    1  A    between atoms: N_3  and  C_4 
REMARK    2  A    between atoms: C_6  and  N_7 
REMARK       I    between atoms: N_7  and  C_8 
REMARK    3  A    between atoms: C_8  and  C_9 
ROOT
HETATM    1  C   UNL     1       8.748  28.728  57.373  1.00  0.00     0.036 A 
HETATM    2  C   UNL     1       8.065  29.347  58.428  1.00  0.00     0.059 A 
HETATM    3  C   UNL     1       8.600  30.478  59.059  1.00  0.00     0.037 A 
HETATM    4  C   UNL     1       9.830  30.987  58.627  1.00  0.00     0.029 A 
HETATM    5  C   UNL     1      10.527  30.367  57.593  1.00  0.00     0.004 A 
HETATM    6  C   UNL     1       9.988  29.241  56.971  1.00  0.00     0.029 A 
ENDROOT
BRANCH   3   7
HETATM    7  N   UNL     1       7.964  31.169  60.107  1.00  0.00    -0.322 N 
HETATM    8  C   UNL     1       8.275  31.164  61.454  1.00  0.00     0.274 C 
HETATM    9  O   UNL     1       9.225  30.618  61.998  1.00  0.00    -0.266 OA
HETATM   10  H   UNL     1       7.167  31.756  59.871  1.00  0.00     0.169 HD
BRANCH   8  11
HETATM   11  C   UNL     1       7.302  31.953  62.278  1.00  0.00     0.126 A 
HETATM   12  N   UNL     1       6.049  32.099  61.753  1.00  0.00    -0.255 NA
HETATM   13  C   UNL     1       5.158  32.786  62.500  1.00  0.00     0.119 A 
HETATM   14  C   UNL     1       5.454  33.334  63.734  1.00  0.00     0.043 A 
HETATM   15  C   UNL     1       6.742  33.168  64.228  1.00  0.00     0.037 A 
HETATM   16 CL   UNL     1       7.155  33.836  65.760  1.00  0.00    -0.084 Cl
HETATM   17  C   UNL     1       7.693  32.469  63.503  1.00  0.00     0.061 A 
ENDBRANCH   8  11
ENDBRANCH   3   7
BRANCH   1  18
HETATM   18  N   UNL     1       8.271  27.602  56.668  1.00  0.00    -0.327 N 
HETATM   19  C   UNL     1       7.983  26.347  57.173  1.00  0.00     0.218 C 
HETATM   20  C   UNL     1       7.501  25.392  56.107  1.00  0.00     0.117 C 
HETATM   21  O   UNL     1       8.043  25.986  58.341  1.00  0.00    -0.274 OA
HETATM   22  H   UNL     1       8.076  27.750  55.687  1.00  0.00     0.169 HD
ENDBRANCH   1  18
TORSDOF 3
ENDMDL
MODEL 5
REMARK VINA RESULT:      -7.9      3.162      7.996
REMARK  3 active torsions:
REMARK  status: ('A' for Active; 'I' for Inactive)
REMARK       I    between atoms: C_2  and  N_3 
REMARK    1  A    between atoms: N_3  and  C_4 
REMARK    2  A    between atoms: C_6  and  N_7 
REMARK       I    between atoms: N_7  and  C_8 
REMARK    3  A    between atoms: C_8  and  C_9 
ROOT
HETATM    1  C   UNL     1       6.939  24.043  53.304  1.00  0.00     0.036 A 
HETATM    2  C   UNL     1       7.561  24.947  54.174  1.00  0.00     0.059 A 
HETATM    3  C   UNL     1       6.931  26.148  54.528  1.00  0.00     0.037 A 
HETATM    4  C   UNL     1       5.669  26.440  53.999  1.00  0.00     0.029 A 
HETATM    5  C   UNL     1       5.050  25.558  53.117  1.00  0.00     0.004 A 
HETATM    6  C   UNL     1       5.685  24.366  52.770  1.00  0.00     0.029 A 
ENDROOT
BRANCH   3   7
HETATM    7  N   UNL     1       7.479  27.094  55.413  1.00  0.00    -0.322 N 
HETATM    8  C   UNL     1       7.020  27.471  56.661  1.00  0.00     0.274 C 
HETATM    9  O   UNL     1       6.083  26.994  57.286  1.00  0.00    -0.266 OA
HETATM   10  H   UNL     1       8.324  27.580  55.122  1.00  0.00     0.169 HD
BRANCH   8  11
HETATM   11  C   UNL     1       7.822  28.586  57.263  1.00  0.00     0.126 A 
HETATM   12  N   UNL     1       7.143  29.433  58.093  1.00  0.00    -0.255 NA
HETATM   13  C   UNL     1       7.862  30.426  58.661  1.00  0.00     0.119 A 
HETATM   14  C   UNL     1       9.213  30.617  58.439  1.00  0.00     0.043 A 
HETATM   15  C   UNL     1       9.863  29.737  57.581  1.00  0.00     0.037 A 
HETATM   16 CL   UNL     1      11.545  29.938  57.274  1.00  0.00    -0.084 Cl
HETATM   17  C   UNL     1       9.172  28.700  56.976  1.00  0.00     0.061 A 
ENDBRANCH   8  11
ENDBRANCH   3   7
BRANCH   1  18
HETATM   18  N   UNL     1       7.491  22.803  52.915  1.00  0.00    -0.327 N 
HETATM   19  C   UNL     1       7.800  21.724  53.723  1.00  0.00     0.218 C 
HETATM   20  C   UNL     1       8.387  20.570  52.946  1.00  0.00     0.117 C 
HETATM   21  O   UNL     1       7.608  21.620  54.927  1.00  0.00    -0.274 OA
HETATM   22  H   UNL     1       7.634  22.679  51.922  1.00  0.00     0.169 HD
ENDBRANCH   1  18
TORSDOF 3
ENDMDL
MODEL 6
REMARK VINA RESULT:      -7.8      6.197      8.749
REMARK  3 active torsions:
REMARK  status: ('A' for Active; 'I' for Inactive)
REMARK       I    between atoms: C_2  and  N_3 
REMARK    1  A    between atoms: N_3  and  C_4 
REMARK    2  A    between atoms: C_6  and  N_7 
REMARK       I    between atoms: N_7  and  C_8 
REMARK    3  A    between atoms: C_8  and  C_9 
ROOT
HETATM    1  C   UNL     1       4.316  27.184  50.060  1.00  0.00     0.036 A 
HETATM    2  C   UNL     1       4.996  26.123  50.671  1.00  0.00     0.059 A 
HETATM    3  C   UNL     1       5.900  26.362  51.715  1.00  0.00     0.037 A 
HETATM    4  C   UNL     1       6.121  27.676  52.143  1.00  0.00     0.029 A 
HETATM    5  C   UNL     1       5.465  28.739  51.528  1.00  0.00     0.004 A 
HETATM    6  C   UNL     1       4.569  28.493  50.490  1.00  0.00     0.029 A 
ENDROOT
BRANCH   3   7
HETATM    7  N   UNL     1       6.602  25.349  52.394  1.00  0.00    -0.322 N 
HETATM    8  C   UNL     1       6.392  24.865  53.671  1.00  0.00     0.274 C 
HETATM    9  O   UNL     1       5.492  25.166  54.444  1.00  0.00    -0.266 OA
HETATM   10  H   UNL     1       7.372  24.898  51.905  1.00  0.00     0.169 HD
BRANCH   8  11
HETATM   11  C   UNL     1       7.413  23.847  54.083  1.00  0.00     0.126 A 
HETATM   12  N   UNL     1       8.116  24.127  55.220  1.00  0.00    -0.255 NA
HETATM   13  C   UNL     1       9.019  23.203  55.614  1.00  0.00     0.119 A 
HETATM   14  C   UNL     1       9.258  22.025  54.931  1.00  0.00     0.043 A 
HETATM   15  C   UNL     1       8.526  21.783  53.775  1.00  0.00     0.037 A 
HETATM   16 CL   UNL     1       8.791  20.330  52.891  1.00  0.00    -0.084 Cl
HETATM   17  C   UNL     1       7.584  22.697  53.329  1.00  0.00     0.061 A 
ENDBRANCH   8  11
ENDBRANCH   3   7
BRANCH   1  18
HETATM   18  N   UNL     1       3.373  27.032  49.020  1.00  0.00    -0.327 N 
HETATM   19  C   UNL     1       3.607  26.628  47.718  1.00  0.00     0.218 C 
HETATM   20  C   UNL     1       2.346  26.593  46.889  1.00  0.00     0.117 C 
HETATM   21  O   UNL     1       4.674  26.279  47.230  1.00  0.00    -0.274 OA
HETATM   22  H   UNL     1       2.408  27.194  49.276  1.00  0.00     0.169 HD
ENDBRANCH   1  18
TORSDOF 3
ENDMDL
MODEL 7
REMARK VINA RESULT:      -7.8      2.063      2.535
REMARK  3 active torsions:
REMARK  status: ('A' for Active; 'I' for Inactive)
REMARK       I    between atoms: C_2  and  N_3 
REMARK    1  A    between atoms: N_3  and  C_4 
REMARK    2  A    between atoms: C_6  and  N_7 
REMARK       I    between atoms: N_7  and  C_8 
REMARK    3  A    between atoms: C_8  and  C_9 
ROOT
HETATM    1  C   UNL     1       7.612  30.191  58.727  1.00  0.00     0.036 A 
HETATM    2  C   UNL     1       7.829  28.924  58.170  1.00  0.00     0.059 A 
HETATM    3  C   UNL     1       7.119  28.514  57.032  1.00  0.00     0.037 A 
HETATM    4  C   UNL     1       6.186  29.383  56.457  1.00  0.00     0.029 A 
HETATM    5  C   UNL     1       5.949  30.636  57.015  1.00  0.00     0.004 A 
HETATM    6  C   UNL     1       6.658  31.036  58.147  1.00  0.00     0.029 A 
ENDROOT
BRANCH   3   7
HETATM    7  N   UNL     1       7.298  27.270  56.401  1.00  0.00    -0.322 N 
HETATM    8  C   UNL     1       7.661  26.062  56.966  1.00  0.00     0.274 C 
HETATM    9  O   UNL     1       7.822  25.813  58.153  1.00  0.00    -0.266 OA
HETATM   10  H   UNL     1       7.147  27.224  55.395  1.00  0.00     0.169 HD
BRANCH   8  11
HETATM   11  C   UNL     1       7.846  24.976  55.949  1.00  0.00     0.126 A 
HETATM   12  N   UNL     1       8.116  23.731  56.442  1.00  0.00    -0.255 NA
HETATM   13  C   UNL     1       8.259  22.740  55.535  1.00  0.00     0.119 A 
HETATM   14  C   UNL     1       8.152  22.930  54.170  1.00  0.00     0.043 A 
HETATM   15  C   UNL     1       7.883  24.214  53.710  1.00  0.00     0.037 A 
HETATM   16 CL   UNL     1       7.743  24.497  52.018  1.00  0.00    -0.084 Cl
HETATM   17  C   UNL     1       7.724  25.265  54.599  1.00  0.00     0.061 A 
ENDBRANCH   8  11
ENDBRANCH   3   7
BRANCH   1  18
HETATM   18  N   UNL     1       8.299  30.692  59.855  1.00  0.00    -0.327 N 
HETATM   19  C   UNL     1       9.279  31.666  59.885  1.00  0.00     0.218 C 
HETATM   20  C   UNL     1       9.788  31.932  61.281  1.00  0.00     0.117 C 
HETATM   21  O   UNL     1       9.708  32.316  58.940  1.00  0.00    -0.274 OA
HETATM   22  H   UNL     1       8.001  30.323  60.748  1.00  0.00     0.169 HD
ENDBRANCH   1  18
TORSDOF 3
ENDMDL
MODEL 8
REMARK VINA RESULT:      -7.6      2.244      2.631
REMARK  3 active torsions:
REMARK  status: ('A' for Active; 'I' for Inactive)
REMARK       I    between atoms: C_2  and  N_3 
REMARK    1  A    between atoms: N_3  and  C_4 
REMARK    2  A    between atoms: C_6  and  N_7 
REMARK       I    between atoms: N_7  and  C_8 
REMARK    3  A    between atoms: C_8  and  C_9 
ROOT
HETATM    1  C   UNL     1       7.516  30.148  58.535  1.00  0.00     0.036 A 
HETATM    2  C   UNL     1       7.784  28.962  57.840  1.00  0.00     0.059 A 
HETATM    3  C   UNL     1       7.072  28.639  56.676  1.00  0.00     0.037 A 
HETATM    4  C   UNL     1       6.085  29.516  56.212  1.00  0.00     0.029 A 
HETATM    5  C   UNL     1       5.797  30.688  56.907  1.00  0.00     0.004 A 
HETATM    6  C   UNL     1       6.509  31.000  58.064  1.00  0.00     0.029 A 
ENDROOT
BRANCH   3   7
HETATM    7  N   UNL     1       7.299  27.481  55.911  1.00  0.00    -0.322 N 
HETATM    8  C   UNL     1       7.388  27.362  54.537  1.00  0.00     0.274 C 
HETATM    9  O   UNL     1       7.369  28.261  53.708  1.00  0.00    -0.266 OA
HETATM   10  H   UNL     1       7.415  26.601  56.408  1.00  0.00     0.169 HD
BRANCH   8  11
HETATM   11  C   UNL     1       7.540  25.940  54.084  1.00  0.00     0.126 A 
HETATM   12  N   UNL     1       7.816  25.758  52.759  1.00  0.00    -0.255 NA
HETATM   13  C   UNL     1       7.980  24.482  52.347  1.00  0.00     0.119 A 
HETATM   14  C   UNL     1       7.878  23.387  53.185  1.00  0.00     0.043 A 
HETATM   15  C   UNL     1       7.589  23.617  54.524  1.00  0.00     0.037 A 
HETATM   16 CL   UNL     1       7.450  22.283  55.603  1.00  0.00    -0.084 Cl
HETATM   17  C   UNL     1       7.414  24.907  54.999  1.00  0.00     0.061 A 
ENDBRANCH   8  11
ENDBRANCH   3   7
BRANCH   1  18
HETATM   18  N   UNL     1       8.200  30.560  59.699  1.00  0.00    -0.327 N 
HETATM   19  C   UNL     1       9.154  31.554  59.813  1.00  0.00     0.218 C 
HETATM   20  C   UNL     1       9.669  31.702  61.225  1.00  0.00     0.117 C 
HETATM   21  O   UNL     1       9.555  32.302  58.931  1.00  0.00    -0.274 OA
HETATM   22  H   UNL     1       7.922  30.101  60.556  1.00  0.00     0.169 HD
ENDBRANCH   1  18
TORSDOF 3
ENDMDL
MODEL 9
REMARK VINA RESULT:      -7.6      3.308      4.327
REMARK  3 active torsions:
REMARK  status: ('A' for Active; 'I' for Inactive)
REMARK       I    between atoms: C_2  and  N_3 
REMARK    1  A    between atoms: N_3  and  C_4 
REMARK    2  A    between atoms: C_6  and  N_7 
REMARK       I    between atoms: N_7  and  C_8 
REMARK    3  A    between atoms: C_8  and  C_9 
ROOT
HETATM    1  C   UNL     1       6.003  28.529  57.228  1.00  0.00     0.036 A 
HETATM    2  C   UNL     1       6.195  27.202  56.821  1.00  0.00     0.059 A 
HETATM    3  C   UNL     1       7.474  26.629  56.836  1.00  0.00     0.037 A 
HETATM    4  C   UNL     1       8.564  27.396  57.259  1.00  0.00     0.029 A 
HETATM    5  C   UNL     1       8.387  28.722  57.646  1.00  0.00     0.004 A 
HETATM    6  C   UNL     1       7.112  29.286  57.627  1.00  0.00     0.029 A 
ENDROOT
BRANCH   3   7
HETATM    7  N   UNL     1       7.743  25.298  56.467  1.00  0.00    -0.322 N 
HETATM    8  C   UNL     1       7.792  24.750  55.199  1.00  0.00     0.274 C 
HETATM    9  O   UNL     1       7.690  25.335  54.129  1.00  0.00    -0.266 OA
HETATM   10  H   UNL     1       7.929  24.629  57.211  1.00  0.00     0.169 HD
BRANCH   8  11
HETATM   11  C   UNL     1       8.013  23.267  55.214  1.00  0.00     0.126 A 
HETATM   12  N   UNL     1       8.145  22.692  56.446  1.00  0.00    -0.255 NA
HETATM   13  C   UNL     1       8.319  21.352  56.472  1.00  0.00     0.119 A 
HETATM   14  C   UNL     1       8.373  20.566  55.336  1.00  0.00     0.043 A 
HETATM   15  C   UNL     1       8.242  21.192  54.102  1.00  0.00     0.037 A 
HETATM   16 CL   UNL     1       8.306  20.252  52.662  1.00  0.00    -0.084 Cl
HETATM   17  C   UNL     1       8.058  22.563  54.021  1.00  0.00     0.061 A 
ENDBRANCH   8  11
ENDBRANCH   3   7
BRANCH   1  18
HETATM   18  N   UNL     1       4.749  29.176  57.266  1.00  0.00    -0.327 N 
HETATM   19  C   UNL     1       4.231  30.074  56.352  1.00  0.00     0.218 C 
HETATM   20  C   UNL     1       2.856  30.564  56.737  1.00  0.00     0.117 C 
HETATM   21  O   UNL     1       4.746  30.446  55.305  1.00  0.00    -0.274 OA
HETATM   22  H   UNL     1       4.143  28.912  58.032  1.00  0.00     0.169 HD
ENDBRANCH   1  18
TORSDOF 3
ENDMDL
MODEL 10
REMARK VINA RESULT:      -7.3      5.718      7.920
REMARK  3 active torsions:
REMARK  status: ('A' for Active; 'I' for Inactive)
REMARK       I    between atoms: C_2  and  N_3 
REMARK    1  A    between atoms: N_3  and  C_4 
REMARK    2  A    between atoms: C_6  and  N_7 
REMARK       I    between atoms: N_7  and  C_8 
REMARK    3  A    between atoms: C_8  and  C_9 
ROOT
HETATM    1  C   UNL     1       7.219  23.945  55.128  1.00  0.00     0.036 A 
HETATM    2  C   UNL     1       6.749  24.330  53.865  1.00  0.00     0.059 A 
HETATM    3  C   UNL     1       6.734  25.680  53.489  1.00  0.00     0.037 A 
HETATM    4  C   UNL     1       7.193  26.647  54.391  1.00  0.00     0.029 A 
HETATM    5  C   UNL     1       7.643  26.277  55.656  1.00  0.00     0.004 A 
HETATM    6  C   UNL     1       7.653  24.932  56.022  1.00  0.00     0.029 A 
ENDROOT
BRANCH   3   7
HETATM    7  N   UNL     1       6.302  26.143  52.233  1.00  0.00    -0.322 N 
HETATM    8  C   UNL     1       5.149  26.839  51.923  1.00  0.00     0.274 C 
HETATM    9  O   UNL     1       4.307  27.269  52.699  1.00  0.00    -0.266 OA
HETATM   10  H   UNL     1       6.895  25.952  51.429  1.00  0.00     0.169 HD
BRANCH   8  11
HETATM   11  C   UNL     1       4.988  27.072  50.451  1.00  0.00     0.126 A 
HETATM   12  N   UNL     1       5.582  28.196  49.952  1.00  0.00    -0.255 NA
HETATM   13  C   UNL     1       5.465  28.401  48.622  1.00  0.00     0.119 A 
HETATM   14  C   UNL     1       4.784  27.549  47.773  1.00  0.00     0.043 A 
HETATM   15  C   UNL     1       4.187  26.421  48.323  1.00  0.00     0.037 A 
HETATM   16 CL   UNL     1       3.327  25.333  47.303  1.00  0.00    -0.084 Cl
HETATM   17  C   UNL     1       4.281  26.162  49.681  1.00  0.00     0.061 A 
ENDBRANCH   8  11
ENDBRANCH   3   7
BRANCH   1  18
HETATM   18  N   UNL     1       7.290  22.609  55.577  1.00  0.00    -0.327 N 
HETATM   19  C   UNL     1       8.349  21.729  55.452  1.00  0.00     0.218 C 
HETATM   20  C   UNL     1       8.050  20.376  56.050  1.00  0.00     0.117 C 
HETATM   21  O   UNL     1       9.449  21.957  54.967  1.00  0.00    -0.274 OA
HETATM   22  H   UNL     1       6.485  22.276  56.091  1.00  0.00     0.169 HD
ENDBRANCH   1  18
TORSDOF 3
ENDMDL
