MODEL 1
REMARK VINA RESULT:      -9.8      0.000      0.000
REMARK  8 active torsions:
REMARK  status: ('A' for Active; 'I' for Inactive)
REMARK    1  A    between atoms: C_4  and  C_5 
REMARK    2  A    between atoms: C_5  and  N_6 
REMARK    3  A    between atoms: C_8  and  N_9 
REMARK       I    between atoms: N_9  and  C_10 
REMARK       I    between atoms: C_10  and  N_11 
REMARK    4  A    between atoms: N_11  and  C_12 
REMARK    5  A    between atoms: C_12  and  C_13 
REMARK    6  A    between atoms: C_13  and  N_14 
REMARK       I    between atoms: N_14  and  C_15 
REMARK    7  A    between atoms: C_15  and  C_16 
REMARK    8  A    between atoms: C_17  and  O_18 
ROOT
HETATM    1  N   UNL     1       6.459  27.914  56.386  1.00  0.00    -0.292 N 
HETATM    2  C   UNL     1       7.364  28.927  56.483  1.00  0.00     0.321 C 
HETATM    3  N   UNL     1       8.643  28.659  56.108  1.00  0.00    -0.341 N 
HETATM    4  O   UNL     1       7.011  30.020  56.924  1.00  0.00    -0.247 OA
HETATM    5  H   UNL     1       5.542  28.150  56.732  1.00  0.00     0.172 HD
HETATM    6  H   UNL     1       8.779  27.768  55.632  1.00  0.00     0.164 HD
ENDROOT
BRANCH   1   7
HETATM    7  C   UNL     1       6.629  26.657  55.852  1.00  0.00     0.153 A 
HETATM    8  N   UNL     1       7.421  26.370  54.812  1.00  0.00    -0.154 NA
HETATM    9  N   UNL     1       7.268  25.039  54.634  1.00  0.00    -0.275 N 
HETATM   10  C   UNL     1       6.393  24.477  55.518  1.00  0.00     0.116 A 
HETATM   11  C   UNL     1       5.962  25.502  56.324  1.00  0.00     0.071 A 
BRANCH   9  12
HETATM   12  C   UNL     1       7.940  24.368  53.528  1.00  0.00     0.189 C 
BRANCH  12  13
HETATM   13  C   UNL     1       8.239  22.923  53.839  1.00  0.00    -0.038 A 
HETATM   14  C   UNL     1       8.952  22.575  54.997  1.00  0.00     0.009 A 
HETATM   15  C   UNL     1       9.205  21.235  55.297  1.00  0.00     0.001 A 
HETATM   16  C   UNL     1       8.747  20.230  54.448  1.00  0.00     0.000 A 
HETATM   17  C   UNL     1       8.037  20.561  53.296  1.00  0.00     0.001 A 
HETATM   18  C   UNL     1       7.780  21.900  52.994  1.00  0.00     0.009 A 
ENDBRANCH  12  13
ENDBRANCH   9  12
ENDBRANCH   1   7
BRANCH   3  19
HETATM   19  C   UNL     1       9.674  29.672  56.063  1.00  0.00     0.144 C 
BRANCH  19  20
HETATM   20  C   UNL     1      10.564  29.684  57.312  1.00  0.00     0.142 C 
BRANCH  20  21
HETATM   21  N   UNL     1       9.840  30.104  58.501  1.00  0.00    -0.355 N 
HETATM   22  C   UNL     1       9.769  31.427  58.876  1.00  0.00     0.254 C 
HETATM   23  O   UNL     1      10.330  32.330  58.259  1.00  0.00    -0.268 OA
HETATM   24  H   UNL     1       9.200  29.430  58.895  1.00  0.00     0.162 HD
BRANCH  22  25
HETATM   25  C   UNL     1       8.920  31.768  60.055  1.00  0.00     0.065 A 
HETATM   26  C   UNL     1       7.588  32.165  59.855  1.00  0.00     0.081 A 
HETATM   27  C   UNL     1       6.762  32.463  60.938  1.00  0.00     0.037 A 
HETATM   28  C   UNL     1       7.260  32.383  62.236  1.00  0.00     0.003 A 
HETATM   29  C   UNL     1       8.588  32.016  62.451  1.00  0.00     0.001 A 
HETATM   30  C   UNL     1       9.418  31.714  61.366  1.00  0.00     0.020 A 
BRANCH  26  31
HETATM   31  O   UNL     1       7.019  32.288  58.614  1.00  0.00    -0.360 OA
HETATM   32  H   UNL     1       7.351  33.124  58.215  1.00  0.00     0.217 HD
ENDBRANCH  26  31
ENDBRANCH  22  25
ENDBRANCH  20  21
ENDBRANCH  19  20
ENDBRANCH   3  19
TORSDOF 8
ENDMDL
MODEL 2
REMARK VINA RESULT:      -9.6      1.877      2.440
REMARK  8 active torsions:
REMARK  status: ('A' for Active; 'I' for Inactive)
REMARK    1  A    between atoms: C_4  and  C_5 
REMARK    2  A    between atoms: C_5  and  N_6 
REMARK    3  A    between atoms: C_8  and  N_9 
REMARK       I    between atoms: N_9  and  C_10 
REMARK       I    between atoms: C_10  and  N_11 
REMARK    4  A    between atoms: N_11  and  C_12 
REMARK    5  A    between atoms: C_12  and  C_13 
REMARK    6  A    between atoms: C_13  and  N_14 
REMARK       I    between atoms: N_14  and  C_15 
REMARK    7  A    between atoms: C_15  and  C_16 
REMARK    8  A    between atoms: C_17  and  O_18 
ROOT
HETATM    1  N   UNL     1       4.478  27.359  54.656  1.00  0.00    -0.292 N 
HETATM    2  C   UNL     1       4.950  28.358  55.452  1.00  0.00     0.321 C 
HETATM    3  N   UNL     1       6.274  28.335  55.761  1.00  0.00    -0.341 N 
HETATM    4  O   UNL     1       4.178  29.213  55.881  1.00  0.00    -0.247 OA
HETATM    5  H   UNL     1       3.480  27.392  54.508  1.00  0.00     0.172 HD
HETATM    6  H   UNL     1       6.832  27.662  55.236  1.00  0.00     0.164 HD
ENDROOT
BRANCH   1   7
HETATM    7  C   UNL     1       5.180  26.364  54.016  1.00  0.00     0.153 A 
HETATM    8  N   UNL     1       6.423  25.983  54.331  1.00  0.00    -0.154 NA
HETATM    9  N   UNL     1       6.706  25.002  53.446  1.00  0.00    -0.275 N 
HETATM   10  C   UNL     1       5.687  24.758  52.571  1.00  0.00     0.116 A 
HETATM   11  C   UNL     1       4.680  25.627  52.917  1.00  0.00     0.071 A 
BRANCH   9  12
HETATM   12  C   UNL     1       8.024  24.379  53.441  1.00  0.00     0.189 C 
BRANCH  12  13
HETATM   13  C   UNL     1       7.978  22.950  53.923  1.00  0.00    -0.038 A 
HETATM   14  C   UNL     1       8.085  21.886  53.014  1.00  0.00     0.009 A 
HETATM   15  C   UNL     1       8.069  20.566  53.465  1.00  0.00     0.001 A 
HETATM   16  C   UNL     1       7.949  20.293  54.826  1.00  0.00     0.000 A 
HETATM   17  C   UNL     1       7.844  21.339  55.739  1.00  0.00     0.001 A 
HETATM   18  C   UNL     1       7.861  22.661  55.292  1.00  0.00     0.009 A 
ENDBRANCH  12  13
ENDBRANCH   9  12
ENDBRANCH   1   7
BRANCH   3  19
HETATM   19  C   UNL     1       6.922  29.390  56.508  1.00  0.00     0.144 C 
BRANCH  19  20
HETATM   20  C   UNL     1       7.721  28.874  57.712  1.00  0.00     0.142 C 
BRANCH  20  21
HETATM   21  N   UNL     1       7.478  29.658  58.911  1.00  0.00    -0.355 N 
HETATM   22  C   UNL     1       8.480  30.382  59.519  1.00  0.00     0.254 C 
HETATM   23  O   UNL     1       9.640  30.391  59.115  1.00  0.00    -0.268 OA
HETATM   24  H   UNL     1       6.511  29.844  59.135  1.00  0.00     0.162 HD
BRANCH  22  25
HETATM   25  C   UNL     1       8.108  31.233  60.687  1.00  0.00     0.065 A 
HETATM   26  C   UNL     1       8.521  30.856  61.975  1.00  0.00     0.081 A 
HETATM   27  C   UNL     1       8.213  31.645  63.083  1.00  0.00     0.037 A 
HETATM   28  C   UNL     1       7.473  32.814  62.921  1.00  0.00     0.003 A 
HETATM   29  C   UNL     1       7.032  33.189  61.653  1.00  0.00     0.001 A 
HETATM   30  C   UNL     1       7.343  32.400  60.539  1.00  0.00     0.020 A 
BRANCH  26  31
HETATM   31  O   UNL     1       9.236  29.714  62.231  1.00  0.00    -0.360 OA
HETATM   32  H   UNL     1       8.894  29.330  63.069  1.00  0.00     0.217 HD
ENDBRANCH  26  31
ENDBRANCH  22  25
ENDBRANCH  20  21
ENDBRANCH  19  20
ENDBRANCH   3  19
TORSDOF 8
ENDMDL
MODEL 3
REMARK VINA RESULT:      -9.3      2.058      9.915
REMARK  8 active torsions:
REMARK  status: ('A' for Active; 'I' for Inactive)
REMARK    1  A    between atoms: C_4  and  C_5 
REMARK    2  A    between atoms: C_5  and  N_6 
REMARK    3  A    between atoms: C_8  and  N_9 
REMARK       I    between atoms: N_9  and  C_10 
REMARK       I    between atoms: C_10  and  N_11 
REMARK    4  A    between atoms: N_11  and  C_12 
REMARK    5  A    between atoms: C_12  and  C_13 
REMARK    6  A    between atoms: C_13  and  N_14 
REMARK       I    between atoms: N_14  and  C_15 
REMARK    7  A    between atoms: C_15  and  C_16 
REMARK    8  A    between atoms: C_17  and  O_18 
ROOT
HETATM    1  N   UNL     1       9.172  29.962  57.644  1.00  0.00    -0.292 N 
HETATM    2  C   UNL     1       8.092  29.530  56.937  1.00  0.00     0.321 C 
HETATM    3  N   UNL     1       6.878  29.602  57.545  1.00  0.00    -0.341 N 
HETATM    4  O   UNL     1       8.247  29.072  55.806  1.00  0.00    -0.247 OA
HETATM    5  H   UNL     1      10.052  29.830  57.168  1.00  0.00     0.172 HD
HETATM    6  H   UNL     1       6.861  30.125  58.420  1.00  0.00     0.164 HD
ENDROOT
BRANCH   1   7
HETATM    7  C   UNL     1       9.206  30.573  58.876  1.00  0.00     0.153 A 
HETATM    8  N   UNL     1       8.638  30.086  59.986  1.00  0.00    -0.154 NA
HETATM    9  N   UNL     1       8.911  31.009  60.933  1.00  0.00    -0.275 N 
HETATM   10  C   UNL     1       9.621  32.073  60.457  1.00  0.00     0.116 A 
HETATM   11  C   UNL     1       9.829  31.819  59.123  1.00  0.00     0.071 A 
BRANCH   9  12
HETATM   12  C   UNL     1       8.386  30.848  62.284  1.00  0.00     0.189 C 
BRANCH  12  13
HETATM   13  C   UNL     1       7.573  32.041  62.722  1.00  0.00    -0.038 A 
HETATM   14  C   UNL     1       6.416  32.413  62.021  1.00  0.00     0.009 A 
HETATM   15  C   UNL     1       5.650  33.500  62.444  1.00  0.00     0.001 A 
HETATM   16  C   UNL     1       6.031  34.227  63.571  1.00  0.00     0.000 A 
HETATM   17  C   UNL     1       7.176  33.868  64.277  1.00  0.00     0.001 A 
HETATM   18  C   UNL     1       7.943  32.779  63.858  1.00  0.00     0.009 A 
ENDBRANCH  12  13
ENDBRANCH   9  12
ENDBRANCH   1   7
BRANCH   3  19
HETATM   19  C   UNL     1       5.643  29.276  56.869  1.00  0.00     0.144 C 
BRANCH  19  20
HETATM   20  C   UNL     1       5.284  27.787  56.953  1.00  0.00     0.142 C 
BRANCH  20  21
HETATM   21  N   UNL     1       5.822  27.027  55.837  1.00  0.00    -0.355 N 
HETATM   22  C   UNL     1       6.670  25.959  56.029  1.00  0.00     0.254 C 
HETATM   23  O   UNL     1       7.052  25.598  57.139  1.00  0.00    -0.268 OA
HETATM   24  H   UNL     1       5.363  27.156  54.946  1.00  0.00     0.162 HD
BRANCH  22  25
HETATM   25  C   UNL     1       7.088  25.182  54.825  1.00  0.00     0.065 A 
HETATM   26  C   UNL     1       7.501  25.867  53.671  1.00  0.00     0.081 A 
HETATM   27  C   UNL     1       7.924  25.169  52.540  1.00  0.00     0.037 A 
HETATM   28  C   UNL     1       7.925  23.776  52.541  1.00  0.00     0.003 A 
HETATM   29  C   UNL     1       7.493  23.081  53.670  1.00  0.00     0.001 A 
HETATM   30  C   UNL     1       7.072  23.778  54.807  1.00  0.00     0.020 A 
BRANCH  26  31
HETATM   31  O   UNL     1       7.515  27.234  53.573  1.00  0.00    -0.360 OA
HETATM   32  H   UNL     1       8.160  27.476  52.870  1.00  0.00     0.217 HD
ENDBRANCH  26  31
ENDBRANCH  22  25
ENDBRANCH  20  21
ENDBRANCH  19  20
ENDBRANCH   3  19
TORSDOF 8
ENDMDL
MODEL 4
REMARK VINA RESULT:      -9.3      1.670      2.407
REMARK  8 active torsions:
REMARK  status: ('A' for Active; 'I' for Inactive)
REMARK    1  A    between atoms: C_4  and  C_5 
REMARK    2  A    between atoms: C_5  and  N_6 
REMARK    3  A    between atoms: C_8  and  N_9 
REMARK       I    between atoms: N_9  and  C_10 
REMARK       I    between atoms: C_10  and  N_11 
REMARK    4  A    between atoms: N_11  and  C_12 
REMARK    5  A    between atoms: C_12  and  C_13 
REMARK    6  A    between atoms: C_13  and  N_14 
REMARK       I    between atoms: N_14  and  C_15 
REMARK    7  A    between atoms: C_15  and  C_16 
REMARK    8  A    between atoms: C_17  and  O_18 
ROOT
HETATM    1  N   UNL     1       8.406  27.041  57.185  1.00  0.00    -0.292 N 
HETATM    2  C   UNL     1       8.139  28.376  57.179  1.00  0.00     0.321 C 
HETATM    3  N   UNL     1       7.072  28.795  56.448  1.00  0.00    -0.341 N 
HETATM    4  O   UNL     1       8.870  29.147  57.798  1.00  0.00    -0.247 OA
HETATM    5  H   UNL     1       9.241  26.794  57.694  1.00  0.00     0.172 HD
HETATM    6  H   UNL     1       6.467  28.054  56.097  1.00  0.00     0.164 HD
ENDROOT
BRANCH   1   7
HETATM    7  C   UNL     1       7.676  26.015  56.630  1.00  0.00     0.153 A 
HETATM    8  N   UNL     1       7.898  25.487  55.421  1.00  0.00    -0.154 NA
HETATM    9  N   UNL     1       6.950  24.533  55.294  1.00  0.00    -0.275 N 
HETATM   10  C   UNL     1       6.125  24.449  56.378  1.00  0.00     0.116 A 
HETATM   11  C   UNL     1       6.573  25.398  57.265  1.00  0.00     0.071 A 
BRANCH   9  12
HETATM   12  C   UNL     1       6.836  23.776  54.053  1.00  0.00     0.189 C 
BRANCH  12  13
HETATM   13  C   UNL     1       7.506  22.428  54.148  1.00  0.00    -0.038 A 
HETATM   14  C   UNL     1       7.896  21.742  52.987  1.00  0.00     0.009 A 
HETATM   15  C   UNL     1       8.540  20.507  53.078  1.00  0.00     0.001 A 
HETATM   16  C   UNL     1       8.802  19.945  54.326  1.00  0.00     0.000 A 
HETATM   17  C   UNL     1       8.420  20.615  55.485  1.00  0.00     0.001 A 
HETATM   18  C   UNL     1       7.778  21.852  55.398  1.00  0.00     0.009 A 
ENDBRANCH  12  13
ENDBRANCH   9  12
ENDBRANCH   1   7
BRANCH   3  19
HETATM   19  C   UNL     1       6.618  30.168  56.441  1.00  0.00     0.144 C 
BRANCH  19  20
HETATM   20  C   UNL     1       5.582  30.465  57.534  1.00  0.00     0.142 C 
BRANCH  20  21
HETATM   21  N   UNL     1       6.197  30.692  58.830  1.00  0.00    -0.355 N 
HETATM   22  C   UNL     1       6.467  31.961  59.293  1.00  0.00     0.254 C 
HETATM   23  O   UNL     1       6.238  32.975  58.639  1.00  0.00    -0.268 OA
HETATM   24  H   UNL     1       6.194  29.910  59.469  1.00  0.00     0.162 HD
BRANCH  22  25
HETATM   25  C   UNL     1       7.008  32.092  60.677  1.00  0.00     0.065 A 
HETATM   26  C   UNL     1       7.966  31.173  61.134  1.00  0.00     0.081 A 
HETATM   27  C   UNL     1       8.511  31.286  62.413  1.00  0.00     0.037 A 
HETATM   28  C   UNL     1       8.094  32.310  63.259  1.00  0.00     0.003 A 
HETATM   29  C   UNL     1       7.124  33.216  62.831  1.00  0.00     0.001 A 
HETATM   30  C   UNL     1       6.578  33.106  61.548  1.00  0.00     0.020 A 
BRANCH  26  31
HETATM   31  O   UNL     1       8.422  30.125  60.378  1.00  0.00    -0.360 OA
HETATM   32  H   UNL     1       7.661  29.779  59.858  1.00  0.00     0.217 HD
ENDBRANCH  26  31
ENDBRANCH  22  25
ENDBRANCH  20  21
ENDBRANCH  19  20
ENDBRANCH   3  19
TORSDOF 8
ENDMDL
MODEL 5
REMARK VINA RESULT:      -9.3      1.886      2.453
REMARK  8 active torsions:
REMARK  status: ('A' for Active; 'I' for Inactive)
REMARK    1  A    between atoms: C_4  and  C_5 
REMARK    2  A    between atoms: C_5  and  N_6 
REMARK    3  A    between atoms: C_8  and  N_9 
REMARK       I    between atoms: N_9  and  C_10 
REMARK       I    between atoms: C_10  and  N_11 
REMARK    4  A    between atoms: N_11  and  C_12 
REMARK    5  A    between atoms: C_12  and  C_13 
REMARK    6  A    between atoms: C_13  and  N_14 
REMARK       I    between atoms: N_14  and  C_15 
REMARK    7  A    between atoms: C_15  and  C_16 
REMARK    8  A    between atoms: C_17  and  O_18 
ROOT
HETATM    1  N   UNL     1       8.444  28.658  54.585  1.00  0.00    -0.292 N 
HETATM    2  C   UNL     1       8.566  29.269  55.796  1.00  0.00     0.321 C 
HETATM    3  N   UNL     1       7.540  29.121  56.676  1.00  0.00    -0.341 N 
HETATM    4  O   UNL     1       9.564  29.945  56.040  1.00  0.00    -0.247 OA
HETATM    5  H   UNL     1       9.205  28.850  53.952  1.00  0.00     0.172 HD
HETATM    6  H   UNL     1       6.839  28.429  56.413  1.00  0.00     0.164 HD
ENDROOT
BRANCH   1   7
HETATM    7  C   UNL     1       7.457  27.805  54.147  1.00  0.00     0.153 A 
HETATM    8  N   UNL     1       7.229  26.583  54.643  1.00  0.00    -0.154 NA
HETATM    9  N   UNL     1       6.192  26.115  53.915  1.00  0.00    -0.275 N 
HETATM   10  C   UNL     1       5.765  26.996  52.963  1.00  0.00     0.116 A 
HETATM   11  C   UNL     1       6.566  28.104  53.091  1.00  0.00     0.071 A 
BRANCH   9  12
HETATM   12  C   UNL     1       5.699  24.760  54.131  1.00  0.00     0.189 C 
BRANCH  12  13
HETATM   13  C   UNL     1       6.819  23.752  54.191  1.00  0.00    -0.038 A 
HETATM   14  C   UNL     1       7.224  23.207  55.420  1.00  0.00     0.009 A 
HETATM   15  C   UNL     1       8.242  22.254  55.470  1.00  0.00     0.001 A 
HETATM   16  C   UNL     1       8.865  21.834  54.297  1.00  0.00     0.000 A 
HETATM   17  C   UNL     1       8.473  22.365  53.071  1.00  0.00     0.001 A 
HETATM   18  C   UNL     1       7.452  23.317  53.016  1.00  0.00     0.009 A 
ENDBRANCH  12  13
ENDBRANCH   9  12
ENDBRANCH   1   7
BRANCH   3  19
HETATM   19  C   UNL     1       7.590  29.628  58.029  1.00  0.00     0.144 C 
BRANCH  19  20
HETATM   20  C   UNL     1       6.951  31.015  58.177  1.00  0.00     0.142 C 
BRANCH  20  21
HETATM   21  N   UNL     1       6.810  31.411  59.568  1.00  0.00    -0.355 N 
HETATM   22  C   UNL     1       7.717  32.249  60.179  1.00  0.00     0.254 C 
HETATM   23  O   UNL     1       8.713  32.689  59.609  1.00  0.00    -0.268 OA
HETATM   24  H   UNL     1       5.906  31.250  59.988  1.00  0.00     0.162 HD
BRANCH  22  25
HETATM   25  C   UNL     1       7.430  32.676  61.579  1.00  0.00     0.065 A 
HETATM   26  C   UNL     1       6.267  33.416  61.851  1.00  0.00     0.081 A 
HETATM   27  C   UNL     1       5.957  33.805  63.154  1.00  0.00     0.037 A 
HETATM   28  C   UNL     1       6.814  33.475  64.201  1.00  0.00     0.003 A 
HETATM   29  C   UNL     1       7.985  32.765  63.945  1.00  0.00     0.001 A 
HETATM   30  C   UNL     1       8.297  32.370  62.640  1.00  0.00     0.020 A 
BRANCH  26  31
HETATM   31  O   UNL     1       5.377  33.800  60.882  1.00  0.00    -0.360 OA
HETATM   32  H   UNL     1       5.539  33.239  60.089  1.00  0.00     0.217 HD
ENDBRANCH  26  31
ENDBRANCH  22  25
ENDBRANCH  20  21
ENDBRANCH  19  20
ENDBRANCH   3  19
TORSDOF 8
ENDMDL
MODEL 6
REMARK VINA RESULT:      -9.2      2.643      9.424
REMARK  8 active torsions:
REMARK  status: ('A' for Active; 'I' for Inactive)
REMARK    1  A    between atoms: C_4  and  C_5 
REMARK    2  A    between atoms: C_5  and  N_6 
REMARK    3  A    between atoms: C_8  and  N_9 
REMARK       I    between atoms: N_9  and  C_10 
REMARK       I    between atoms: C_10  and  N_11 
REMARK    4  A    between atoms: N_11  and  C_12 
REMARK    5  A    between atoms: C_12  and  C_13 
REMARK    6  A    between atoms: C_13  and  N_14 
REMARK       I    between atoms: N_14  and  C_15 
REMARK    7  A    between atoms: C_15  and  C_16 
REMARK    8  A    between atoms: C_17  and  O_18 
ROOT
HETATM    1  N   UNL     1       6.694  26.808  57.428  1.00  0.00    -0.292 N 
HETATM    2  C   UNL     1       5.856  26.492  56.403  1.00  0.00     0.321 C 
HETATM    3  N   UNL     1       5.778  27.369  55.367  1.00  0.00    -0.341 N 
HETATM    4  O   UNL     1       5.189  25.459  56.456  1.00  0.00    -0.247 OA
HETATM    5  H   UNL     1       6.668  26.153  58.195  1.00  0.00     0.172 HD
HETATM    6  H   UNL     1       6.477  28.111  55.373  1.00  0.00     0.164 HD
ENDROOT
BRANCH   1   7
HETATM    7  C   UNL     1       7.574  27.861  57.526  1.00  0.00     0.153 A 
HETATM    8  N   UNL     1       7.291  29.043  58.087  1.00  0.00    -0.154 NA
HETATM    9  N   UNL     1       8.429  29.759  57.949  1.00  0.00    -0.275 N 
HETATM   10  C   UNL     1       9.419  29.074  57.306  1.00  0.00     0.116 A 
HETATM   11  C   UNL     1       8.894  27.837  57.020  1.00  0.00     0.071 A 
BRANCH   9  12
HETATM   12  C   UNL     1       8.478  31.147  58.393  1.00  0.00     0.189 C 
BRANCH  12  13
HETATM   13  C   UNL     1       8.309  31.271  59.887  1.00  0.00    -0.038 A 
HETATM   14  C   UNL     1       9.163  30.581  60.761  1.00  0.00     0.009 A 
HETATM   15  C   UNL     1       9.022  30.718  62.143  1.00  0.00     0.001 A 
HETATM   16  C   UNL     1       8.031  31.545  62.666  1.00  0.00     0.000 A 
HETATM   17  C   UNL     1       7.177  32.237  61.810  1.00  0.00     0.001 A 
HETATM   18  C   UNL     1       7.316  32.104  60.427  1.00  0.00     0.009 A 
ENDBRANCH  12  13
ENDBRANCH   9  12
ENDBRANCH   1   7
BRANCH   3  19
HETATM   19  C   UNL     1       5.010  27.103  54.172  1.00  0.00     0.144 C 
BRANCH  19  20
HETATM   20  C   UNL     1       5.808  26.356  53.095  1.00  0.00     0.142 C 
BRANCH  20  21
HETATM   21  N   UNL     1       6.112  24.989  53.484  1.00  0.00    -0.355 N 
HETATM   22  C   UNL     1       7.329  24.410  53.202  1.00  0.00     0.254 C 
HETATM   23  O   UNL     1       8.220  24.988  52.582  1.00  0.00    -0.268 OA
HETATM   24  H   UNL     1       5.500  24.574  54.171  1.00  0.00     0.162 HD
BRANCH  22  25
HETATM   25  C   UNL     1       7.581  23.037  53.730  1.00  0.00     0.065 A 
HETATM   26  C   UNL     1       7.588  22.821  55.118  1.00  0.00     0.081 A 
HETATM   27  C   UNL     1       7.793  21.545  55.641  1.00  0.00     0.037 A 
HETATM   28  C   UNL     1       8.010  20.468  54.784  1.00  0.00     0.003 A 
HETATM   29  C   UNL     1       8.033  20.669  53.405  1.00  0.00     0.001 A 
HETATM   30  C   UNL     1       7.825  21.948  52.878  1.00  0.00     0.020 A 
BRANCH  26  31
HETATM   31  O   UNL     1       7.401  23.823  56.034  1.00  0.00    -0.360 OA
HETATM   32  H   UNL     1       7.687  24.667  55.617  1.00  0.00     0.217 HD
ENDBRANCH  26  31
ENDBRANCH  22  25
ENDBRANCH  20  21
ENDBRANCH  19  20
ENDBRANCH   3  19
TORSDOF 8
ENDMDL
MODEL 7
REMARK VINA RESULT:      -8.9      4.381      5.958
REMARK  8 active torsions:
REMARK  status: ('A' for Active; 'I' for Inactive)
REMARK    1  A    between atoms: C_4  and  C_5 
REMARK    2  A    between atoms: C_5  and  N_6 
REMARK    3  A    between atoms: C_8  and  N_9 
REMARK       I    between atoms: N_9  and  C_10 
REMARK       I    between atoms: C_10  and  N_11 
REMARK    4  A    between atoms: N_11  and  C_12 
REMARK    5  A    between atoms: C_12  and  C_13 
REMARK    6  A    between atoms: C_13  and  N_14 
REMARK       I    between atoms: N_14  and  C_15 
REMARK    7  A    between atoms: C_15  and  C_16 
REMARK    8  A    between atoms: C_17  and  O_18 
ROOT
HETATM    1  N   UNL     1       4.538  25.614  50.663  1.00  0.00    -0.292 N 
HETATM    2  C   UNL     1       4.572  26.765  49.936  1.00  0.00     0.321 C 
HETATM    3  N   UNL     1       5.278  27.807  50.450  1.00  0.00    -0.341 N 
HETATM    4  O   UNL     1       3.955  26.835  48.874  1.00  0.00    -0.247 OA
HETATM    5  H   UNL     1       3.953  24.896  50.264  1.00  0.00     0.172 HD
HETATM    6  H   UNL     1       5.856  27.583  51.259  1.00  0.00     0.164 HD
ENDROOT
BRANCH   1   7
HETATM    7  C   UNL     1       5.215  25.307  51.821  1.00  0.00     0.153 A 
HETATM    8  N   UNL     1       6.529  25.066  51.896  1.00  0.00    -0.154 NA
HETATM    9  N   UNL     1       6.746  24.803  53.202  1.00  0.00    -0.275 N 
HETATM   10  C   UNL     1       5.609  24.855  53.956  1.00  0.00     0.116 A 
HETATM   11  C   UNL     1       4.597  25.182  53.087  1.00  0.00     0.071 A 
BRANCH   9  12
HETATM   12  C   UNL     1       8.077  24.423  53.661  1.00  0.00     0.189 C 
BRANCH  12  13
HETATM   13  C   UNL     1       8.162  22.957  54.003  1.00  0.00    -0.038 A 
HETATM   14  C   UNL     1       8.395  22.545  55.325  1.00  0.00     0.009 A 
HETATM   15  C   UNL     1       8.447  21.187  55.644  1.00  0.00     0.001 A 
HETATM   16  C   UNL     1       8.265  20.228  54.651  1.00  0.00     0.000 A 
HETATM   17  C   UNL     1       8.032  20.622  53.335  1.00  0.00     0.001 A 
HETATM   18  C   UNL     1       7.978  21.980  53.012  1.00  0.00     0.009 A 
ENDBRANCH  12  13
ENDBRANCH   9  12
ENDBRANCH   1   7
BRANCH   3  19
HETATM   19  C   UNL     1       5.482  29.045  49.732  1.00  0.00     0.144 C 
BRANCH  19  20
HETATM   20  C   UNL     1       5.183  30.290  50.578  1.00  0.00     0.142 C 
BRANCH  20  21
HETATM   21  N   UNL     1       5.411  30.060  51.995  1.00  0.00    -0.355 N 
HETATM   22  C   UNL     1       4.412  29.599  52.824  1.00  0.00     0.254 C 
HETATM   23  O   UNL     1       3.266  29.383  52.437  1.00  0.00    -0.268 OA
HETATM   24  H   UNL     1       6.375  30.018  52.291  1.00  0.00     0.162 HD
BRANCH  22  25
HETATM   25  C   UNL     1       4.771  29.301  54.241  1.00  0.00     0.065 A 
HETATM   26  C   UNL     1       5.924  28.547  54.517  1.00  0.00     0.081 A 
HETATM   27  C   UNL     1       6.301  28.276  55.832  1.00  0.00     0.037 A 
HETATM   28  C   UNL     1       5.523  28.741  56.890  1.00  0.00     0.003 A 
HETATM   29  C   UNL     1       4.362  29.468  56.633  1.00  0.00     0.001 A 
HETATM   30  C   UNL     1       3.983  29.744  55.315  1.00  0.00     0.020 A 
BRANCH  26  31
HETATM   31  O   UNL     1       6.738  28.035  53.541  1.00  0.00    -0.360 OA
HETATM   32  H   UNL     1       7.596  28.514  53.587  1.00  0.00     0.217 HD
ENDBRANCH  26  31
ENDBRANCH  22  25
ENDBRANCH  20  21
ENDBRANCH  19  20
ENDBRANCH   3  19
TORSDOF 8
ENDMDL
MODEL 8
REMARK VINA RESULT:      -8.8      4.113      8.295
REMARK  8 active torsions:
REMARK  status: ('A' for Active; 'I' for Inactive)
REMARK    1  A    between atoms: C_4  and  C_5 
REMARK    2  A    between atoms: C_5  and  N_6 
REMARK    3  A    between atoms: C_8  and  N_9 
REMARK       I    between atoms: N_9  and  C_10 
REMARK       I    between atoms: C_10  and  N_11 
REMARK    4  A    between atoms: N_11  and  C_12 
REMARK    5  A    between atoms: C_12  and  C_13 
REMARK    6  A    between atoms: C_13  and  N_14 
REMARK       I    between atoms: N_14  and  C_15 
REMARK    7  A    between atoms: C_15  and  C_16 
REMARK    8  A    between atoms: C_17  and  O_18 
ROOT
HETATM    1  N   UNL     1       6.833  29.049  54.659  1.00  0.00    -0.292 N 
HETATM    2  C   UNL     1       7.625  28.640  55.688  1.00  0.00     0.321 C 
HETATM    3  N   UNL     1       7.542  27.334  56.058  1.00  0.00    -0.341 N 
HETATM    4  O   UNL     1       8.352  29.452  56.257  1.00  0.00    -0.247 OA
HETATM    5  H   UNL     1       6.890  30.037  54.466  1.00  0.00     0.172 HD
HETATM    6  H   UNL     1       7.013  26.736  55.425  1.00  0.00     0.164 HD
ENDROOT
BRANCH   1   7
HETATM    7  C   UNL     1       6.016  28.293  53.848  1.00  0.00     0.153 A 
HETATM    8  N   UNL     1       6.448  27.458  52.896  1.00  0.00    -0.154 NA
HETATM    9  N   UNL     1       5.317  26.951  52.359  1.00  0.00    -0.275 N 
HETATM   10  C   UNL     1       4.182  27.450  52.930  1.00  0.00     0.116 A 
HETATM   11  C   UNL     1       4.603  28.323  53.902  1.00  0.00     0.071 A 
BRANCH   9  12
HETATM   12  C   UNL     1       5.391  26.035  51.227  1.00  0.00     0.189 C 
BRANCH  12  13
HETATM   13  C   UNL     1       4.929  26.681  49.944  1.00  0.00    -0.038 A 
HETATM   14  C   UNL     1       4.048  26.009  49.084  1.00  0.00     0.009 A 
HETATM   15  C   UNL     1       3.601  26.618  47.911  1.00  0.00     0.001 A 
HETATM   16  C   UNL     1       4.026  27.905  47.585  1.00  0.00     0.000 A 
HETATM   17  C   UNL     1       4.900  28.584  48.431  1.00  0.00     0.001 A 
HETATM   18  C   UNL     1       5.348  27.978  49.606  1.00  0.00     0.009 A 
ENDBRANCH  12  13
ENDBRANCH   9  12
ENDBRANCH   1   7
BRANCH   3  19
HETATM   19  C   UNL     1       8.403  26.749  57.062  1.00  0.00     0.144 C 
BRANCH  19  20
HETATM   20  C   UNL     1       7.807  25.491  57.707  1.00  0.00     0.142 C 
BRANCH  20  21
HETATM   21  N   UNL     1       8.053  24.296  56.917  1.00  0.00    -0.355 N 
HETATM   22  C   UNL     1       7.224  23.930  55.880  1.00  0.00     0.254 C 
HETATM   23  O   UNL     1       6.214  24.560  55.575  1.00  0.00    -0.268 OA
HETATM   24  H   UNL     1       8.974  23.889  56.998  1.00  0.00     0.162 HD
BRANCH  22  25
HETATM   25  C   UNL     1       7.617  22.743  55.067  1.00  0.00     0.065 A 
HETATM   26  C   UNL     1       8.071  21.582  55.713  1.00  0.00     0.081 A 
HETATM   27  C   UNL     1       8.418  20.447  54.981  1.00  0.00     0.037 A 
HETATM   28  C   UNL     1       8.333  20.461  53.591  1.00  0.00     0.003 A 
HETATM   29  C   UNL     1       7.910  21.614  52.932  1.00  0.00     0.001 A 
HETATM   30  C   UNL     1       7.557  22.753  53.664  1.00  0.00     0.020 A 
BRANCH  26  31
HETATM   31  O   UNL     1       8.203  21.483  57.074  1.00  0.00    -0.360 OA
HETATM   32  H   UNL     1       8.613  20.611  57.271  1.00  0.00     0.217 HD
ENDBRANCH  26  31
ENDBRANCH  22  25
ENDBRANCH  20  21
ENDBRANCH  19  20
ENDBRANCH   3  19
TORSDOF 8
ENDMDL
MODEL 9
REMARK VINA RESULT:      -8.8      4.751      8.414
REMARK  8 active torsions:
REMARK  status: ('A' for Active; 'I' for Inactive)
REMARK    1  A    between atoms: C_4  and  C_5 
REMARK    2  A    between atoms: C_5  and  N_6 
REMARK    3  A    between atoms: C_8  and  N_9 
REMARK       I    between atoms: N_9  and  C_10 
REMARK       I    between atoms: C_10  and  N_11 
REMARK    4  A    between atoms: N_11  and  C_12 
REMARK    5  A    between atoms: C_12  and  C_13 
REMARK    6  A    between atoms: C_13  and  N_14 
REMARK       I    between atoms: N_14  and  C_15 
REMARK    7  A    between atoms: C_15  and  C_16 
REMARK    8  A    between atoms: C_17  and  O_18 
ROOT
HETATM    1  N   UNL     1       4.255  27.456  54.391  1.00  0.00    -0.292 N 
HETATM    2  C   UNL     1       5.076  27.708  55.448  1.00  0.00     0.321 C 
HETATM    3  N   UNL     1       6.395  27.417  55.297  1.00  0.00    -0.341 N 
HETATM    4  O   UNL     1       4.605  28.154  56.493  1.00  0.00    -0.247 OA
HETATM    5  H   UNL     1       3.280  27.635  54.579  1.00  0.00     0.172 HD
HETATM    6  H   UNL     1       6.683  27.187  54.347  1.00  0.00     0.164 HD
ENDROOT
BRANCH   1   7
HETATM    7  C   UNL     1       4.589  27.038  53.124  1.00  0.00     0.153 A 
HETATM    8  N   UNL     1       4.668  27.835  52.052  1.00  0.00    -0.154 NA
HETATM    9  N   UNL     1       5.008  27.005  51.043  1.00  0.00    -0.275 N 
HETATM   10  C   UNL     1       5.133  25.704  51.436  1.00  0.00     0.116 A 
HETATM   11  C   UNL     1       4.868  25.693  52.784  1.00  0.00     0.071 A 
BRANCH   9  12
HETATM   12  C   UNL     1       5.124  27.517  49.682  1.00  0.00     0.189 C 
BRANCH  12  13
HETATM   13  C   UNL     1       3.896  27.219  48.858  1.00  0.00    -0.038 A 
HETATM   14  C   UNL     1       3.906  26.183  47.912  1.00  0.00     0.009 A 
HETATM   15  C   UNL     1       2.760  25.891  47.169  1.00  0.00     0.001 A 
HETATM   16  C   UNL     1       1.595  26.629  47.364  1.00  0.00     0.000 A 
HETATM   17  C   UNL     1       1.571  27.660  48.300  1.00  0.00     0.001 A 
HETATM   18  C   UNL     1       2.714  27.953  49.046  1.00  0.00     0.009 A 
ENDBRANCH  12  13
ENDBRANCH   9  12
ENDBRANCH   1   7
BRANCH   3  19
HETATM   19  C   UNL     1       7.387  27.733  56.300  1.00  0.00     0.144 C 
BRANCH  19  20
HETATM   20  C   UNL     1       7.737  26.541  57.199  1.00  0.00     0.142 C 
BRANCH  20  21
HETATM   21  N   UNL     1       8.077  25.353  56.433  1.00  0.00    -0.355 N 
HETATM   22  C   UNL     1       7.117  24.457  56.020  1.00  0.00     0.254 C 
HETATM   23  O   UNL     1       5.925  24.579  56.294  1.00  0.00    -0.268 OA
HETATM   24  H   UNL     1       8.996  25.341  56.014  1.00  0.00     0.162 HD
BRANCH  22  25
HETATM   25  C   UNL     1       7.554  23.323  55.155  1.00  0.00     0.065 A 
HETATM   26  C   UNL     1       8.114  22.179  55.746  1.00  0.00     0.081 A 
HETATM   27  C   UNL     1       8.507  21.092  54.966  1.00  0.00     0.037 A 
HETATM   28  C   UNL     1       8.361  21.140  53.582  1.00  0.00     0.003 A 
HETATM   29  C   UNL     1       7.832  22.279  52.976  1.00  0.00     0.001 A 
HETATM   30  C   UNL     1       7.434  23.369  53.757  1.00  0.00     0.020 A 
BRANCH  26  31
HETATM   31  O   UNL     1       8.311  22.052  57.096  1.00  0.00    -0.360 OA
HETATM   32  H   UNL     1       8.788  21.205  57.250  1.00  0.00     0.217 HD
ENDBRANCH  26  31
ENDBRANCH  22  25
ENDBRANCH  20  21
ENDBRANCH  19  20
ENDBRANCH   3  19
TORSDOF 8
ENDMDL
MODEL 10
REMARK VINA RESULT:      -8.7      4.921      8.611
REMARK  8 active torsions:
REMARK  status: ('A' for Active; 'I' for Inactive)
REMARK    1  A    between atoms: C_4  and  C_5 
REMARK    2  A    between atoms: C_5  and  N_6 
REMARK    3  A    between atoms: C_8  and  N_9 
REMARK       I    between atoms: N_9  and  C_10 
REMARK       I    between atoms: C_10  and  N_11 
REMARK    4  A    between atoms: N_11  and  C_12 
REMARK    5  A    between atoms: C_12  and  C_13 
REMARK    6  A    between atoms: C_13  and  N_14 
REMARK       I    between atoms: N_14  and  C_15 
REMARK    7  A    between atoms: C_15  and  C_16 
REMARK    8  A    between atoms: C_17  and  O_18 
ROOT
HETATM    1  N   UNL     1       5.668  26.949  56.831  1.00  0.00    -0.292 N 
HETATM    2  C   UNL     1       5.099  27.445  55.697  1.00  0.00     0.321 C 
HETATM    3  N   UNL     1       5.692  27.133  54.514  1.00  0.00    -0.341 N 
HETATM    4  O   UNL     1       4.106  28.166  55.778  1.00  0.00    -0.247 OA
HETATM    5  H   UNL     1       5.223  27.260  57.681  1.00  0.00     0.172 HD
HETATM    6  H   UNL     1       6.418  26.420  54.567  1.00  0.00     0.164 HD
ENDROOT
BRANCH   1   7
HETATM    7  C   UNL     1       6.720  26.071  56.952  1.00  0.00     0.153 A 
HETATM    8  N   UNL     1       6.637  24.749  56.763  1.00  0.00    -0.154 NA
HETATM    9  N   UNL     1       7.889  24.299  56.997  1.00  0.00    -0.275 N 
HETATM   10  C   UNL     1       8.760  25.292  57.344  1.00  0.00     0.116 A 
HETATM   11  C   UNL     1       8.030  26.455  57.322  1.00  0.00     0.071 A 
BRANCH   9  12
HETATM   12  C   UNL     1       8.174  22.870  56.948  1.00  0.00     0.189 C 
BRANCH  12  13
HETATM   13  C   UNL     1       8.128  22.330  55.541  1.00  0.00    -0.038 A 
HETATM   14  C   UNL     1       7.891  20.967  55.306  1.00  0.00     0.009 A 
HETATM   15  C   UNL     1       7.822  20.474  54.003  1.00  0.00     0.001 A 
HETATM   16  C   UNL     1       7.986  21.335  52.920  1.00  0.00     0.000 A 
HETATM   17  C   UNL     1       8.221  22.691  53.138  1.00  0.00     0.001 A 
HETATM   18  C   UNL     1       8.289  23.188  54.441  1.00  0.00     0.009 A 
ENDBRANCH  12  13
ENDBRANCH   9  12
ENDBRANCH   1   7
BRANCH   3  19
HETATM   19  C   UNL     1       5.131  27.506  53.235  1.00  0.00     0.144 C 
BRANCH  19  20
HETATM   20  C   UNL     1       5.602  26.607  52.084  1.00  0.00     0.142 C 
BRANCH  20  21
HETATM   21  N   UNL     1       4.599  26.475  51.041  1.00  0.00    -0.355 N 
HETATM   22  C   UNL     1       4.581  27.308  49.944  1.00  0.00     0.254 C 
HETATM   23  O   UNL     1       5.380  28.228  49.787  1.00  0.00    -0.268 OA
HETATM   24  H   UNL     1       4.077  25.611  51.030  1.00  0.00     0.162 HD
BRANCH  22  25
HETATM   25  C   UNL     1       3.573  27.028  48.880  1.00  0.00     0.065 A 
HETATM   26  C   UNL     1       2.454  27.868  48.751  1.00  0.00     0.081 A 
HETATM   27  C   UNL     1       1.510  27.649  47.748  1.00  0.00     0.037 A 
HETATM   28  C   UNL     1       1.660  26.578  46.871  1.00  0.00     0.003 A 
HETATM   29  C   UNL     1       2.750  25.719  47.002  1.00  0.00     0.001 A 
HETATM   30  C   UNL     1       3.701  25.938  48.005  1.00  0.00     0.020 A 
BRANCH  26  31
HETATM   31  O   UNL     1       2.216  28.934  49.579  1.00  0.00    -0.360 OA
HETATM   32  H   UNL     1       1.260  28.923  49.811  1.00  0.00     0.217 HD
ENDBRANCH  26  31
ENDBRANCH  22  25
ENDBRANCH  20  21
ENDBRANCH  19  20
ENDBRANCH   3  19
TORSDOF 8
ENDMDL
