MODEL 1
REMARK VINA RESULT:     -10.3      0.000      0.000
REMARK  5 active torsions:
REMARK  status: ('A' for Active; 'I' for Inactive)
REMARK    1  A    between atoms: N_4  and  C_5 
REMARK    2  A    between atoms: C_16  and  N_17 
REMARK       I    between atoms: N_17  and  C_18 
REMARK    3  A    between atoms: C_18  and  C_19 
REMARK       I    between atoms: C_19  and  N_20 
REMARK    4  A    between atoms: N_20  and  C_21 
REMARK    5  A    between atoms: C_21  and  C_22 
ROOT
HETATM    1  C   UNL     1       3.855  30.046  52.564  1.00  0.00     0.072 C 
HETATM    2  C   UNL     1       4.315  29.534  53.878  1.00  0.00     0.055 C 
HETATM    3  N   UNL     1       4.932  30.343  54.743  1.00  0.00    -0.156 NA
HETATM    4  N   UNL     1       5.212  29.542  55.825  1.00  0.00    -0.045 N 
HETATM    5  C   UNL     1       4.629  28.282  55.686  1.00  0.00     0.152 C 
HETATM    6  C   UNL     1       4.165  28.228  54.390  1.00  0.00     0.079 C 
ENDROOT
BRANCH   5   7
HETATM    7  N   UNL     1       4.589  27.256  56.617  1.00  0.00    -0.303 N 
HETATM    8  C   UNL     1       5.350  26.099  56.602  1.00  0.00     0.315 C 
HETATM    9  O   UNL     1       5.131  25.174  57.382  1.00  0.00    -0.262 OA
HETATM   10  H   UNL     1       4.113  27.412  57.496  1.00  0.00     0.171 HD
BRANCH   8  11
HETATM   11  C   UNL     1       6.606  26.013  55.703  1.00  0.00     0.310 C 
HETATM   12  N   UNL     1       6.521  25.060  54.714  1.00  0.00    -0.349 N 
HETATM   13  H   UNL     1       5.691  24.474  54.707  1.00  0.00     0.163 HD
HETATM   14  O   UNL     1       7.587  26.712  55.914  1.00  0.00    -0.262 OA
BRANCH  12  15
HETATM   15  C   UNL     1       7.659  24.693  53.914  1.00  0.00     0.163 C 
BRANCH  15  16
HETATM   16  C   UNL     1       8.005  23.236  54.057  1.00  0.00    -0.019 A 
HETATM   17  C   UNL     1       8.672  22.721  55.180  1.00  0.00     0.042 A 
HETATM   18 CL   UNL     1       9.091  23.718  56.527  1.00  0.00    -0.084 Cl
HETATM   19  C   UNL     1       9.017  21.367  55.242  1.00  0.00     0.024 A 
HETATM   20  C   UNL     1       8.689  20.508  54.193  1.00  0.00     0.002 A 
HETATM   21  C   UNL     1       7.996  20.998  53.090  1.00  0.00     0.001 A 
HETATM   22  C   UNL     1       7.652  22.349  53.024  1.00  0.00     0.010 A 
ENDBRANCH  15  16
ENDBRANCH  12  15
ENDBRANCH   8  11
ENDBRANCH   5   7
BRANCH   4  23
HETATM   23  C   UNL     1       6.133  30.014  56.786  1.00  0.00     0.732 A 
HETATM   24  N   UNL     1       5.836  30.854  57.724  1.00  0.00    -0.067 NA
HETATM   25  C   UNL     1       6.840  31.175  58.607  1.00  0.00     0.065 A 
HETATM   26  C   UNL     1       8.080  30.652  58.565  1.00  0.00     0.036 A 
HETATM   27  C   UNL     1       6.446  32.151  59.692  1.00  0.00     0.060 C 
HETATM   28  C   UNL     1       9.168  30.965  59.549  1.00  0.00     0.046 C 
HETATM   29  C   UNL     1       8.391  29.695  57.475  1.00  0.00     0.268 A 
HETATM   30  C   UNL     1       8.842  32.148  60.462  1.00  0.00     0.005 C 
HETATM   31  C   UNL     1       7.384  32.135  60.900  1.00  0.00     0.006 C 
HETATM   32  O   UNL     1       9.494  29.171  57.360  1.00  0.00    -0.267 OA
HETATM   33  N   UNL     1       7.364  29.438  56.625  1.00  0.00    -0.152 N 
HETATM   34  H   UNL     1       7.493  28.769  55.873  1.00  0.00     0.188 HD
ENDBRANCH   4  23
TORSDOF 5
ENDMDL
MODEL 2
REMARK VINA RESULT:     -10.2      2.334      3.967
REMARK  5 active torsions:
REMARK  status: ('A' for Active; 'I' for Inactive)
REMARK    1  A    between atoms: N_4  and  C_5 
REMARK    2  A    between atoms: C_16  and  N_17 
REMARK       I    between atoms: N_17  and  C_18 
REMARK    3  A    between atoms: C_18  and  C_19 
REMARK       I    between atoms: C_19  and  N_20 
REMARK    4  A    between atoms: N_20  and  C_21 
REMARK    5  A    between atoms: C_21  and  C_22 
ROOT
HETATM    1  C   UNL     1      11.563  29.639  57.043  1.00  0.00     0.072 C 
HETATM    2  C   UNL     1      10.144  29.686  57.476  1.00  0.00     0.055 C 
HETATM    3  N   UNL     1       9.728  30.623  58.333  1.00  0.00    -0.156 NA
HETATM    4  N   UNL     1       8.389  30.361  58.505  1.00  0.00    -0.045 N 
HETATM    5  C   UNL     1       7.952  29.361  57.635  1.00  0.00     0.152 C 
HETATM    6  C   UNL     1       9.094  28.838  57.068  1.00  0.00     0.079 C 
ENDROOT
BRANCH   5   7
HETATM    7  N   UNL     1       6.656  28.916  57.433  1.00  0.00    -0.303 N 
HETATM    8  C   UNL     1       6.261  27.611  57.189  1.00  0.00     0.315 C 
HETATM    9  O   UNL     1       5.106  27.338  56.864  1.00  0.00    -0.262 OA
HETATM   10  H   UNL     1       5.887  29.533  57.660  1.00  0.00     0.171 HD
BRANCH   8  11
HETATM   11  C   UNL     1       7.232  26.443  57.481  1.00  0.00     0.310 C 
HETATM   12  N   UNL     1       7.469  25.630  56.396  1.00  0.00    -0.349 N 
HETATM   13  H   UNL     1       6.949  25.829  55.547  1.00  0.00     0.163 HD
HETATM   14  O   UNL     1       7.688  26.262  58.601  1.00  0.00    -0.262 OA
BRANCH  12  15
HETATM   15  C   UNL     1       8.177  24.384  56.522  1.00  0.00     0.163 C 
BRANCH  15  16
HETATM   16  C   UNL     1       8.041  23.529  55.292  1.00  0.00    -0.019 A 
HETATM   17  C   UNL     1       8.142  22.129  55.325  1.00  0.00     0.042 A 
HETATM   18 CL   UNL     1       8.365  21.267  56.805  1.00  0.00    -0.084 Cl
HETATM   19  C   UNL     1       8.060  21.384  54.144  1.00  0.00     0.024 A 
HETATM   20  C   UNL     1       7.863  22.023  52.920  1.00  0.00     0.002 A 
HETATM   21  C   UNL     1       7.725  23.407  52.878  1.00  0.00     0.001 A 
HETATM   22  C   UNL     1       7.808  24.154  54.053  1.00  0.00     0.010 A 
ENDBRANCH  15  16
ENDBRANCH  12  15
ENDBRANCH   8  11
ENDBRANCH   5   7
BRANCH   4  23
HETATM   23  C   UNL     1       7.720  30.978  59.585  1.00  0.00     0.732 A 
HETATM   24  N   UNL     1       8.217  31.095  60.774  1.00  0.00    -0.067 NA
HETATM   25  C   UNL     1       7.452  31.765  61.699  1.00  0.00     0.065 A 
HETATM   26  C   UNL     1       6.252  32.316  61.434  1.00  0.00     0.036 A 
HETATM   27  C   UNL     1       8.076  31.888  63.072  1.00  0.00     0.060 C 
HETATM   28  C   UNL     1       5.431  33.083  62.427  1.00  0.00     0.046 C 
HETATM   29  C   UNL     1       5.708  32.160  60.063  1.00  0.00     0.268 A 
HETATM   30  C   UNL     1       5.942  32.962  63.864  1.00  0.00     0.005 C 
HETATM   31  C   UNL     1       7.463  33.000  63.925  1.00  0.00     0.006 C 
HETATM   32  O   UNL     1       4.624  32.628  59.733  1.00  0.00    -0.267 OA
HETATM   33  N   UNL     1       6.502  31.470  59.204  1.00  0.00    -0.152 N 
HETATM   34  H   UNL     1       6.209  31.351  58.240  1.00  0.00     0.188 HD
ENDBRANCH   4  23
TORSDOF 5
ENDMDL
MODEL 3
REMARK VINA RESULT:     -10.1      2.383      8.101
REMARK  5 active torsions:
REMARK  status: ('A' for Active; 'I' for Inactive)
REMARK    1  A    between atoms: N_4  and  C_5 
REMARK    2  A    between atoms: C_16  and  N_17 
REMARK       I    between atoms: N_17  and  C_18 
REMARK    3  A    between atoms: C_18  and  C_19 
REMARK       I    between atoms: C_19  and  N_20 
REMARK    4  A    between atoms: N_20  and  C_21 
REMARK    5  A    between atoms: C_21  and  C_22 
ROOT
HETATM    1  C   UNL     1       3.362  29.446  56.012  1.00  0.00     0.072 C 
HETATM    2  C   UNL     1       4.721  28.914  55.741  1.00  0.00     0.055 C 
HETATM    3  N   UNL     1       4.898  27.621  55.456  1.00  0.00    -0.156 NA
HETATM    4  N   UNL     1       6.254  27.492  55.271  1.00  0.00    -0.045 N 
HETATM    5  C   UNL     1       6.889  28.735  55.289  1.00  0.00     0.152 C 
HETATM    6  C   UNL     1       5.934  29.632  55.717  1.00  0.00     0.079 C 
ENDROOT
BRANCH   5   7
HETATM    7  N   UNL     1       8.218  29.015  55.020  1.00  0.00    -0.303 N 
HETATM    8  C   UNL     1       9.171  29.443  55.929  1.00  0.00     0.315 C 
HETATM    9  O   UNL     1      10.285  29.819  55.565  1.00  0.00    -0.262 OA
HETATM   10  H   UNL     1       8.611  28.716  54.136  1.00  0.00     0.171 HD
BRANCH   8  11
HETATM   11  C   UNL     1       8.909  29.302  57.446  1.00  0.00     0.310 C 
HETATM   12  N   UNL     1       8.996  30.487  58.140  1.00  0.00    -0.349 N 
HETATM   13  H   UNL     1       9.280  31.310  57.617  1.00  0.00     0.163 HD
HETATM   14  O   UNL     1       8.696  28.210  57.955  1.00  0.00    -0.262 OA
BRANCH  12  15
HETATM   15  C   UNL     1       8.986  30.526  59.579  1.00  0.00     0.163 C 
BRANCH  15  16
HETATM   16  C   UNL     1       7.810  31.297  60.115  1.00  0.00    -0.019 A 
HETATM   17  C   UNL     1       7.549  31.426  61.489  1.00  0.00     0.042 A 
HETATM   18 CL   UNL     1       8.605  30.759  62.682  1.00  0.00    -0.084 Cl
HETATM   19  C   UNL     1       6.414  32.110  61.935  1.00  0.00     0.024 A 
HETATM   20  C   UNL     1       5.534  32.685  61.018  1.00  0.00     0.002 A 
HETATM   21  C   UNL     1       5.800  32.597  59.655  1.00  0.00     0.001 A 
HETATM   22  C   UNL     1       6.931  31.913  59.207  1.00  0.00     0.010 A 
ENDBRANCH  15  16
ENDBRANCH  12  15
ENDBRANCH   8  11
ENDBRANCH   5   7
BRANCH   4  23
HETATM   23  C   UNL     1       6.807  26.193  55.260  1.00  0.00     0.732 A 
HETATM   24  N   UNL     1       6.728  25.379  54.256  1.00  0.00    -0.067 NA
HETATM   25  C   UNL     1       7.361  24.167  54.393  1.00  0.00     0.065 A 
HETATM   26  C   UNL     1       8.068  23.799  55.479  1.00  0.00     0.036 A 
HETATM   27  C   UNL     1       7.251  23.252  53.193  1.00  0.00     0.060 C 
HETATM   28  C   UNL     1       8.796  22.496  55.618  1.00  0.00     0.046 C 
HETATM   29  C   UNL     1       8.137  24.752  56.614  1.00  0.00     0.268 A 
HETATM   30  C   UNL     1       8.449  21.484  54.525  1.00  0.00     0.005 C 
HETATM   31  C   UNL     1       8.313  22.152  53.163  1.00  0.00     0.006 C 
HETATM   32  O   UNL     1       8.756  24.501  57.642  1.00  0.00    -0.267 OA
HETATM   33  N   UNL     1       7.471  25.921  56.425  1.00  0.00    -0.152 N 
HETATM   34  H   UNL     1       7.501  26.634  57.146  1.00  0.00     0.188 HD
ENDBRANCH   4  23
TORSDOF 5
ENDMDL
MODEL 4
REMARK VINA RESULT:      -9.6      3.153      8.259
REMARK  5 active torsions:
REMARK  status: ('A' for Active; 'I' for Inactive)
REMARK    1  A    between atoms: N_4  and  C_5 
REMARK    2  A    between atoms: C_16  and  N_17 
REMARK       I    between atoms: N_17  and  C_18 
REMARK    3  A    between atoms: C_18  and  C_19 
REMARK       I    between atoms: C_19  and  N_20 
REMARK    4  A    between atoms: N_20  and  C_21 
REMARK    5  A    between atoms: C_21  and  C_22 
ROOT
HETATM    1  C   UNL     1       7.900  22.477  54.420  1.00  0.00     0.072 C 
HETATM    2  C   UNL     1       7.040  23.670  54.218  1.00  0.00     0.055 C 
HETATM    3  N   UNL     1       6.637  24.014  52.992  1.00  0.00    -0.156 NA
HETATM    4  N   UNL     1       5.878  25.145  53.185  1.00  0.00    -0.045 N 
HETATM    5  C   UNL     1       5.689  25.403  54.543  1.00  0.00     0.152 C 
HETATM    6  C   UNL     1       6.536  24.541  55.206  1.00  0.00     0.079 C 
ENDROOT
BRANCH   5   7
HETATM    7  N   UNL     1       4.889  26.375  55.121  1.00  0.00    -0.303 N 
HETATM    8  C   UNL     1       5.320  27.489  55.821  1.00  0.00     0.315 C 
HETATM    9  O   UNL     1       4.532  28.209  56.434  1.00  0.00    -0.262 OA
HETATM   10  H   UNL     1       3.909  26.411  54.873  1.00  0.00     0.171 HD
BRANCH   8  11
HETATM   11  C   UNL     1       6.793  27.946  55.713  1.00  0.00     0.310 C 
HETATM   12  N   UNL     1       7.480  27.903  56.905  1.00  0.00    -0.349 N 
HETATM   13  H   UNL     1       6.953  27.644  57.733  1.00  0.00     0.163 HD
HETATM   14  O   UNL     1       7.257  28.351  54.656  1.00  0.00    -0.262 OA
BRANCH  12  15
HETATM   15  C   UNL     1       8.792  28.479  57.046  1.00  0.00     0.163 C 
BRANCH  15  16
HETATM   16  C   UNL     1       8.777  29.714  57.906  1.00  0.00    -0.019 A 
HETATM   17  C   UNL     1       9.921  30.497  58.129  1.00  0.00     0.042 A 
HETATM   18 CL   UNL     1      11.432  30.138  57.372  1.00  0.00    -0.084 Cl
HETATM   19  C   UNL     1       9.867  31.607  58.979  1.00  0.00     0.024 A 
HETATM   20  C   UNL     1       8.670  31.956  59.604  1.00  0.00     0.002 A 
HETATM   21  C   UNL     1       7.520  31.210  59.363  1.00  0.00     0.001 A 
HETATM   22  C   UNL     1       7.571  30.102  58.517  1.00  0.00     0.010 A 
ENDBRANCH  15  16
ENDBRANCH  12  15
ENDBRANCH   8  11
ENDBRANCH   5   7
BRANCH   4  23
HETATM   23  C   UNL     1       5.558  25.935  52.059  1.00  0.00     0.732 A 
HETATM   24  N   UNL     1       4.954  25.487  51.006  1.00  0.00    -0.067 NA
HETATM   25  C   UNL     1       4.676  26.401  50.017  1.00  0.00     0.065 A 
HETATM   26  C   UNL     1       4.968  27.713  50.096  1.00  0.00     0.036 A 
HETATM   27  C   UNL     1       3.960  25.836  48.811  1.00  0.00     0.060 C 
HETATM   28  C   UNL     1       4.630  28.723  49.039  1.00  0.00     0.046 C 
HETATM   29  C   UNL     1       5.664  28.196  51.313  1.00  0.00     0.268 A 
HETATM   30  C   UNL     1       4.162  28.097  47.725  1.00  0.00     0.005 C 
HETATM   31  C   UNL     1       3.256  26.898  47.965  1.00  0.00     0.006 C 
HETATM   32  O   UNL     1       5.969  29.373  51.469  1.00  0.00    -0.267 OA
HETATM   33  N   UNL     1       5.929  27.239  52.241  1.00  0.00    -0.152 N 
HETATM   34  H   UNL     1       6.376  27.501  53.113  1.00  0.00     0.188 HD
ENDBRANCH   4  23
TORSDOF 5
ENDMDL
MODEL 5
REMARK VINA RESULT:      -9.4      2.052      3.232
REMARK  5 active torsions:
REMARK  status: ('A' for Active; 'I' for Inactive)
REMARK    1  A    between atoms: N_4  and  C_5 
REMARK    2  A    between atoms: C_16  and  N_17 
REMARK       I    between atoms: N_17  and  C_18 
REMARK    3  A    between atoms: C_18  and  C_19 
REMARK       I    between atoms: C_19  and  N_20 
REMARK    4  A    between atoms: N_20  and  C_21 
REMARK    5  A    between atoms: C_21  and  C_22 
ROOT
HETATM    1  C   UNL     1       3.291  29.609  55.009  1.00  0.00     0.072 C 
HETATM    2  C   UNL     1       4.590  29.787  55.704  1.00  0.00     0.055 C 
HETATM    3  N   UNL     1       4.627  30.076  57.008  1.00  0.00    -0.156 NA
HETATM    4  N   UNL     1       5.966  30.170  57.302  1.00  0.00    -0.045 N 
HETATM    5  C   UNL     1       6.752  29.787  56.214  1.00  0.00     0.152 C 
HETATM    6  C   UNL     1       5.882  29.665  55.152  1.00  0.00     0.079 C 
ENDROOT
BRANCH   5   7
HETATM    7  N   UNL     1       8.129  29.637  56.170  1.00  0.00    -0.303 N 
HETATM    8  C   UNL     1       8.858  28.568  56.662  1.00  0.00     0.315 C 
HETATM    9  O   UNL     1      10.087  28.599  56.720  1.00  0.00    -0.262 OA
HETATM   10  H   UNL     1       8.667  30.250  55.572  1.00  0.00     0.171 HD
BRANCH   8  11
HETATM   11  C   UNL     1       8.146  27.238  57.001  1.00  0.00     0.310 C 
HETATM   12  N   UNL     1       7.893  26.445  55.905  1.00  0.00    -0.349 N 
HETATM   13  H   UNL     1       8.133  26.824  54.994  1.00  0.00     0.163 HD
HETATM   14  O   UNL     1       7.807  26.973  58.146  1.00  0.00    -0.262 OA
BRANCH  12  15
HETATM   15  C   UNL     1       7.063  25.273  55.992  1.00  0.00     0.163 C 
BRANCH  15  16
HETATM   16  C   UNL     1       7.579  24.149  55.135  1.00  0.00    -0.019 A 
HETATM   17  C   UNL     1       7.021  23.829  53.887  1.00  0.00     0.042 A 
HETATM   18 CL   UNL     1       5.730  24.750  53.203  1.00  0.00    -0.084 Cl
HETATM   19  C   UNL     1       7.504  22.741  53.152  1.00  0.00     0.024 A 
HETATM   20  C   UNL     1       8.556  21.970  53.645  1.00  0.00     0.002 A 
HETATM   21  C   UNL     1       9.142  22.299  54.863  1.00  0.00     0.001 A 
HETATM   22  C   UNL     1       8.662  23.382  55.600  1.00  0.00     0.010 A 
ENDBRANCH  15  16
ENDBRANCH  12  15
ENDBRANCH   8  11
ENDBRANCH   5   7
BRANCH   4  23
HETATM   23  C   UNL     1       6.342  30.767  58.526  1.00  0.00     0.732 A 
HETATM   24  N   UNL     1       7.461  30.534  59.133  1.00  0.00    -0.067 NA
HETATM   25  C   UNL     1       7.690  31.234  60.294  1.00  0.00     0.065 A 
HETATM   26  C   UNL     1       6.845  32.148  60.807  1.00  0.00     0.036 A 
HETATM   27  C   UNL     1       9.014  30.938  60.964  1.00  0.00     0.060 C 
HETATM   28  C   UNL     1       7.108  32.944  62.050  1.00  0.00     0.046 C 
HETATM   29  C   UNL     1       5.569  32.389  60.090  1.00  0.00     0.268 A 
HETATM   30  C   UNL     1       8.307  32.441  62.855  1.00  0.00     0.005 C 
HETATM   31  C   UNL     1       9.456  32.022  61.948  1.00  0.00     0.006 C 
HETATM   32  O   UNL     1       4.740  33.201  60.486  1.00  0.00    -0.267 OA
HETATM   33  N   UNL     1       5.393  31.650  58.964  1.00  0.00    -0.152 N 
HETATM   34  H   UNL     1       4.558  31.784  58.405  1.00  0.00     0.188 HD
ENDBRANCH   4  23
TORSDOF 5
ENDMDL
MODEL 6
REMARK VINA RESULT:      -9.4      2.269      7.834
REMARK  5 active torsions:
REMARK  status: ('A' for Active; 'I' for Inactive)
REMARK    1  A    between atoms: N_4  and  C_5 
REMARK    2  A    between atoms: C_16  and  N_17 
REMARK       I    between atoms: N_17  and  C_18 
REMARK    3  A    between atoms: C_18  and  C_19 
REMARK       I    between atoms: C_19  and  N_20 
REMARK    4  A    between atoms: N_20  and  C_21 
REMARK    5  A    between atoms: C_21  and  C_22 
ROOT
HETATM    1  C   UNL     1       5.243  27.195  50.310  1.00  0.00     0.072 C 
HETATM    2  C   UNL     1       5.365  26.651  51.686  1.00  0.00     0.055 C 
HETATM    3  N   UNL     1       6.310  25.753  51.979  1.00  0.00    -0.156 NA
HETATM    4  N   UNL     1       6.122  25.479  53.313  1.00  0.00    -0.045 N 
HETATM    5  C   UNL     1       5.162  26.323  53.874  1.00  0.00     0.152 C 
HETATM    6  C   UNL     1       4.584  26.985  52.812  1.00  0.00     0.079 C 
ENDROOT
BRANCH   5   7
HETATM    7  N   UNL     1       4.795  26.427  55.205  1.00  0.00    -0.303 N 
HETATM    8  C   UNL     1       5.404  27.210  56.171  1.00  0.00     0.315 C 
HETATM    9  O   UNL     1       5.106  27.115  57.361  1.00  0.00    -0.262 OA
HETATM   10  H   UNL     1       3.897  26.060  55.494  1.00  0.00     0.171 HD
BRANCH   8  11
HETATM   11  C   UNL     1       6.366  28.346  55.749  1.00  0.00     0.310 C 
HETATM   12  N   UNL     1       7.615  28.261  56.320  1.00  0.00    -0.349 N 
HETATM   13  H   UNL     1       7.765  27.519  56.996  1.00  0.00     0.163 HD
HETATM   14  O   UNL     1       5.996  29.249  55.012  1.00  0.00    -0.262 OA
BRANCH  12  15
HETATM   15  C   UNL     1       8.573  29.330  56.210  1.00  0.00     0.163 C 
BRANCH  15  16
HETATM   16  C   UNL     1       8.631  30.167  57.459  1.00  0.00    -0.019 A 
HETATM   17  C   UNL     1       9.840  30.545  58.064  1.00  0.00     0.042 A 
HETATM   18 CL   UNL     1      11.370  30.132  57.377  1.00  0.00    -0.084 Cl
HETATM   19  C   UNL     1       9.839  31.280  59.254  1.00  0.00     0.024 A 
HETATM   20  C   UNL     1       8.634  31.658  59.847  1.00  0.00     0.002 A 
HETATM   21  C   UNL     1       7.429  31.321  59.239  1.00  0.00     0.001 A 
HETATM   22  C   UNL     1       7.426  30.586  58.052  1.00  0.00     0.010 A 
ENDBRANCH  15  16
ENDBRANCH  12  15
ENDBRANCH   8  11
ENDBRANCH   5   7
BRANCH   4  23
HETATM   23  C   UNL     1       6.758  24.343  53.858  1.00  0.00     0.732 A 
HETATM   24  N   UNL     1       6.955  23.240  53.210  1.00  0.00    -0.067 NA
HETATM   25  C   UNL     1       7.633  22.245  53.875  1.00  0.00     0.065 A 
HETATM   26  C   UNL     1       8.116  22.364  55.126  1.00  0.00     0.036 A 
HETATM   27  C   UNL     1       7.849  20.980  53.076  1.00  0.00     0.060 C 
HETATM   28  C   UNL     1       8.891  21.298  55.841  1.00  0.00     0.046 C 
HETATM   29  C   UNL     1       7.870  23.638  55.844  1.00  0.00     0.268 A 
HETATM   30  C   UNL     1       8.862  19.943  55.133  1.00  0.00     0.005 C 
HETATM   31  C   UNL     1       8.971  20.096  53.623  1.00  0.00     0.006 C 
HETATM   32  O   UNL     1       8.272  23.833  56.986  1.00  0.00    -0.267 OA
HETATM   33  N   UNL     1       7.176  24.570  55.141  1.00  0.00    -0.152 N 
HETATM   34  H   UNL     1       6.999  25.479  55.557  1.00  0.00     0.188 HD
ENDBRANCH   4  23
TORSDOF 5
ENDMDL
MODEL 7
REMARK VINA RESULT:      -9.4      3.009      8.096
REMARK  5 active torsions:
REMARK  status: ('A' for Active; 'I' for Inactive)
REMARK    1  A    between atoms: N_4  and  C_5 
REMARK    2  A    between atoms: C_16  and  N_17 
REMARK       I    between atoms: N_17  and  C_18 
REMARK    3  A    between atoms: C_18  and  C_19 
REMARK       I    between atoms: C_19  and  N_20 
REMARK    4  A    between atoms: N_20  and  C_21 
REMARK    5  A    between atoms: C_21  and  C_22 
ROOT
HETATM    1  C   UNL     1       7.870  29.626  58.535  1.00  0.00     0.072 C 
HETATM    2  C   UNL     1       7.752  28.835  57.285  1.00  0.00     0.055 C 
HETATM    3  N   UNL     1       7.549  27.516  57.335  1.00  0.00    -0.156 NA
HETATM    4  N   UNL     1       7.497  27.126  56.017  1.00  0.00    -0.045 N 
HETATM    5  C   UNL     1       7.512  28.228  55.162  1.00  0.00     0.152 C 
HETATM    6  C   UNL     1       7.805  29.313  55.960  1.00  0.00     0.079 C 
ENDROOT
BRANCH   5   7
HETATM    7  N   UNL     1       7.354  28.238  53.785  1.00  0.00    -0.303 N 
HETATM    8  C   UNL     1       6.156  28.290  53.094  1.00  0.00     0.315 C 
HETATM    9  O   UNL     1       6.109  28.134  51.874  1.00  0.00    -0.262 OA
HETATM   10  H   UNL     1       8.163  28.412  53.202  1.00  0.00     0.171 HD
BRANCH   8  11
HETATM   11  C   UNL     1       4.860  28.710  53.825  1.00  0.00     0.310 C 
HETATM   12  N   UNL     1       4.570  30.052  53.723  1.00  0.00    -0.349 N 
HETATM   13  H   UNL     1       5.249  30.636  53.244  1.00  0.00     0.163 HD
HETATM   14  O   UNL     1       4.204  27.903  54.469  1.00  0.00    -0.262 OA
BRANCH  12  15
HETATM   15  C   UNL     1       3.525  30.664  54.500  1.00  0.00     0.163 C 
BRANCH  15  16
HETATM   16  C   UNL     1       4.027  31.162  55.829  1.00  0.00    -0.019 A 
HETATM   17  C   UNL     1       4.741  32.362  55.969  1.00  0.00     0.042 A 
HETATM   18 CL   UNL     1       5.043  33.404  54.625  1.00  0.00    -0.084 Cl
HETATM   19  C   UNL     1       5.231  32.755  57.219  1.00  0.00     0.024 A 
HETATM   20  C   UNL     1       5.003  31.963  58.344  1.00  0.00     0.002 A 
HETATM   21  C   UNL     1       4.266  30.788  58.226  1.00  0.00     0.001 A 
HETATM   22  C   UNL     1       3.778  30.393  56.980  1.00  0.00     0.010 A 
ENDBRANCH  15  16
ENDBRANCH  12  15
ENDBRANCH   8  11
ENDBRANCH   5   7
BRANCH   4  23
HETATM   23  C   UNL     1       7.602  25.748  55.723  1.00  0.00     0.732 A 
HETATM   24  N   UNL     1       7.457  25.247  54.539  1.00  0.00    -0.067 NA
HETATM   25  C   UNL     1       7.636  23.889  54.417  1.00  0.00     0.065 A 
HETATM   26  C   UNL     1       7.975  23.076  55.436  1.00  0.00     0.036 A 
HETATM   27  C   UNL     1       7.467  23.347  53.016  1.00  0.00     0.060 C 
HETATM   28  C   UNL     1       8.213  21.601  55.303  1.00  0.00     0.046 C 
HETATM   29  C   UNL     1       8.130  23.680  56.782  1.00  0.00     0.268 A 
HETATM   30  C   UNL     1       7.773  21.032  53.953  1.00  0.00     0.005 C 
HETATM   31  C   UNL     1       8.112  21.976  52.808  1.00  0.00     0.006 C 
HETATM   32  O   UNL     1       8.436  23.016  57.765  1.00  0.00    -0.267 OA
HETATM   33  N   UNL     1       7.917  25.021  56.838  1.00  0.00    -0.152 N 
HETATM   34  H   UNL     1       8.037  25.508  57.720  1.00  0.00     0.188 HD
ENDBRANCH   4  23
TORSDOF 5
ENDMDL
MODEL 8
REMARK VINA RESULT:      -9.0      2.387      8.132
REMARK  5 active torsions:
REMARK  status: ('A' for Active; 'I' for Inactive)
REMARK    1  A    between atoms: N_4  and  C_5 
REMARK    2  A    between atoms: C_16  and  N_17 
REMARK       I    between atoms: N_17  and  C_18 
REMARK    3  A    between atoms: C_18  and  C_19 
REMARK       I    between atoms: C_19  and  N_20 
REMARK    4  A    between atoms: N_20  and  C_21 
REMARK    5  A    between atoms: C_21  and  C_22 
ROOT
HETATM    1  C   UNL     1       5.563  26.951  50.534  1.00  0.00     0.072 C 
HETATM    2  C   UNL     1       5.627  26.262  51.847  1.00  0.00     0.055 C 
HETATM    3  N   UNL     1       6.618  25.408  52.117  1.00  0.00    -0.156 NA
HETATM    4  N   UNL     1       6.356  24.969  53.393  1.00  0.00    -0.045 N 
HETATM    5  C   UNL     1       5.292  25.671  53.962  1.00  0.00     0.152 C 
HETATM    6  C   UNL     1       4.741  26.407  52.935  1.00  0.00     0.079 C 
ENDROOT
BRANCH   5   7
HETATM    7  N   UNL     1       4.821  25.594  55.263  1.00  0.00    -0.303 N 
HETATM    8  C   UNL     1       5.316  26.276  56.361  1.00  0.00     0.315 C 
HETATM    9  O   UNL     1       4.935  26.021  57.503  1.00  0.00    -0.262 OA
HETATM   10  H   UNL     1       3.924  25.156  55.432  1.00  0.00     0.171 HD
BRANCH   8  11
HETATM   11  C   UNL     1       6.246  27.495  56.158  1.00  0.00     0.310 C 
HETATM   12  N   UNL     1       5.693  28.692  56.551  1.00  0.00    -0.349 N 
HETATM   13  H   UNL     1       4.728  28.673  56.869  1.00  0.00     0.163 HD
HETATM   14  O   UNL     1       7.349  27.373  55.643  1.00  0.00    -0.262 OA
BRANCH  12  15
HETATM   15  C   UNL     1       6.320  29.952  56.253  1.00  0.00     0.163 C 
BRANCH  15  16
HETATM   16  C   UNL     1       6.347  30.867  57.448  1.00  0.00    -0.019 A 
HETATM   17  C   UNL     1       7.294  30.744  58.476  1.00  0.00     0.042 A 
HETATM   18 CL   UNL     1       8.555  29.566  58.417  1.00  0.00    -0.084 Cl
HETATM   19  C   UNL     1       7.244  31.587  59.592  1.00  0.00     0.024 A 
HETATM   20  C   UNL     1       6.259  32.570  59.687  1.00  0.00     0.002 A 
HETATM   21  C   UNL     1       5.336  32.726  58.658  1.00  0.00     0.001 A 
HETATM   22  C   UNL     1       5.382  31.886  57.545  1.00  0.00     0.010 A 
ENDBRANCH  15  16
ENDBRANCH  12  15
ENDBRANCH   8  11
ENDBRANCH   5   7
BRANCH   4  23
HETATM   23  C   UNL     1       7.041  23.827  53.861  1.00  0.00     0.732 A 
HETATM   24  N   UNL     1       7.366  23.632  55.098  1.00  0.00    -0.067 NA
HETATM   25  C   UNL     1       7.991  22.443  55.393  1.00  0.00     0.065 A 
HETATM   26  C   UNL     1       8.253  21.481  54.488  1.00  0.00     0.036 A 
HETATM   27  C   UNL     1       8.344  22.254  56.851  1.00  0.00     0.060 C 
HETATM   28  C   UNL     1       8.896  20.165  54.810  1.00  0.00     0.046 C 
HETATM   29  C   UNL     1       7.872  21.735  53.077  1.00  0.00     0.268 A 
HETATM   30  C   UNL     1       9.489  20.103  56.218  1.00  0.00     0.005 C 
HETATM   31  C   UNL     1       8.591  20.794  57.236  1.00  0.00     0.006 C 
HETATM   32  O   UNL     1       8.072  20.916  52.188  1.00  0.00    -0.267 OA
HETATM   33  N   UNL     1       7.279  22.937  52.850  1.00  0.00    -0.152 N 
HETATM   34  H   UNL     1       6.963  23.167  51.914  1.00  0.00     0.188 HD
ENDBRANCH   4  23
TORSDOF 5
ENDMDL
MODEL 9
REMARK VINA RESULT:      -8.9      4.270      8.206
REMARK  5 active torsions:
REMARK  status: ('A' for Active; 'I' for Inactive)
REMARK    1  A    between atoms: N_4  and  C_5 
REMARK    2  A    between atoms: C_16  and  N_17 
REMARK       I    between atoms: N_17  and  C_18 
REMARK    3  A    between atoms: C_18  and  C_19 
REMARK       I    between atoms: C_19  and  N_20 
REMARK    4  A    between atoms: N_20  and  C_21 
REMARK    5  A    between atoms: C_21  and  C_22 
ROOT
HETATM    1  C   UNL     1       7.951  25.200  52.449  1.00  0.00     0.072 C 
HETATM    2  C   UNL     1       6.866  26.157  52.119  1.00  0.00     0.055 C 
HETATM    3  N   UNL     1       5.897  25.815  51.266  1.00  0.00    -0.156 NA
HETATM    4  N   UNL     1       5.089  26.926  51.200  1.00  0.00    -0.045 N 
HETATM    5  C   UNL     1       5.476  27.890  52.131  1.00  0.00     0.152 C 
HETATM    6  C   UNL     1       6.686  27.459  52.630  1.00  0.00     0.079 C 
ENDROOT
BRANCH   5   7
HETATM    7  N   UNL     1       4.835  29.079  52.441  1.00  0.00    -0.303 N 
HETATM    8  C   UNL     1       4.511  29.535  53.707  1.00  0.00     0.315 C 
HETATM    9  O   UNL     1       3.800  30.526  53.873  1.00  0.00    -0.262 OA
HETATM   10  H   UNL     1       4.747  29.787  51.724  1.00  0.00     0.171 HD
BRANCH   8  11
HETATM   11  C   UNL     1       5.174  28.898  54.951  1.00  0.00     0.310 C 
HETATM   12  N   UNL     1       4.546  27.757  55.396  1.00  0.00    -0.349 N 
HETATM   13  H   UNL     1       3.692  27.484  54.919  1.00  0.00     0.163 HD
HETATM   14  O   UNL     1       6.139  29.418  55.492  1.00  0.00    -0.262 OA
BRANCH  12  15
HETATM   15  C   UNL     1       4.890  27.142  56.650  1.00  0.00     0.163 C 
BRANCH  15  16
HETATM   16  C   UNL     1       6.019  26.157  56.506  1.00  0.00    -0.019 A 
HETATM   17  C   UNL     1       7.298  26.387  57.035  1.00  0.00     0.042 A 
HETATM   18 CL   UNL     1       7.662  27.801  57.958  1.00  0.00    -0.084 Cl
HETATM   19  C   UNL     1       8.328  25.463  56.828  1.00  0.00     0.024 A 
HETATM   20  C   UNL     1       8.090  24.294  56.105  1.00  0.00     0.002 A 
HETATM   21  C   UNL     1       6.817  24.037  55.607  1.00  0.00     0.001 A 
HETATM   22  C   UNL     1       5.788  24.957  55.809  1.00  0.00     0.010 A 
ENDBRANCH  15  16
ENDBRANCH  12  15
ENDBRANCH   8  11
ENDBRANCH   5   7
BRANCH   4  23
HETATM   23  C   UNL     1       4.145  27.005  50.153  1.00  0.00     0.732 A 
HETATM   24  N   UNL     1       3.502  28.082  49.836  1.00  0.00    -0.067 NA
HETATM   25  C   UNL     1       2.651  27.999  48.758  1.00  0.00     0.065 A 
HETATM   26  C   UNL     1       2.477  26.890  48.015  1.00  0.00     0.036 A 
HETATM   27  C   UNL     1       1.929  29.283  48.417  1.00  0.00     0.060 C 
HETATM   28  C   UNL     1       1.583  26.804  46.814  1.00  0.00     0.046 C 
HETATM   29  C   UNL     1       3.225  25.670  48.406  1.00  0.00     0.268 A 
HETATM   30  C   UNL     1       0.662  28.014  46.651  1.00  0.00     0.005 C 
HETATM   31  C   UNL     1       1.378  29.314  46.991  1.00  0.00     0.006 C 
HETATM   32  O   UNL     1       3.127  24.616  47.788  1.00  0.00    -0.267 OA
HETATM   33  N   UNL     1       4.030  25.812  49.492  1.00  0.00    -0.152 N 
HETATM   34  H   UNL     1       4.596  25.029  49.799  1.00  0.00     0.188 HD
ENDBRANCH   4  23
TORSDOF 5
ENDMDL
MODEL 10
REMARK VINA RESULT:      -8.8      2.869      8.467
REMARK  5 active torsions:
REMARK  status: ('A' for Active; 'I' for Inactive)
REMARK    1  A    between atoms: N_4  and  C_5 
REMARK    2  A    between atoms: C_16  and  N_17 
REMARK       I    between atoms: N_17  and  C_18 
REMARK    3  A    between atoms: C_18  and  C_19 
REMARK       I    between atoms: C_19  and  N_20 
REMARK    4  A    between atoms: N_20  and  C_21 
REMARK    5  A    between atoms: C_21  and  C_22 
ROOT
HETATM    1  C   UNL     1       4.333  27.899  50.684  1.00  0.00     0.072 C 
HETATM    2  C   UNL     1       5.337  27.518  51.708  1.00  0.00     0.055 C 
HETATM    3  N   UNL     1       5.648  26.234  51.906  1.00  0.00    -0.156 NA
HETATM    4  N   UNL     1       6.587  26.259  52.910  1.00  0.00    -0.045 N 
HETATM    5  C   UNL     1       6.964  27.566  53.219  1.00  0.00     0.152 C 
HETATM    6  C   UNL     1       6.076  28.377  52.546  1.00  0.00     0.079 C 
ENDROOT
BRANCH   5   7
HETATM    7  N   UNL     1       7.963  27.981  54.085  1.00  0.00    -0.303 N 
HETATM    8  C   UNL     1       7.788  28.586  55.318  1.00  0.00     0.315 C 
HETATM    9  O   UNL     1       8.735  29.063  55.942  1.00  0.00    -0.262 OA
HETATM   10  H   UNL     1       8.911  27.666  53.923  1.00  0.00     0.171 HD
BRANCH   8  11
HETATM   11  C   UNL     1       6.409  28.529  56.016  1.00  0.00     0.310 C 
HETATM   12  N   UNL     1       5.737  29.730  56.024  1.00  0.00    -0.349 N 
HETATM   13  H   UNL     1       6.223  30.534  55.640  1.00  0.00     0.163 HD
HETATM   14  O   UNL     1       6.008  27.502  56.545  1.00  0.00    -0.262 OA
BRANCH  12  15
HETATM   15  C   UNL     1       4.540  29.924  56.800  1.00  0.00     0.163 C 
BRANCH  15  16
HETATM   16  C   UNL     1       4.419  31.335  57.308  1.00  0.00    -0.019 A 
HETATM   17  C   UNL     1       3.533  32.270  56.749  1.00  0.00     0.042 A 
HETATM   18 CL   UNL     1       2.456  31.849  55.465  1.00  0.00    -0.084 Cl
HETATM   19  C   UNL     1       3.496  33.585  57.223  1.00  0.00     0.024 A 
HETATM   20  C   UNL     1       4.330  33.979  58.270  1.00  0.00     0.002 A 
HETATM   21  C   UNL     1       5.186  33.054  58.858  1.00  0.00     0.001 A 
HETATM   22  C   UNL     1       5.228  31.741  58.385  1.00  0.00     0.010 A 
ENDBRANCH  15  16
ENDBRANCH  12  15
ENDBRANCH   8  11
ENDBRANCH   5   7
BRANCH   4  23
HETATM   23  C   UNL     1       6.896  25.047  53.567  1.00  0.00     0.732 A 
HETATM   24  N   UNL     1       7.210  23.951  52.957  1.00  0.00    -0.067 NA
HETATM   25  C   UNL     1       7.528  22.872  53.749  1.00  0.00     0.065 A 
HETATM   26  C   UNL     1       7.555  22.903  55.095  1.00  0.00     0.036 A 
HETATM   27  C   UNL     1       7.899  21.616  52.994  1.00  0.00     0.060 C 
HETATM   28  C   UNL     1       7.940  21.743  55.964  1.00  0.00     0.046 C 
HETATM   29  C   UNL     1       7.185  24.174  55.765  1.00  0.00     0.268 A 
HETATM   30  C   UNL     1       8.043  20.420  55.204  1.00  0.00     0.005 C 
HETATM   31  C   UNL     1       8.682  20.606  53.835  1.00  0.00     0.006 C 
HETATM   32  O   UNL     1       7.181  24.292  56.985  1.00  0.00    -0.267 OA
HETATM   33  N   UNL     1       6.860  25.193  54.927  1.00  0.00    -0.152 N 
HETATM   34  H   UNL     1       6.627  26.101  55.314  1.00  0.00     0.188 HD
ENDBRANCH   4  23
TORSDOF 5
ENDMDL
