MODEL 1
REMARK VINA RESULT:      -9.5      0.000      0.000
REMARK  7 active torsions:
REMARK  status: ('A' for Active; 'I' for Inactive)
REMARK    1  A    between atoms: C_2  and  C_3 
REMARK    2  A    between atoms: C_3  and  C_4 
REMARK    3  A    between atoms: C_4  and  O_5 
REMARK    4  A    between atoms: O_5  and  C_6 
REMARK    5  A    between atoms: C_9  and  C_10 
REMARK       I    between atoms: C_10  and  N_11 
REMARK    6  A    between atoms: N_11  and  C_12 
REMARK    7  A    between atoms: C_19  and  C_20 
REMARK       I    between atoms: C_20  and  N_21 
ROOT
HETATM    1  C   UNL     1       6.499  26.916  56.210  1.00  0.00     0.256 C 
HETATM    2  N   UNL     1       7.543  26.369  55.484  1.00  0.00    -0.323 N 
HETATM    3  O   UNL     1       5.388  26.423  56.363  1.00  0.00    -0.267 OA
HETATM    4  H   UNL     1       8.403  26.893  55.432  1.00  0.00     0.169 HD
ENDROOT
BRANCH   2   5
HETATM    5  C   UNL     1       7.573  25.110  54.840  1.00  0.00     0.036 A 
HETATM    6  C   UNL     1       7.914  23.912  55.481  1.00  0.00     0.046 A 
HETATM    7  C   UNL     1       7.961  22.711  54.739  1.00  0.00     0.030 A 
HETATM    8  C   UNL     1       7.640  22.746  53.387  1.00  0.00     0.063 A 
HETATM    9  C   UNL     1       8.292  21.347  55.003  1.00  0.00     0.156 A 
HETATM   10  N   UNL     1       7.765  21.457  52.950  1.00  0.00    -0.277 N 
HETATM   11  C   UNL     1       7.283  23.917  52.718  1.00  0.00     0.034 A 
HETATM   12  H   UNL     1       7.601  21.108  52.013  1.00  0.00     0.189 HD
HETATM   13  N   UNL     1       8.163  20.586  53.892  1.00  0.00    -0.168 NA
HETATM   14  C   UNL     1       7.268  25.098  53.471  1.00  0.00     0.032 A 
BRANCH   9  15
HETATM   15  C   UNL     1       8.740  20.762  56.275  1.00  0.00     0.270 C 
HETATM   16  N   UNL     1       9.771  19.871  56.145  1.00  0.00    -0.365 N 
HETATM   17  H   UNL     1      10.149  19.697  55.221  1.00  0.00     0.159 HD
HETATM   18  H   UNL     1      10.163  19.440  56.967  1.00  0.00     0.159 HD
HETATM   19  O   UNL     1       8.269  21.029  57.375  1.00  0.00    -0.266 OA
ENDBRANCH   9  15
ENDBRANCH   2   5
BRANCH   1  20
HETATM   20  C   UNL     1       6.786  28.222  56.885  1.00  0.00     0.032 A 
HETATM   21  C   UNL     1       7.906  28.438  57.699  1.00  0.00     0.020 A 
HETATM   22  C   UNL     1       8.091  29.673  58.339  1.00  0.00     0.038 A 
HETATM   23  C   UNL     1       7.169  30.703  58.160  1.00  0.00     0.068 A 
HETATM   24  C   UNL     1       6.080  30.506  57.311  1.00  0.00     0.038 A 
HETATM   25  C   UNL     1       5.886  29.275  56.679  1.00  0.00     0.020 A 
BRANCH  23  26
HETATM   26  O   UNL     1       7.236  31.943  58.732  1.00  0.00    -0.351 OA
BRANCH  26  27
HETATM   27  C   UNL     1       7.236  31.989  60.161  1.00  0.00     0.176 C 
BRANCH  27  28
HETATM   28  C   UNL     1       8.584  32.556  60.606  1.00  0.00     0.030 C 
BRANCH  28  29
HETATM   29  C   UNL     1       9.121  31.934  61.905  1.00  0.00    -0.021 C 
HETATM   30  C   UNL     1       9.287  30.417  61.798  1.00  0.00     0.009 C 
HETATM   31  C   UNL     1       8.184  32.269  63.068  1.00  0.00     0.009 C 
ENDBRANCH  28  29
ENDBRANCH  27  28
ENDBRANCH  26  27
ENDBRANCH  23  26
ENDBRANCH   1  20
TORSDOF 7
ENDMDL
MODEL 2
REMARK VINA RESULT:      -8.8      5.130     11.064
REMARK  7 active torsions:
REMARK  status: ('A' for Active; 'I' for Inactive)
REMARK    1  A    between atoms: C_2  and  C_3 
REMARK    2  A    between atoms: C_3  and  C_4 
REMARK    3  A    between atoms: C_4  and  O_5 
REMARK    4  A    between atoms: O_5  and  C_6 
REMARK    5  A    between atoms: C_9  and  C_10 
REMARK       I    between atoms: C_10  and  N_11 
REMARK    6  A    between atoms: N_11  and  C_12 
REMARK    7  A    between atoms: C_19  and  C_20 
REMARK       I    between atoms: C_20  and  N_21 
ROOT
HETATM    1  C   UNL     1       8.047  31.708  59.579  1.00  0.00     0.256 C 
HETATM    2  N   UNL     1       7.148  31.403  60.586  1.00  0.00    -0.323 N 
HETATM    3  O   UNL     1       8.791  32.681  59.545  1.00  0.00    -0.267 OA
HETATM    4  H   UNL     1       6.587  30.572  60.476  1.00  0.00     0.169 HD
ENDROOT
BRANCH   2   5
HETATM    5  C   UNL     1       6.957  32.095  61.804  1.00  0.00     0.036 A 
HETATM    6  C   UNL     1       5.747  32.689  62.185  1.00  0.00     0.046 A 
HETATM    7  C   UNL     1       5.670  33.400  63.404  1.00  0.00     0.030 A 
HETATM    8  C   UNL     1       6.800  33.470  64.210  1.00  0.00     0.063 A 
HETATM    9  C   UNL     1       4.675  34.152  64.098  1.00  0.00     0.156 A 
HETATM   10  N   UNL     1       6.422  34.201  65.301  1.00  0.00    -0.277 N 
HETATM   11  C   UNL     1       8.018  32.880  63.870  1.00  0.00     0.034 A 
HETATM   12  H   UNL     1       6.992  34.448  66.102  1.00  0.00     0.189 HD
HETATM   13  N   UNL     1       5.152  34.636  65.268  1.00  0.00    -0.168 NA
HETATM   14  C   UNL     1       8.074  32.202  62.646  1.00  0.00     0.032 A 
BRANCH   9  15
HETATM   15  C   UNL     1       3.297  34.429  63.669  1.00  0.00     0.270 C 
HETATM   16  N   UNL     1       3.035  35.757  63.462  1.00  0.00    -0.365 N 
HETATM   17  H   UNL     1       3.783  36.426  63.597  1.00  0.00     0.159 HD
HETATM   18  H   UNL     1       2.124  36.040  63.138  1.00  0.00     0.159 HD
HETATM   19  O   UNL     1       2.433  33.578  63.488  1.00  0.00    -0.266 OA
ENDBRANCH   9  15
ENDBRANCH   2   5
BRANCH   1  20
HETATM   20  C   UNL     1       8.118  30.730  58.447  1.00  0.00     0.032 A 
HETATM   21  C   UNL     1       9.315  30.150  58.003  1.00  0.00     0.020 A 
HETATM   22  C   UNL     1       9.315  29.275  56.906  1.00  0.00     0.038 A 
HETATM   23  C   UNL     1       8.123  28.962  56.255  1.00  0.00     0.068 A 
HETATM   24  C   UNL     1       6.925  29.499  56.727  1.00  0.00     0.038 A 
HETATM   25  C   UNL     1       6.920  30.379  57.812  1.00  0.00     0.020 A 
BRANCH  23  26
HETATM   26  O   UNL     1       7.997  28.132  55.177  1.00  0.00    -0.351 OA
BRANCH  26  27
HETATM   27  C   UNL     1       6.824  27.315  55.130  1.00  0.00     0.176 C 
BRANCH  27  28
HETATM   28  C   UNL     1       7.274  25.856  55.194  1.00  0.00     0.030 C 
BRANCH  28  29
HETATM   29  C   UNL     1       6.919  25.154  56.515  1.00  0.00    -0.021 C 
HETATM   30  C   UNL     1       5.507  25.496  56.994  1.00  0.00     0.009 C 
HETATM   31  C   UNL     1       7.935  25.533  57.594  1.00  0.00     0.009 C 
ENDBRANCH  28  29
ENDBRANCH  27  28
ENDBRANCH  26  27
ENDBRANCH  23  26
ENDBRANCH   1  20
TORSDOF 7
ENDMDL
MODEL 3
REMARK VINA RESULT:      -8.7      5.063     11.349
REMARK  7 active torsions:
REMARK  status: ('A' for Active; 'I' for Inactive)
REMARK    1  A    between atoms: C_2  and  C_3 
REMARK    2  A    between atoms: C_3  and  C_4 
REMARK    3  A    between atoms: C_4  and  O_5 
REMARK    4  A    between atoms: O_5  and  C_6 
REMARK    5  A    between atoms: C_9  and  C_10 
REMARK       I    between atoms: C_10  and  N_11 
REMARK    6  A    between atoms: N_11  and  C_12 
REMARK    7  A    between atoms: C_19  and  C_20 
REMARK       I    between atoms: C_20  and  N_21 
ROOT
HETATM    1  C   UNL     1       7.906  31.557  59.560  1.00  0.00     0.256 C 
HETATM    2  N   UNL     1       7.090  31.269  60.641  1.00  0.00    -0.323 N 
HETATM    3  O   UNL     1       8.590  32.563  59.419  1.00  0.00    -0.267 OA
HETATM    4  H   UNL     1       6.572  30.404  60.619  1.00  0.00     0.169 HD
ENDROOT
BRANCH   2   5
HETATM    5  C   UNL     1       6.936  32.026  61.826  1.00  0.00     0.036 A 
HETATM    6  C   UNL     1       5.746  32.665  62.196  1.00  0.00     0.046 A 
HETATM    7  C   UNL     1       5.706  33.439  63.378  1.00  0.00     0.030 A 
HETATM    8  C   UNL     1       6.852  33.527  64.159  1.00  0.00     0.063 A 
HETATM    9  C   UNL     1       4.739  34.246  64.050  1.00  0.00     0.156 A 
HETATM   10  N   UNL     1       6.510  34.321  65.218  1.00  0.00    -0.277 N 
HETATM   11  C   UNL     1       8.051  32.895  63.828  1.00  0.00     0.034 A 
HETATM   12  H   UNL     1       7.100  34.596  65.994  1.00  0.00     0.189 HD
HETATM   13  N   UNL     1       5.248  34.780  65.184  1.00  0.00    -0.168 NA
HETATM   14  C   UNL     1       8.071  32.153  62.640  1.00  0.00     0.032 A 
BRANCH   9  15
HETATM   15  C   UNL     1       3.359  34.530  63.631  1.00  0.00     0.270 C 
HETATM   16  N   UNL     1       3.108  35.856  63.404  1.00  0.00    -0.365 N 
HETATM   17  H   UNL     1       3.865  36.520  63.519  1.00  0.00     0.159 HD
HETATM   18  H   UNL     1       2.196  36.143  63.086  1.00  0.00     0.159 HD
HETATM   19  O   UNL     1       2.485  33.685  63.476  1.00  0.00    -0.266 OA
ENDBRANCH   9  15
ENDBRANCH   2   5
BRANCH   1  20
HETATM   20  C   UNL     1       7.962  30.513  58.488  1.00  0.00     0.032 A 
HETATM   21  C   UNL     1       9.144  29.865  58.104  1.00  0.00     0.020 A 
HETATM   22  C   UNL     1       9.134  28.929  57.059  1.00  0.00     0.038 A 
HETATM   23  C   UNL     1       7.943  28.623  56.400  1.00  0.00     0.068 A 
HETATM   24  C   UNL     1       6.757  29.230  56.814  1.00  0.00     0.038 A 
HETATM   25  C   UNL     1       6.764  30.170  57.847  1.00  0.00     0.020 A 
BRANCH  23  26
HETATM   26  O   UNL     1       7.807  27.738  55.368  1.00  0.00    -0.351 OA
BRANCH  26  27
HETATM   27  C   UNL     1       7.323  26.434  55.702  1.00  0.00     0.176 C 
BRANCH  27  28
HETATM   28  C   UNL     1       6.978  25.720  54.395  1.00  0.00     0.030 C 
BRANCH  28  29
HETATM   29  C   UNL     1       7.362  24.232  54.380  1.00  0.00    -0.021 C 
HETATM   30  C   UNL     1       8.407  23.891  55.444  1.00  0.00     0.009 C 
HETATM   31  C   UNL     1       7.891  23.845  52.997  1.00  0.00     0.009 C 
ENDBRANCH  28  29
ENDBRANCH  27  28
ENDBRANCH  26  27
ENDBRANCH  23  26
ENDBRANCH   1  20
TORSDOF 7
ENDMDL
MODEL 4
REMARK VINA RESULT:      -8.5      9.357     15.742
REMARK  7 active torsions:
REMARK  status: ('A' for Active; 'I' for Inactive)
REMARK    1  A    between atoms: C_2  and  C_3 
REMARK    2  A    between atoms: C_3  and  C_4 
REMARK    3  A    between atoms: C_4  and  O_5 
REMARK    4  A    between atoms: O_5  and  C_6 
REMARK    5  A    between atoms: C_9  and  C_10 
REMARK       I    between atoms: C_10  and  N_11 
REMARK    6  A    between atoms: N_11  and  C_12 
REMARK    7  A    between atoms: C_19  and  C_20 
REMARK       I    between atoms: C_20  and  N_21 
ROOT
HETATM    1  C   UNL     1       5.706  34.119  66.699  1.00  0.00     0.256 C 
HETATM    2  N   UNL     1       6.784  34.158  67.566  1.00  0.00    -0.323 N 
HETATM    3  O   UNL     1       4.538  34.352  66.986  1.00  0.00    -0.267 OA
HETATM    4  H   UNL     1       7.693  33.930  67.194  1.00  0.00     0.169 HD
ENDROOT
BRANCH   2   5
HETATM    5  C   UNL     1       6.777  34.545  68.927  1.00  0.00     0.036 A 
HETATM    6  C   UNL     1       7.311  35.750  69.400  1.00  0.00     0.046 A 
HETATM    7  C   UNL     1       7.298  36.024  70.786  1.00  0.00     0.030 A 
HETATM    8  C   UNL     1       6.729  35.094  71.647  1.00  0.00     0.063 A 
HETATM    9  C   UNL     1       7.763  37.074  71.634  1.00  0.00     0.156 A 
HETATM   10  N   UNL     1       6.855  35.630  72.898  1.00  0.00    -0.277 N 
HETATM   11  C   UNL     1       6.176  33.888  71.211  1.00  0.00     0.034 A 
HETATM   12  H   UNL     1       6.543  35.227  73.773  1.00  0.00     0.189 HD
HETATM   13  N   UNL     1       7.479  36.819  72.932  1.00  0.00    -0.168 NA
HETATM   14  C   UNL     1       6.223  33.630  69.835  1.00  0.00     0.032 A 
BRANCH   9  15
HETATM   15  C   UNL     1       8.478  38.296  71.240  1.00  0.00     0.270 C 
HETATM   16  N   UNL     1       9.720  38.421  71.803  1.00  0.00    -0.365 N 
HETATM   17  H   UNL     1      10.052  37.683  72.413  1.00  0.00     0.159 HD
HETATM   18  H   UNL     1      10.295  39.213  71.568  1.00  0.00     0.159 HD
HETATM   19  O   UNL     1       8.043  39.147  70.472  1.00  0.00    -0.266 OA
ENDBRANCH   9  15
ENDBRANCH   2   5
BRANCH   1  20
HETATM   20  C   UNL     1       6.025  33.783  65.274  1.00  0.00     0.032 A 
HETATM   21  C   UNL     1       5.082  33.841  64.239  1.00  0.00     0.020 A 
HETATM   22  C   UNL     1       5.437  33.469  62.934  1.00  0.00     0.038 A 
HETATM   23  C   UNL     1       6.736  33.050  62.650  1.00  0.00     0.068 A 
HETATM   24  C   UNL     1       7.689  33.040  63.669  1.00  0.00     0.038 A 
HETATM   25  C   UNL     1       7.338  33.400  64.973  1.00  0.00     0.020 A 
BRANCH  23  26
HETATM   26  O   UNL     1       7.199  32.657  61.426  1.00  0.00    -0.351 OA
BRANCH  26  27
HETATM   27  C   UNL     1       8.276  31.716  61.419  1.00  0.00     0.176 C 
BRANCH  27  28
HETATM   28  C   UNL     1       9.251  32.137  60.319  1.00  0.00     0.030 C 
BRANCH  28  29
HETATM   29  C   UNL     1       8.987  31.459  58.964  1.00  0.00    -0.021 C 
HETATM   30  C   UNL     1       8.303  30.099  59.118  1.00  0.00     0.009 C 
HETATM   31  C   UNL     1      10.304  31.290  58.203  1.00  0.00     0.009 C 
ENDBRANCH  28  29
ENDBRANCH  27  28
ENDBRANCH  26  27
ENDBRANCH  23  26
ENDBRANCH   1  20
TORSDOF 7
ENDMDL
MODEL 5
REMARK VINA RESULT:      -8.4      5.113      8.475
REMARK  7 active torsions:
REMARK  status: ('A' for Active; 'I' for Inactive)
REMARK    1  A    between atoms: C_2  and  C_3 
REMARK    2  A    between atoms: C_3  and  C_4 
REMARK    3  A    between atoms: C_4  and  O_5 
REMARK    4  A    between atoms: O_5  and  C_6 
REMARK    5  A    between atoms: C_9  and  C_10 
REMARK       I    between atoms: C_10  and  N_11 
REMARK    6  A    between atoms: N_11  and  C_12 
REMARK    7  A    between atoms: C_19  and  C_20 
REMARK       I    between atoms: C_20  and  N_21 
ROOT
HETATM    1  C   UNL     1       5.384  25.490  51.877  1.00  0.00     0.256 C 
HETATM    2  N   UNL     1       6.596  25.674  52.521  1.00  0.00    -0.323 N 
HETATM    3  O   UNL     1       4.507  24.698  52.201  1.00  0.00    -0.267 OA
HETATM    4  H   UNL     1       7.232  26.356  52.135  1.00  0.00     0.169 HD
ENDROOT
BRANCH   2   5
HETATM    5  C   UNL     1       7.038  25.055  53.713  1.00  0.00     0.036 A 
HETATM    6  C   UNL     1       7.391  23.703  53.807  1.00  0.00     0.046 A 
HETATM    7  C   UNL     1       7.775  23.165  55.056  1.00  0.00     0.030 A 
HETATM    8  C   UNL     1       7.816  24.006  56.162  1.00  0.00     0.063 A 
HETATM    9  C   UNL     1       8.150  21.881  55.555  1.00  0.00     0.156 A 
HETATM   10  N   UNL     1       8.223  23.218  57.202  1.00  0.00    -0.277 N 
HETATM   11  C   UNL     1       7.484  25.360  56.104  1.00  0.00     0.034 A 
HETATM   12  H   UNL     1       8.370  23.499  58.164  1.00  0.00     0.189 HD
HETATM   13  N   UNL     1       8.427  21.931  56.878  1.00  0.00    -0.168 NA
HETATM   14  C   UNL     1       7.084  25.862  54.859  1.00  0.00     0.032 A 
BRANCH   9  15
HETATM   15  C   UNL     1       8.235  20.618  54.809  1.00  0.00     0.270 C 
HETATM   16  N   UNL     1       9.011  19.665  55.413  1.00  0.00    -0.365 N 
HETATM   17  H   UNL     1       9.441  19.884  56.305  1.00  0.00     0.159 HD
HETATM   18  H   UNL     1       9.105  18.757  54.989  1.00  0.00     0.159 HD
HETATM   19  O   UNL     1       7.669  20.391  53.746  1.00  0.00    -0.266 OA
ENDBRANCH   9  15
ENDBRANCH   2   5
BRANCH   1  20
HETATM   20  C   UNL     1       5.133  26.370  50.691  1.00  0.00     0.032 A 
HETATM   21  C   UNL     1       4.638  25.894  49.470  1.00  0.00     0.020 A 
HETATM   22  C   UNL     1       4.469  26.766  48.385  1.00  0.00     0.038 A 
HETATM   23  C   UNL     1       4.779  28.120  48.514  1.00  0.00     0.068 A 
HETATM   24  C   UNL     1       5.225  28.604  49.744  1.00  0.00     0.038 A 
HETATM   25  C   UNL     1       5.405  27.738  50.825  1.00  0.00     0.020 A 
BRANCH  23  26
HETATM   26  O   UNL     1       4.664  29.063  47.531  1.00  0.00    -0.351 OA
BRANCH  26  27
HETATM   27  C   UNL     1       3.553  29.957  47.629  1.00  0.00     0.176 C 
BRANCH  27  28
HETATM   28  C   UNL     1       2.373  29.309  46.904  1.00  0.00     0.030 C 
BRANCH  28  29
HETATM   29  C   UNL     1       1.219  28.904  47.836  1.00  0.00    -0.021 C 
HETATM   30  C   UNL     1       1.493  29.274  49.295  1.00  0.00     0.009 C 
HETATM   31  C   UNL     1       0.965  27.399  47.725  1.00  0.00     0.009 C 
ENDBRANCH  28  29
ENDBRANCH  27  28
ENDBRANCH  26  27
ENDBRANCH  23  26
ENDBRANCH   1  20
TORSDOF 7
ENDMDL
MODEL 6
REMARK VINA RESULT:      -8.4      1.552      2.096
REMARK  7 active torsions:
REMARK  status: ('A' for Active; 'I' for Inactive)
REMARK    1  A    between atoms: C_2  and  C_3 
REMARK    2  A    between atoms: C_3  and  C_4 
REMARK    3  A    between atoms: C_4  and  O_5 
REMARK    4  A    between atoms: O_5  and  C_6 
REMARK    5  A    between atoms: C_9  and  C_10 
REMARK       I    between atoms: C_10  and  N_11 
REMARK    6  A    between atoms: N_11  and  C_12 
REMARK    7  A    between atoms: C_19  and  C_20 
REMARK       I    between atoms: C_20  and  N_21 
ROOT
HETATM    1  C   UNL     1       8.263  28.321  56.866  1.00  0.00     0.256 C 
HETATM    2  N   UNL     1       7.260  27.685  56.153  1.00  0.00    -0.323 N 
HETATM    3  O   UNL     1       9.443  27.994  56.903  1.00  0.00    -0.267 OA
HETATM    4  H   UNL     1       6.326  28.058  56.225  1.00  0.00     0.169 HD
ENDROOT
BRANCH   2   5
HETATM    5  C   UNL     1       7.399  26.590  55.270  1.00  0.00     0.036 A 
HETATM    6  C   UNL     1       7.508  25.257  55.687  1.00  0.00     0.046 A 
HETATM    7  C   UNL     1       7.691  24.236  54.728  1.00  0.00     0.030 A 
HETATM    8  C   UNL     1       7.733  24.582  53.383  1.00  0.00     0.063 A 
HETATM    9  C   UNL     1       7.880  22.821  54.750  1.00  0.00     0.156 A 
HETATM   10  N   UNL     1       7.908  23.405  52.710  1.00  0.00    -0.277 N 
HETATM   11  C   UNL     1       7.616  25.897  52.928  1.00  0.00     0.034 A 
HETATM   12  H   UNL     1       7.978  23.276  51.707  1.00  0.00     0.189 HD
HETATM   13  N   UNL     1       8.008  22.323  53.499  1.00  0.00    -0.168 NA
HETATM   14  C   UNL     1       7.459  26.892  53.901  1.00  0.00     0.032 A 
BRANCH   9  15
HETATM   15  C   UNL     1       7.955  21.944  55.927  1.00  0.00     0.270 C 
HETATM   16  N   UNL     1       7.498  20.673  55.705  1.00  0.00    -0.365 N 
HETATM   17  H   UNL     1       7.168  20.431  54.777  1.00  0.00     0.159 HD
HETATM   18  H   UNL     1       7.537  19.993  56.447  1.00  0.00     0.159 HD
HETATM   19  O   UNL     1       8.393  22.276  57.023  1.00  0.00    -0.266 OA
ENDBRANCH   9  15
ENDBRANCH   2   5
BRANCH   1  20
HETATM   20  C   UNL     1       7.846  29.536  57.638  1.00  0.00     0.032 A 
HETATM   21  C   UNL     1       8.745  30.339  58.354  1.00  0.00     0.020 A 
HETATM   22  C   UNL     1       8.281  31.437  59.093  1.00  0.00     0.038 A 
HETATM   23  C   UNL     1       6.922  31.750  59.112  1.00  0.00     0.068 A 
HETATM   24  C   UNL     1       6.033  30.981  58.359  1.00  0.00     0.038 A 
HETATM   25  C   UNL     1       6.489  29.880  57.630  1.00  0.00     0.020 A 
BRANCH  23  26
HETATM   26  O   UNL     1       6.350  32.785  59.796  1.00  0.00    -0.351 OA
BRANCH  26  27
HETATM   27  C   UNL     1       5.807  32.480  61.083  1.00  0.00     0.176 C 
BRANCH  27  28
HETATM   28  C   UNL     1       6.569  33.312  62.115  1.00  0.00     0.030 C 
BRANCH  28  29
HETATM   29  C   UNL     1       7.142  32.485  63.279  1.00  0.00    -0.021 C 
HETATM   30  C   UNL     1       7.613  33.364  64.439  1.00  0.00     0.009 C 
HETATM   31  C   UNL     1       8.303  31.622  62.781  1.00  0.00     0.009 C 
ENDBRANCH  28  29
ENDBRANCH  27  28
ENDBRANCH  26  27
ENDBRANCH  23  26
ENDBRANCH   1  20
TORSDOF 7
ENDMDL
MODEL 7
REMARK VINA RESULT:      -8.3      3.303      9.284
REMARK  7 active torsions:
REMARK  status: ('A' for Active; 'I' for Inactive)
REMARK    1  A    between atoms: C_2  and  C_3 
REMARK    2  A    between atoms: C_3  and  C_4 
REMARK    3  A    between atoms: C_4  and  O_5 
REMARK    4  A    between atoms: O_5  and  C_6 
REMARK    5  A    between atoms: C_9  and  C_10 
REMARK       I    between atoms: C_10  and  N_11 
REMARK    6  A    between atoms: N_11  and  C_12 
REMARK    7  A    between atoms: C_19  and  C_20 
REMARK       I    between atoms: C_20  and  N_21 
ROOT
HETATM    1  C   UNL     1       6.248  27.749  54.488  1.00  0.00     0.256 C 
HETATM    2  N   UNL     1       6.167  27.842  55.868  1.00  0.00    -0.323 N 
HETATM    3  O   UNL     1       6.086  28.666  53.691  1.00  0.00    -0.267 OA
HETATM    4  H   UNL     1       6.311  27.000  56.403  1.00  0.00     0.169 HD
ENDROOT
BRANCH   2   5
HETATM    5  C   UNL     1       5.961  29.010  56.638  1.00  0.00     0.036 A 
HETATM    6  C   UNL     1       6.972  29.663  57.354  1.00  0.00     0.046 A 
HETATM    7  C   UNL     1       6.656  30.798  58.133  1.00  0.00     0.030 A 
HETATM    8  C   UNL     1       5.344  31.255  58.149  1.00  0.00     0.063 A 
HETATM    9  C   UNL     1       7.364  31.681  59.004  1.00  0.00     0.156 A 
HETATM   10  N   UNL     1       5.350  32.350  58.968  1.00  0.00    -0.277 N 
HETATM   11  C   UNL     1       4.313  30.638  57.439  1.00  0.00     0.034 A 
HETATM   12  H   UNL     1       4.563  32.941  59.207  1.00  0.00     0.189 HD
HETATM   13  N   UNL     1       6.546  32.634  59.508  1.00  0.00    -0.168 NA
HETATM   14  C   UNL     1       4.648  29.501  56.694  1.00  0.00     0.032 A 
BRANCH   9  15
HETATM   15  C   UNL     1       8.785  31.628  59.376  1.00  0.00     0.270 C 
HETATM   16  N   UNL     1       9.099  30.606  60.230  1.00  0.00    -0.365 N 
HETATM   17  H   UNL     1       8.363  29.973  60.521  1.00  0.00     0.159 HD
HETATM   18  H   UNL     1      10.055  30.473  60.518  1.00  0.00     0.159 HD
HETATM   19  O   UNL     1       9.646  32.401  58.971  1.00  0.00    -0.266 OA
ENDBRANCH   9  15
ENDBRANCH   2   5
BRANCH   1  20
HETATM   20  C   UNL     1       6.592  26.397  53.943  1.00  0.00     0.032 A 
HETATM   21  C   UNL     1       5.833  25.247  54.200  1.00  0.00     0.020 A 
HETATM   22  C   UNL     1       6.238  24.003  53.696  1.00  0.00     0.038 A 
HETATM   23  C   UNL     1       7.393  23.899  52.921  1.00  0.00     0.068 A 
HETATM   24  C   UNL     1       8.122  25.051  52.623  1.00  0.00     0.038 A 
HETATM   25  C   UNL     1       7.728  26.291  53.132  1.00  0.00     0.020 A 
BRANCH  23  26
HETATM   26  O   UNL     1       7.892  22.747  52.381  1.00  0.00    -0.351 OA
BRANCH  26  27
HETATM   27  C   UNL     1       7.779  21.565  53.178  1.00  0.00     0.176 C 
BRANCH  27  28
HETATM   28  C   UNL     1       8.863  21.628  54.255  1.00  0.00     0.030 C 
BRANCH  28  29
HETATM   29  C   UNL     1       8.312  21.759  55.684  1.00  0.00    -0.021 C 
HETATM   30  C   UNL     1       8.656  23.108  56.318  1.00  0.00     0.009 C 
HETATM   31  C   UNL     1       8.857  20.626  56.557  1.00  0.00     0.009 C 
ENDBRANCH  28  29
ENDBRANCH  27  28
ENDBRANCH  26  27
ENDBRANCH  23  26
ENDBRANCH   1  20
TORSDOF 7
ENDMDL
MODEL 8
REMARK VINA RESULT:      -8.2      2.549      4.086
REMARK  7 active torsions:
REMARK  status: ('A' for Active; 'I' for Inactive)
REMARK    1  A    between atoms: C_2  and  C_3 
REMARK    2  A    between atoms: C_3  and  C_4 
REMARK    3  A    between atoms: C_4  and  O_5 
REMARK    4  A    between atoms: O_5  and  C_6 
REMARK    5  A    between atoms: C_9  and  C_10 
REMARK       I    between atoms: C_10  and  N_11 
REMARK    6  A    between atoms: N_11  and  C_12 
REMARK    7  A    between atoms: C_19  and  C_20 
REMARK       I    between atoms: C_20  and  N_21 
ROOT
HETATM    1  C   UNL     1       8.419  28.816  57.452  1.00  0.00     0.256 C 
HETATM    2  N   UNL     1       7.695  27.648  57.622  1.00  0.00    -0.323 N 
HETATM    3  O   UNL     1       9.275  29.018  56.599  1.00  0.00    -0.267 OA
HETATM    4  H   UNL     1       7.028  27.617  58.378  1.00  0.00     0.169 HD
ENDROOT
BRANCH   2   5
HETATM    5  C   UNL     1       7.733  26.489  56.813  1.00  0.00     0.036 A 
HETATM    6  C   UNL     1       7.041  26.358  55.603  1.00  0.00     0.046 A 
HETATM    7  C   UNL     1       7.105  25.140  54.889  1.00  0.00     0.030 A 
HETATM    8  C   UNL     1       7.880  24.105  55.399  1.00  0.00     0.063 A 
HETATM    9  C   UNL     1       6.534  24.615  53.691  1.00  0.00     0.156 A 
HETATM   10  N   UNL     1       7.755  23.081  54.503  1.00  0.00    -0.277 N 
HETATM   11  C   UNL     1       8.594  24.204  56.595  1.00  0.00     0.034 A 
HETATM   12  H   UNL     1       8.190  22.167  54.551  1.00  0.00     0.189 HD
HETATM   13  N   UNL     1       6.946  23.347  53.464  1.00  0.00    -0.168 NA
HETATM   14  C   UNL     1       8.493  25.413  57.295  1.00  0.00     0.032 A 
BRANCH   9  15
HETATM   15  C   UNL     1       5.600  25.283  52.774  1.00  0.00     0.270 C 
HETATM   16  N   UNL     1       4.288  25.202  53.157  1.00  0.00    -0.365 N 
HETATM   17  H   UNL     1       4.064  24.721  54.020  1.00  0.00     0.159 HD
HETATM   18  H   UNL     1       3.579  25.655  52.604  1.00  0.00     0.159 HD
HETATM   19  O   UNL     1       5.925  25.881  51.754  1.00  0.00    -0.266 OA
ENDBRANCH   9  15
ENDBRANCH   2   5
BRANCH   1  20
HETATM   20  C   UNL     1       8.091  29.933  58.395  1.00  0.00     0.032 A 
HETATM   21  C   UNL     1       6.903  30.674  58.327  1.00  0.00     0.020 A 
HETATM   22  C   UNL     1       6.679  31.738  59.213  1.00  0.00     0.038 A 
HETATM   23  C   UNL     1       7.630  32.060  60.182  1.00  0.00     0.068 A 
HETATM   24  C   UNL     1       8.789  31.290  60.283  1.00  0.00     0.038 A 
HETATM   25  C   UNL     1       9.022  30.237  59.396  1.00  0.00     0.020 A 
BRANCH  23  26
HETATM   26  O   UNL     1       7.529  33.073  61.093  1.00  0.00    -0.351 OA
BRANCH  26  27
HETATM   27  C   UNL     1       7.513  32.694  62.472  1.00  0.00     0.176 C 
BRANCH  27  28
HETATM   28  C   UNL     1       6.726  33.760  63.235  1.00  0.00     0.030 C 
BRANCH  28  29
HETATM   29  C   UNL     1       6.186  33.280  64.592  1.00  0.00    -0.021 C 
HETATM   30  C   UNL     1       4.724  33.677  64.809  1.00  0.00     0.009 C 
HETATM   31  C   UNL     1       7.047  33.844  65.724  1.00  0.00     0.009 C 
ENDBRANCH  28  29
ENDBRANCH  27  28
ENDBRANCH  26  27
ENDBRANCH  23  26
ENDBRANCH   1  20
TORSDOF 7
ENDMDL
MODEL 9
REMARK VINA RESULT:      -7.9      3.350      9.787
REMARK  7 active torsions:
REMARK  status: ('A' for Active; 'I' for Inactive)
REMARK    1  A    between atoms: C_2  and  C_3 
REMARK    2  A    between atoms: C_3  and  C_4 
REMARK    3  A    between atoms: C_4  and  O_5 
REMARK    4  A    between atoms: O_5  and  C_6 
REMARK    5  A    between atoms: C_9  and  C_10 
REMARK       I    between atoms: C_10  and  N_11 
REMARK    6  A    between atoms: N_11  and  C_12 
REMARK    7  A    between atoms: C_19  and  C_20 
REMARK       I    between atoms: C_20  and  N_21 
ROOT
HETATM    1  C   UNL     1       7.646  27.722  55.097  1.00  0.00     0.256 C 
HETATM    2  N   UNL     1       7.222  27.771  56.414  1.00  0.00    -0.323 N 
HETATM    3  O   UNL     1       8.053  28.668  54.433  1.00  0.00    -0.267 OA
HETATM    4  H   UNL     1       6.900  26.913  56.834  1.00  0.00     0.169 HD
ENDROOT
BRANCH   2   5
HETATM    5  C   UNL     1       7.242  28.889  57.280  1.00  0.00     0.036 A 
HETATM    6  C   UNL     1       6.114  29.661  57.586  1.00  0.00     0.046 A 
HETATM    7  C   UNL     1       6.246  30.789  58.427  1.00  0.00     0.030 A 
HETATM    8  C   UNL     1       7.497  31.089  58.952  1.00  0.00     0.063 A 
HETATM    9  C   UNL     1       5.384  31.813  58.922  1.00  0.00     0.156 A 
HETATM   10  N   UNL     1       7.312  32.207  59.718  1.00  0.00    -0.277 N 
HETATM   11  C   UNL     1       8.640  30.336  58.680  1.00  0.00     0.034 A 
HETATM   12  H   UNL     1       8.010  32.704  60.258  1.00  0.00     0.189 HD
HETATM   13  N   UNL     1       6.054  32.677  59.719  1.00  0.00    -0.168 NA
HETATM   14  C   UNL     1       8.487  29.238  57.825  1.00  0.00     0.032 A 
BRANCH   9  15
HETATM   15  C   UNL     1       3.952  31.994  58.643  1.00  0.00     0.270 C 
HETATM   16  N   UNL     1       3.258  32.595  59.659  1.00  0.00    -0.365 N 
HETATM   17  H   UNL     1       3.763  32.877  60.491  1.00  0.00     0.159 HD
HETATM   18  H   UNL     1       2.276  32.786  59.545  1.00  0.00     0.159 HD
HETATM   19  O   UNL     1       3.392  31.662  57.604  1.00  0.00    -0.266 OA
ENDBRANCH   9  15
ENDBRANCH   2   5
BRANCH   1  20
HETATM   20  C   UNL     1       7.621  26.370  54.452  1.00  0.00     0.032 A 
HETATM   21  C   UNL     1       7.650  26.178  53.064  1.00  0.00     0.020 A 
HETATM   22  C   UNL     1       7.578  24.885  52.525  1.00  0.00     0.038 A 
HETATM   23  C   UNL     1       7.489  23.776  53.365  1.00  0.00     0.068 A 
HETATM   24  C   UNL     1       7.510  23.963  54.748  1.00  0.00     0.038 A 
HETATM   25  C   UNL     1       7.572  25.249  55.290  1.00  0.00     0.020 A 
BRANCH  23  26
HETATM   26  O   UNL     1       7.407  22.473  52.962  1.00  0.00    -0.351 OA
BRANCH  26  27
HETATM   27  C   UNL     1       8.569  21.665  53.163  1.00  0.00     0.176 C 
BRANCH  27  28
HETATM   28  C   UNL     1       8.109  20.330  53.750  1.00  0.00     0.030 C 
BRANCH  28  29
HETATM   29  C   UNL     1       8.464  20.150  55.235  1.00  0.00    -0.021 C 
HETATM   30  C   UNL     1       7.294  20.495  56.158  1.00  0.00     0.009 C 
HETATM   31  C   UNL     1       9.673  21.019  55.589  1.00  0.00     0.009 C 
ENDBRANCH  28  29
ENDBRANCH  27  28
ENDBRANCH  26  27
ENDBRANCH  23  26
ENDBRANCH   1  20
TORSDOF 7
ENDMDL
MODEL 10
REMARK VINA RESULT:      -7.8      5.750      9.066
REMARK  7 active torsions:
REMARK  status: ('A' for Active; 'I' for Inactive)
REMARK    1  A    between atoms: C_2  and  C_3 
REMARK    2  A    between atoms: C_3  and  C_4 
REMARK    3  A    between atoms: C_4  and  O_5 
REMARK    4  A    between atoms: O_5  and  C_6 
REMARK    5  A    between atoms: C_9  and  C_10 
REMARK       I    between atoms: C_10  and  N_11 
REMARK    6  A    between atoms: N_11  and  C_12 
REMARK    7  A    between atoms: C_19  and  C_20 
REMARK       I    between atoms: C_20  and  N_21 
ROOT
HETATM    1  C   UNL     1       5.474  25.853  51.220  1.00  0.00     0.256 C 
HETATM    2  N   UNL     1       6.765  25.759  51.711  1.00  0.00    -0.323 N 
HETATM    3  O   UNL     1       4.520  25.161  51.557  1.00  0.00    -0.267 OA
HETATM    4  H   UNL     1       7.456  26.388  51.332  1.00  0.00     0.169 HD
ENDROOT
BRANCH   2   5
HETATM    5  C   UNL     1       7.231  24.913  52.743  1.00  0.00     0.036 A 
HETATM    6  C   UNL     1       7.134  25.215  54.107  1.00  0.00     0.046 A 
HETATM    7  C   UNL     1       7.673  24.324  55.061  1.00  0.00     0.030 A 
HETATM    8  C   UNL     1       8.269  23.149  54.619  1.00  0.00     0.063 A 
HETATM    9  C   UNL     1       7.809  24.292  56.482  1.00  0.00     0.156 A 
HETATM   10  N   UNL     1       8.681  22.502  55.750  1.00  0.00    -0.277 N 
HETATM   11  C   UNL     1       8.373  22.808  53.269  1.00  0.00     0.034 A 
HETATM   12  H   UNL     1       9.151  21.606  55.807  1.00  0.00     0.189 HD
HETATM   13  N   UNL     1       8.428  23.162  56.892  1.00  0.00    -0.168 NA
HETATM   14  C   UNL     1       7.852  23.720  52.343  1.00  0.00     0.032 A 
BRANCH   9  15
HETATM   15  C   UNL     1       7.379  25.314  57.448  1.00  0.00     0.270 C 
HETATM   16  N   UNL     1       6.021  25.427  57.573  1.00  0.00    -0.365 N 
HETATM   17  H   UNL     1       5.430  24.811  57.025  1.00  0.00     0.159 HD
HETATM   18  H   UNL     1       5.634  26.082  58.233  1.00  0.00     0.159 HD
HETATM   19  O   UNL     1       8.136  26.014  58.112  1.00  0.00    -0.266 OA
ENDBRANCH   9  15
ENDBRANCH   2   5
BRANCH   1  20
HETATM   20  C   UNL     1       5.237  26.925  50.201  1.00  0.00     0.032 A 
HETATM   21  C   UNL     1       5.522  28.279  50.427  1.00  0.00     0.020 A 
HETATM   22  C   UNL     1       5.234  29.238  49.445  1.00  0.00     0.038 A 
HETATM   23  C   UNL     1       4.673  28.853  48.228  1.00  0.00     0.068 A 
HETATM   24  C   UNL     1       4.435  27.500  47.983  1.00  0.00     0.038 A 
HETATM   25  C   UNL     1       4.711  26.542  48.961  1.00  0.00     0.020 A 
BRANCH  23  26
HETATM   26  O   UNL     1       4.342  29.691  47.201  1.00  0.00    -0.351 OA
BRANCH  26  27
HETATM   27  C   UNL     1       3.160  30.478  47.370  1.00  0.00     0.176 C 
BRANCH  27  28
HETATM   28  C   UNL     1       2.112  29.956  46.387  1.00  0.00     0.030 C 
BRANCH  28  29
HETATM   29  C   UNL     1       0.938  29.225  47.060  1.00  0.00    -0.021 C 
HETATM   30  C   UNL     1       0.827  27.767  46.610  1.00  0.00     0.009 C 
HETATM   31  C   UNL     1      -0.371  29.958  46.759  1.00  0.00     0.009 C 
ENDBRANCH  28  29
ENDBRANCH  27  28
ENDBRANCH  26  27
ENDBRANCH  23  26
ENDBRANCH   1  20
TORSDOF 7
ENDMDL
