MODEL 1
REMARK VINA RESULT:      -9.6      0.000      0.000
REMARK  11 active torsions:
REMARK  status: ('A' for Active; 'I' for Inactive)
REMARK    1  A    between atoms: C_2  and  O_3 
REMARK    2  A    between atoms: O_3  and  C_4 
REMARK    3  A    between atoms: C_5  and  O_6 
REMARK    4  A    between atoms: C_9  and  C_10 
REMARK    5  A    between atoms: N_11  and  C_12 
REMARK    6  A    between atoms: C_12  and  C_13 
REMARK    7  A    between atoms: C_13  and  C_14 
REMARK    8  A    between atoms: C_14  and  N_15 
REMARK    9  A    between atoms: C_24  and  O_25 
REMARK   10  A    between atoms: C_26  and  C_27 
REMARK   11  A    between atoms: C_27  and  C_28 
ROOT
HETATM    1  C   UNL     1       7.214  27.487  55.345  1.00  0.00     0.161 C 
HETATM    2  N   UNL     1       5.970  28.187  55.037  1.00  0.00    -0.333 N 
HETATM    3  C   UNL     1       4.930  27.749  55.822  1.00  0.00     0.278 C 
HETATM    4  O   UNL     1       3.752  28.061  55.717  1.00  0.00    -0.265 OA
HETATM    5  C   UNL     1       5.425  26.617  56.628  1.00  0.00     0.146 C 
HETATM    6  C   UNL     1       6.685  26.390  56.232  1.00  0.00     0.059 C 
ENDROOT
BRANCH   1   7
HETATM    7  C   UNL     1       8.222  28.424  55.997  1.00  0.00    -0.028 A 
HETATM    8  C   UNL     1       9.320  28.950  55.284  1.00  0.00     0.012 A 
HETATM    9  C   UNL     1      10.237  29.800  55.899  1.00  0.00     0.040 A 
HETATM   10  C   UNL     1      10.071  30.124  57.235  1.00  0.00     0.099 A 
HETATM   11  C   UNL     1       8.996  29.629  57.976  1.00  0.00     0.102 A 
HETATM   12  C   UNL     1       8.081  28.771  57.359  1.00  0.00     0.049 A 
BRANCH  10  13
HETATM   13  O   UNL     1      10.986  30.960  57.813  1.00  0.00    -0.358 OA
HETATM   14  H   UNL     1      10.804  30.921  58.772  1.00  0.00     0.218 HD
ENDBRANCH  10  13
BRANCH  11  15
HETATM   15  O   UNL     1       8.969  30.032  59.285  1.00  0.00    -0.349 OA
BRANCH  15  16
HETATM   16  C   UNL     1       7.959  30.971  59.647  1.00  0.00     0.171 C 
HETATM   17  C   UNL     1       8.656  32.248  60.082  1.00  0.00     0.034 C 
ENDBRANCH  15  16
ENDBRANCH  11  15
ENDBRANCH   1   7
BRANCH   2  18
HETATM   18  C   UNL     1       5.776  28.987  53.842  1.00  0.00     0.129 C 
BRANCH  18  19
HETATM   19  C   UNL     1       5.976  28.198  52.541  1.00  0.00     0.048 C 
BRANCH  19  20
HETATM   20  C   UNL     1       5.069  26.985  52.309  1.00  0.00     0.236 C 
BRANCH  20  21
HETATM   21  N   UNL     1       4.236  27.066  51.058  1.00  0.00    -0.067 N 
HETATM   22  H   UNL     1       3.355  26.536  51.217  1.00  0.00     0.280 HD
HETATM   23  C   UNL     1       3.897  28.488  50.633  1.00  0.00     0.261 C 
HETATM   24  C   UNL     1       3.092  28.477  49.329  1.00  0.00     0.195 C 
HETATM   25  O   UNL     1       3.793  27.783  48.292  1.00  0.00    -0.388 OA
HETATM   26  C   UNL     1       4.022  26.415  48.647  1.00  0.00     0.195 C 
HETATM   27  C   UNL     1       4.904  26.324  49.894  1.00  0.00     0.261 C 
ENDBRANCH  20  21
ENDBRANCH  19  20
ENDBRANCH  18  19
ENDBRANCH   2  18
BRANCH   6  28
HETATM   28  C   UNL     1       7.563  25.236  56.517  1.00  0.00     0.193 C 
HETATM   29  O   UNL     1       8.292  25.254  57.503  1.00  0.00    -0.287 OA
BRANCH  28  30
HETATM   30  C   UNL     1       7.654  24.103  55.570  1.00  0.00     0.015 A 
HETATM   31  C   UNL     1       7.602  24.300  54.184  1.00  0.00     0.016 A 
HETATM   32  C   UNL     1       7.710  23.209  53.318  1.00  0.00     0.007 A 
HETATM   33  C   UNL     1       7.890  21.918  53.827  1.00  0.00    -0.062 A 
HETATM   34  C   UNL     1       8.026  20.746  52.899  1.00  0.00     0.048 C 
HETATM   35  C   UNL     1       8.003  21.737  55.211  1.00  0.00     0.007 A 
HETATM   36  C   UNL     1       7.890  22.825  56.081  1.00  0.00     0.016 A 
ENDBRANCH  28  30
ENDBRANCH   6  28
BRANCH   5  37
HETATM   37  O   UNL     1       4.628  25.886  57.452  1.00  0.00    -0.355 OA
HETATM   38  H   UNL     1       5.159  25.136  57.784  1.00  0.00     0.218 HD
ENDBRANCH   5  37
TORSDOF 11
ENDMDL
MODEL 2
REMARK VINA RESULT:      -9.5      1.818      2.854
REMARK  11 active torsions:
REMARK  status: ('A' for Active; 'I' for Inactive)
REMARK    1  A    between atoms: C_2  and  O_3 
REMARK    2  A    between atoms: O_3  and  C_4 
REMARK    3  A    between atoms: C_5  and  O_6 
REMARK    4  A    between atoms: C_9  and  C_10 
REMARK    5  A    between atoms: N_11  and  C_12 
REMARK    6  A    between atoms: C_12  and  C_13 
REMARK    7  A    between atoms: C_13  and  C_14 
REMARK    8  A    between atoms: C_14  and  N_15 
REMARK    9  A    between atoms: C_24  and  O_25 
REMARK   10  A    between atoms: C_26  and  C_27 
REMARK   11  A    between atoms: C_27  and  C_28 
ROOT
HETATM    1  C   UNL     1       6.466  27.778  53.532  1.00  0.00     0.161 C 
HETATM    2  N   UNL     1       5.143  28.331  53.252  1.00  0.00    -0.333 N 
HETATM    3  C   UNL     1       4.209  27.342  53.050  1.00  0.00     0.278 C 
HETATM    4  O   UNL     1       3.052  27.493  52.685  1.00  0.00    -0.265 OA
HETATM    5  C   UNL     1       4.918  26.048  53.068  1.00  0.00     0.146 C 
HETATM    6  C   UNL     1       6.221  26.330  53.194  1.00  0.00     0.059 C 
ENDROOT
BRANCH   1   7
HETATM    7  C   UNL     1       6.879  28.051  54.972  1.00  0.00    -0.028 A 
HETATM    8  C   UNL     1       5.939  28.077  56.024  1.00  0.00     0.012 A 
HETATM    9  C   UNL     1       6.333  28.337  57.336  1.00  0.00     0.040 A 
HETATM   10  C   UNL     1       7.669  28.585  57.606  1.00  0.00     0.099 A 
HETATM   11  C   UNL     1       8.631  28.565  56.594  1.00  0.00     0.102 A 
HETATM   12  C   UNL     1       8.233  28.310  55.278  1.00  0.00     0.049 A 
BRANCH  10  13
HETATM   13  O   UNL     1       8.028  28.837  58.900  1.00  0.00    -0.358 OA
HETATM   14  H   UNL     1       8.052  27.965  59.338  1.00  0.00     0.218 HD
ENDBRANCH  10  13
BRANCH  11  15
HETATM   15  O   UNL     1       9.908  28.834  57.013  1.00  0.00    -0.349 OA
BRANCH  15  16
HETATM   16  C   UNL     1      10.489  30.054  56.559  1.00  0.00     0.171 C 
HETATM   17  C   UNL     1      10.561  30.997  57.748  1.00  0.00     0.034 C 
ENDBRANCH  15  16
ENDBRANCH  11  15
ENDBRANCH   1   7
BRANCH   2  18
HETATM   18  C   UNL     1       4.914  29.719  52.898  1.00  0.00     0.129 C 
BRANCH  18  19
HETATM   19  C   UNL     1       5.219  30.031  51.426  1.00  0.00     0.048 C 
BRANCH  19  20
HETATM   20  C   UNL     1       4.032  30.071  50.457  1.00  0.00     0.236 C 
BRANCH  20  21
HETATM   21  N   UNL     1       3.581  28.718  49.976  1.00  0.00    -0.067 N 
HETATM   22  H   UNL     1       3.174  28.203  50.784  1.00  0.00     0.280 HD
HETATM   23  C   UNL     1       2.560  28.771  48.848  1.00  0.00     0.261 C 
HETATM   24  C   UNL     1       2.197  27.355  48.390  1.00  0.00     0.195 C 
HETATM   25  O   UNL     1       3.362  26.622  47.997  1.00  0.00    -0.388 OA
HETATM   26  C   UNL     1       4.278  26.480  49.087  1.00  0.00     0.195 C 
HETATM   27  C   UNL     1       4.774  27.851  49.554  1.00  0.00     0.261 C 
ENDBRANCH  20  21
ENDBRANCH  19  20
ENDBRANCH  18  19
ENDBRANCH   2  18
BRANCH   6  28
HETATM   28  C   UNL     1       7.392  25.445  53.019  1.00  0.00     0.193 C 
HETATM   29  O   UNL     1       8.216  25.691  52.144  1.00  0.00    -0.287 OA
BRANCH  28  30
HETATM   30  C   UNL     1       7.530  24.206  53.816  1.00  0.00     0.015 A 
HETATM   31  C   UNL     1       7.399  24.213  55.211  1.00  0.00     0.016 A 
HETATM   32  C   UNL     1       7.516  23.022  55.930  1.00  0.00     0.007 A 
HETATM   33  C   UNL     1       7.744  21.814  55.263  1.00  0.00    -0.062 A 
HETATM   34  C   UNL     1       7.851  20.528  56.031  1.00  0.00     0.048 C 
HETATM   35  C   UNL     1       7.811  21.805  53.864  1.00  0.00     0.007 A 
HETATM   36  C   UNL     1       7.700  22.995  53.141  1.00  0.00     0.016 A 
ENDBRANCH  28  30
ENDBRANCH   6  28
BRANCH   5  37
HETATM   37  O   UNL     1       4.306  24.863  52.808  1.00  0.00    -0.355 OA
HETATM   38  H   UNL     1       4.785  24.441  52.068  1.00  0.00     0.218 HD
ENDBRANCH   5  37
TORSDOF 11
ENDMDL
MODEL 3
REMARK VINA RESULT:      -9.0      2.693      4.833
REMARK  11 active torsions:
REMARK  status: ('A' for Active; 'I' for Inactive)
REMARK    1  A    between atoms: C_2  and  O_3 
REMARK    2  A    between atoms: O_3  and  C_4 
REMARK    3  A    between atoms: C_5  and  O_6 
REMARK    4  A    between atoms: C_9  and  C_10 
REMARK    5  A    between atoms: N_11  and  C_12 
REMARK    6  A    between atoms: C_12  and  C_13 
REMARK    7  A    between atoms: C_13  and  C_14 
REMARK    8  A    between atoms: C_14  and  N_15 
REMARK    9  A    between atoms: C_24  and  O_25 
REMARK   10  A    between atoms: C_26  and  C_27 
REMARK   11  A    between atoms: C_27  and  C_28 
ROOT
HETATM    1  C   UNL     1       6.390  27.983  53.641  1.00  0.00     0.161 C 
HETATM    2  N   UNL     1       5.068  28.547  53.386  1.00  0.00    -0.333 N 
HETATM    3  C   UNL     1       4.129  27.568  53.162  1.00  0.00     0.278 C 
HETATM    4  O   UNL     1       2.970  27.732  52.808  1.00  0.00    -0.265 OA
HETATM    5  C   UNL     1       4.834  26.272  53.138  1.00  0.00     0.146 C 
HETATM    6  C   UNL     1       6.139  26.546  53.264  1.00  0.00     0.059 C 
ENDROOT
BRANCH   1   7
HETATM    7  C   UNL     1       6.813  28.214  55.086  1.00  0.00    -0.028 A 
HETATM    8  C   UNL     1       5.877  28.230  56.142  1.00  0.00     0.012 A 
HETATM    9  C   UNL     1       6.281  28.451  57.458  1.00  0.00     0.040 A 
HETATM   10  C   UNL     1       7.622  28.669  57.728  1.00  0.00     0.099 A 
HETATM   11  C   UNL     1       8.580  28.658  56.713  1.00  0.00     0.102 A 
HETATM   12  C   UNL     1       8.173  28.442  55.393  1.00  0.00     0.049 A 
BRANCH  10  13
HETATM   13  O   UNL     1       7.989  28.884  59.027  1.00  0.00    -0.358 OA
HETATM   14  H   UNL     1       8.202  28.002  59.386  1.00  0.00     0.218 HD
ENDBRANCH  10  13
BRANCH  11  15
HETATM   15  O   UNL     1       9.862  28.894  57.133  1.00  0.00    -0.349 OA
BRANCH  15  16
HETATM   16  C   UNL     1      10.492  30.075  56.641  1.00  0.00     0.171 C 
HETATM   17  C   UNL     1      10.552  31.072  57.785  1.00  0.00     0.034 C 
ENDBRANCH  15  16
ENDBRANCH  11  15
ENDBRANCH   1   7
BRANCH   2  18
HETATM   18  C   UNL     1       4.841  29.946  53.073  1.00  0.00     0.129 C 
BRANCH  18  19
HETATM   19  C   UNL     1       4.049  30.692  54.156  1.00  0.00     0.048 C 
BRANCH  19  20
HETATM   20  C   UNL     1       4.135  32.222  54.160  1.00  0.00     0.236 C 
BRANCH  20  21
HETATM   21  N   UNL     1       4.736  32.803  55.412  1.00  0.00    -0.067 N 
HETATM   22  H   UNL     1       5.724  33.060  55.211  1.00  0.00     0.280 HD
HETATM   23  C   UNL     1       3.997  34.024  55.942  1.00  0.00     0.261 C 
HETATM   24  C   UNL     1       4.646  34.518  57.240  1.00  0.00     0.195 C 
HETATM   25  O   UNL     1       4.696  33.478  58.223  1.00  0.00    -0.388 OA
HETATM   26  C   UNL     1       5.478  32.370  57.767  1.00  0.00     0.195 C 
HETATM   27  C   UNL     1       4.849  31.746  56.517  1.00  0.00     0.261 C 
ENDBRANCH  20  21
ENDBRANCH  19  20
ENDBRANCH  18  19
ENDBRANCH   2  18
BRANCH   6  28
HETATM   28  C   UNL     1       7.306  25.663  53.057  1.00  0.00     0.193 C 
HETATM   29  O   UNL     1       8.160  25.967  52.230  1.00  0.00    -0.287 OA
BRANCH  28  30
HETATM   30  C   UNL     1       7.405  24.363  53.756  1.00  0.00     0.015 A 
HETATM   31  C   UNL     1       7.630  23.170  53.058  1.00  0.00     0.016 A 
HETATM   32  C   UNL     1       7.736  21.963  53.752  1.00  0.00     0.007 A 
HETATM   33  C   UNL     1       7.639  21.940  55.147  1.00  0.00    -0.062 A 
HETATM   34  C   UNL     1       7.774  20.647  55.898  1.00  0.00     0.048 C 
HETATM   35  C   UNL     1       7.478  23.144  55.843  1.00  0.00     0.007 A 
HETATM   36  C   UNL     1       7.365  24.353  55.152  1.00  0.00     0.016 A 
ENDBRANCH  28  30
ENDBRANCH   6  28
BRANCH   5  37
HETATM   37  O   UNL     1       4.216  25.096  52.848  1.00  0.00    -0.355 OA
HETATM   38  H   UNL     1       4.910  24.410  52.774  1.00  0.00     0.218 HD
ENDBRANCH   5  37
TORSDOF 11
ENDMDL
MODEL 4
REMARK VINA RESULT:      -9.0      2.038      6.323
REMARK  11 active torsions:
REMARK  status: ('A' for Active; 'I' for Inactive)
REMARK    1  A    between atoms: C_2  and  O_3 
REMARK    2  A    between atoms: O_3  and  C_4 
REMARK    3  A    between atoms: C_5  and  O_6 
REMARK    4  A    between atoms: C_9  and  C_10 
REMARK    5  A    between atoms: N_11  and  C_12 
REMARK    6  A    between atoms: C_12  and  C_13 
REMARK    7  A    between atoms: C_13  and  C_14 
REMARK    8  A    between atoms: C_14  and  N_15 
REMARK    9  A    between atoms: C_24  and  O_25 
REMARK   10  A    between atoms: C_26  and  C_27 
REMARK   11  A    between atoms: C_27  and  C_28 
ROOT
HETATM    1  C   UNL     1       6.544  26.095  54.717  1.00  0.00     0.161 C 
HETATM    2  N   UNL     1       5.968  26.763  53.554  1.00  0.00    -0.333 N 
HETATM    3  C   UNL     1       6.697  27.870  53.187  1.00  0.00     0.278 C 
HETATM    4  O   UNL     1       6.400  28.691  52.331  1.00  0.00    -0.265 OA
HETATM    5  C   UNL     1       7.755  28.061  54.197  1.00  0.00     0.146 C 
HETATM    6  C   UNL     1       7.556  27.129  55.138  1.00  0.00     0.059 C 
ENDROOT
BRANCH   1   7
HETATM    7  C   UNL     1       7.118  24.736  54.339  1.00  0.00    -0.028 A 
HETATM    8  C   UNL     1       7.769  24.520  53.106  1.00  0.00     0.012 A 
HETATM    9  C   UNL     1       8.281  23.267  52.773  1.00  0.00     0.040 A 
HETATM   10  C   UNL     1       8.137  22.216  53.663  1.00  0.00     0.099 A 
HETATM   11  C   UNL     1       7.502  22.389  54.895  1.00  0.00     0.102 A 
HETATM   12  C   UNL     1       6.983  23.645  55.226  1.00  0.00     0.049 A 
BRANCH  10  13
HETATM   13  O   UNL     1       8.648  20.999  53.310  1.00  0.00    -0.358 OA
HETATM   14  H   UNL     1       9.585  21.022  53.583  1.00  0.00     0.218 HD
ENDBRANCH  10  13
BRANCH  11  15
HETATM   15  O   UNL     1       7.431  21.258  55.666  1.00  0.00    -0.349 OA
BRANCH  15  16
HETATM   16  C   UNL     1       8.316  21.183  56.780  1.00  0.00     0.171 C 
HETATM   17  C   UNL     1       9.424  20.209  56.421  1.00  0.00     0.034 C 
ENDBRANCH  15  16
ENDBRANCH  11  15
ENDBRANCH   1   7
BRANCH   2  18
HETATM   18  C   UNL     1       4.628  26.500  53.061  1.00  0.00     0.129 C 
BRANCH  18  19
HETATM   19  C   UNL     1       4.595  25.524  51.876  1.00  0.00     0.048 C 
BRANCH  19  20
HETATM   20  C   UNL     1       5.018  26.067  50.507  1.00  0.00     0.236 C 
BRANCH  20  21
HETATM   21  N   UNL     1       3.887  26.632  49.690  1.00  0.00    -0.067 N 
HETATM   22  H   UNL     1       3.022  26.607  50.269  1.00  0.00     0.280 HD
HETATM   23  C   UNL     1       4.125  28.055  49.204  1.00  0.00     0.261 C 
HETATM   24  C   UNL     1       2.949  28.528  48.343  1.00  0.00     0.195 C 
HETATM   25  O   UNL     1       2.719  27.639  47.245  1.00  0.00    -0.388 OA
HETATM   26  C   UNL     1       2.391  26.323  47.703  1.00  0.00     0.195 C 
HETATM   27  C   UNL     1       3.555  25.726  48.499  1.00  0.00     0.261 C 
ENDBRANCH  20  21
ENDBRANCH  19  20
ENDBRANCH  18  19
ENDBRANCH   2  18
BRANCH   6  28
HETATM   28  C   UNL     1       8.155  27.014  56.485  1.00  0.00     0.193 C 
HETATM   29  O   UNL     1       8.244  25.914  57.020  1.00  0.00    -0.287 OA
BRANCH  28  30
HETATM   30  C   UNL     1       8.551  28.222  57.242  1.00  0.00     0.015 A 
HETATM   31  C   UNL     1       9.801  28.825  57.058  1.00  0.00     0.016 A 
HETATM   32  C   UNL     1      10.135  29.975  57.776  1.00  0.00     0.007 A 
HETATM   33  C   UNL     1       9.217  30.544  58.666  1.00  0.00    -0.062 A 
HETATM   34  C   UNL     1       9.565  31.792  59.423  1.00  0.00     0.048 C 
HETATM   35  C   UNL     1       7.945  29.972  58.797  1.00  0.00     0.007 A 
HETATM   36  C   UNL     1       7.610  28.818  58.085  1.00  0.00     0.016 A 
ENDBRANCH  28  30
ENDBRANCH   6  28
BRANCH   5  37
HETATM   37  O   UNL     1       8.605  29.122  54.190  1.00  0.00    -0.355 OA
HETATM   38  H   UNL     1       8.065  29.930  54.081  1.00  0.00     0.218 HD
ENDBRANCH   5  37
TORSDOF 11
ENDMDL
MODEL 5
REMARK VINA RESULT:      -8.8      2.539      6.519
REMARK  11 active torsions:
REMARK  status: ('A' for Active; 'I' for Inactive)
REMARK    1  A    between atoms: C_2  and  O_3 
REMARK    2  A    between atoms: O_3  and  C_4 
REMARK    3  A    between atoms: C_5  and  O_6 
REMARK    4  A    between atoms: C_9  and  C_10 
REMARK    5  A    between atoms: N_11  and  C_12 
REMARK    6  A    between atoms: C_12  and  C_13 
REMARK    7  A    between atoms: C_13  and  C_14 
REMARK    8  A    between atoms: C_14  and  N_15 
REMARK    9  A    between atoms: C_24  and  O_25 
REMARK   10  A    between atoms: C_26  and  C_27 
REMARK   11  A    between atoms: C_27  and  C_28 
ROOT
HETATM    1  C   UNL     1       5.448  27.568  55.570  1.00  0.00     0.161 C 
HETATM    2  N   UNL     1       5.575  26.171  55.163  1.00  0.00    -0.333 N 
HETATM    3  C   UNL     1       5.186  25.982  53.858  1.00  0.00     0.278 C 
HETATM    4  O   UNL     1       5.071  24.913  53.276  1.00  0.00    -0.265 OA
HETATM    5  C   UNL     1       4.652  27.265  53.362  1.00  0.00     0.146 C 
HETATM    6  C   UNL     1       4.673  28.113  54.398  1.00  0.00     0.059 C 
ENDROOT
BRANCH   1   7
HETATM    7  C   UNL     1       6.816  28.198  55.797  1.00  0.00    -0.028 A 
HETATM    8  C   UNL     1       7.727  28.401  54.739  1.00  0.00     0.012 A 
HETATM    9  C   UNL     1       8.978  28.971  54.966  1.00  0.00     0.040 A 
HETATM   10  C   UNL     1       9.335  29.333  56.255  1.00  0.00     0.099 A 
HETATM   11  C   UNL     1       8.461  29.152  57.329  1.00  0.00     0.102 A 
HETATM   12  C   UNL     1       7.209  28.574  57.100  1.00  0.00     0.049 A 
BRANCH  10  13
HETATM   13  O   UNL     1      10.569  29.889  56.449  1.00  0.00    -0.358 OA
HETATM   14  H   UNL     1      10.690  30.516  55.710  1.00  0.00     0.218 HD
ENDBRANCH  10  13
BRANCH  11  15
HETATM   15  O   UNL     1       8.956  29.552  58.542  1.00  0.00    -0.349 OA
BRANCH  15  16
HETATM   16  C   UNL     1       8.127  30.410  59.323  1.00  0.00     0.171 C 
HETATM   17  C   UNL     1       8.811  30.614  60.663  1.00  0.00     0.034 C 
ENDBRANCH  15  16
ENDBRANCH  11  15
ENDBRANCH   1   7
BRANCH   2  18
HETATM   18  C   UNL     1       5.758  25.078  56.100  1.00  0.00     0.129 C 
BRANCH  18  19
HETATM   19  C   UNL     1       7.227  24.669  56.279  1.00  0.00     0.048 C 
BRANCH  19  20
HETATM   20  C   UNL     1       7.951  24.098  55.054  1.00  0.00     0.236 C 
BRANCH  20  21
HETATM   21  N   UNL     1       7.690  22.636  54.808  1.00  0.00    -0.067 N 
HETATM   22  H   UNL     1       6.667  22.467  54.900  1.00  0.00     0.280 HD
HETATM   23  C   UNL     1       8.160  22.145  53.446  1.00  0.00     0.261 C 
HETATM   24  C   UNL     1       7.899  20.642  53.302  1.00  0.00     0.195 C 
HETATM   25  O   UNL     1       8.522  19.904  54.359  1.00  0.00    -0.388 OA
HETATM   26  C   UNL     1       8.005  20.291  55.636  1.00  0.00     0.195 C 
HETATM   27  C   UNL     1       8.305  21.767  55.912  1.00  0.00     0.261 C 
ENDBRANCH  20  21
ENDBRANCH  19  20
ENDBRANCH  18  19
ENDBRANCH   2  18
BRANCH   6  28
HETATM   28  C   UNL     1       4.033  29.438  54.539  1.00  0.00     0.193 C 
HETATM   29  O   UNL     1       3.426  29.925  53.590  1.00  0.00    -0.287 OA
BRANCH  28  30
HETATM   30  C   UNL     1       4.203  30.233  55.775  1.00  0.00     0.015 A 
HETATM   31  C   UNL     1       3.496  29.928  56.945  1.00  0.00     0.016 A 
HETATM   32  C   UNL     1       3.695  30.687  58.100  1.00  0.00     0.007 A 
HETATM   33  C   UNL     1       4.613  31.743  58.101  1.00  0.00    -0.062 A 
HETATM   34  C   UNL     1       4.844  32.549  59.347  1.00  0.00     0.048 C 
HETATM   35  C   UNL     1       5.362  32.002  56.946  1.00  0.00     0.007 A 
HETATM   36  C   UNL     1       5.161  31.248  55.788  1.00  0.00     0.016 A 
ENDBRANCH  28  30
ENDBRANCH   6  28
BRANCH   5  37
HETATM   37  O   UNL     1       4.094  27.411  52.131  1.00  0.00    -0.355 OA
HETATM   38  H   UNL     1       4.699  27.964  51.598  1.00  0.00     0.218 HD
ENDBRANCH   5  37
TORSDOF 11
ENDMDL
MODEL 6
REMARK VINA RESULT:      -8.7      1.548      2.160
REMARK  11 active torsions:
REMARK  status: ('A' for Active; 'I' for Inactive)
REMARK    1  A    between atoms: C_2  and  O_3 
REMARK    2  A    between atoms: O_3  and  C_4 
REMARK    3  A    between atoms: C_5  and  O_6 
REMARK    4  A    between atoms: C_9  and  C_10 
REMARK    5  A    between atoms: N_11  and  C_12 
REMARK    6  A    between atoms: C_12  and  C_13 
REMARK    7  A    between atoms: C_13  and  C_14 
REMARK    8  A    between atoms: C_14  and  N_15 
REMARK    9  A    between atoms: C_24  and  O_25 
REMARK   10  A    between atoms: C_26  and  C_27 
REMARK   11  A    between atoms: C_27  and  C_28 
ROOT
HETATM    1  C   UNL     1       6.734  28.495  54.988  1.00  0.00     0.161 C 
HETATM    2  N   UNL     1       5.492  29.064  55.504  1.00  0.00    -0.333 N 
HETATM    3  C   UNL     1       4.701  28.109  56.098  1.00  0.00     0.278 C 
HETATM    4  O   UNL     1       3.560  28.258  56.513  1.00  0.00    -0.265 OA
HETATM    5  C   UNL     1       5.348  26.800  55.888  1.00  0.00     0.146 C 
HETATM    6  C   UNL     1       6.427  27.027  55.126  1.00  0.00     0.059 C 
ENDROOT
BRANCH   1   7
HETATM    7  C   UNL     1       7.934  28.988  55.787  1.00  0.00    -0.028 A 
HETATM    8  C   UNL     1       9.189  29.213  55.183  1.00  0.00     0.012 A 
HETATM    9  C   UNL     1      10.279  29.656  55.930  1.00  0.00     0.040 A 
HETATM   10  C   UNL     1      10.127  29.869  57.290  1.00  0.00     0.099 A 
HETATM   11  C   UNL     1       8.901  29.662  57.926  1.00  0.00     0.102 A 
HETATM   12  C   UNL     1       7.810  29.211  57.176  1.00  0.00     0.049 A 
BRANCH  10  13
HETATM   13  O   UNL     1      11.212  30.303  57.999  1.00  0.00    -0.358 OA
HETATM   14  H   UNL     1      11.065  31.259  58.139  1.00  0.00     0.218 HD
ENDBRANCH  10  13
BRANCH  11  15
HETATM   15  O   UNL     1       8.906  29.909  59.274  1.00  0.00    -0.349 OA
BRANCH  15  16
HETATM   16  C   UNL     1       8.008  30.909  59.748  1.00  0.00     0.171 C 
HETATM   17  C   UNL     1       8.810  32.181  59.960  1.00  0.00     0.034 C 
ENDBRANCH  15  16
ENDBRANCH  11  15
ENDBRANCH   1   7
BRANCH   2  18
HETATM   18  C   UNL     1       5.004  30.382  55.143  1.00  0.00     0.129 C 
BRANCH  18  19
HETATM   19  C   UNL     1       3.893  30.351  54.084  1.00  0.00     0.048 C 
BRANCH  19  20
HETATM   20  C   UNL     1       4.229  30.909  52.697  1.00  0.00     0.236 C 
BRANCH  20  21
HETATM   21  N   UNL     1       5.002  29.960  51.820  1.00  0.00    -0.067 N 
HETATM   22  H   UNL     1       6.010  30.028  52.072  1.00  0.00     0.280 HD
HETATM   23  C   UNL     1       4.553  28.509  51.933  1.00  0.00     0.261 C 
HETATM   24  C   UNL     1       5.358  27.626  50.974  1.00  0.00     0.195 C 
HETATM   25  O   UNL     1       5.252  28.095  49.625  1.00  0.00    -0.388 OA
HETATM   26  C   UNL     1       5.771  29.422  49.495  1.00  0.00     0.195 C 
HETATM   27  C   UNL     1       4.962  30.401  50.352  1.00  0.00     0.261 C 
ENDBRANCH  20  21
ENDBRANCH  19  20
ENDBRANCH  18  19
ENDBRANCH   2  18
BRANCH   6  28
HETATM   28  C   UNL     1       7.289  26.062  54.412  1.00  0.00     0.193 C 
HETATM   29  O   UNL     1       7.656  26.304  53.266  1.00  0.00    -0.287 OA
BRANCH  28  30
HETATM   30  C   UNL     1       7.631  24.757  55.021  1.00  0.00     0.015 A 
HETATM   31  C   UNL     1       8.211  24.672  56.293  1.00  0.00     0.016 A 
HETATM   32  C   UNL     1       8.503  23.423  56.846  1.00  0.00     0.007 A 
HETATM   33  C   UNL     1       8.200  22.252  56.144  1.00  0.00    -0.062 A 
HETATM   34  C   UNL     1       8.494  20.908  56.744  1.00  0.00     0.048 C 
HETATM   35  C   UNL     1       7.563  22.343  54.901  1.00  0.00     0.007 A 
HETATM   36  C   UNL     1       7.274  23.591  54.341  1.00  0.00     0.016 A 
ENDBRANCH  28  30
ENDBRANCH   6  28
BRANCH   5  37
HETATM   37  O   UNL     1       4.785  25.623  56.269  1.00  0.00    -0.355 OA
HETATM   38  H   UNL     1       5.392  24.905  55.996  1.00  0.00     0.218 HD
ENDBRANCH   5  37
TORSDOF 11
ENDMDL
MODEL 7
REMARK VINA RESULT:      -8.5      2.483      7.209
REMARK  11 active torsions:
REMARK  status: ('A' for Active; 'I' for Inactive)
REMARK    1  A    between atoms: C_2  and  O_3 
REMARK    2  A    between atoms: O_3  and  C_4 
REMARK    3  A    between atoms: C_5  and  O_6 
REMARK    4  A    between atoms: C_9  and  C_10 
REMARK    5  A    between atoms: N_11  and  C_12 
REMARK    6  A    between atoms: C_12  and  C_13 
REMARK    7  A    between atoms: C_13  and  C_14 
REMARK    8  A    between atoms: C_14  and  N_15 
REMARK    9  A    between atoms: C_24  and  O_25 
REMARK   10  A    between atoms: C_26  and  C_27 
REMARK   11  A    between atoms: C_27  and  C_28 
ROOT
HETATM    1  C   UNL     1       5.376  27.853  56.544  1.00  0.00     0.161 C 
HETATM    2  N   UNL     1       6.034  28.897  57.325  1.00  0.00    -0.333 N 
HETATM    3  C   UNL     1       7.229  28.465  57.851  1.00  0.00     0.278 C 
HETATM    4  O   UNL     1       7.943  29.069  58.638  1.00  0.00    -0.265 OA
HETATM    5  C   UNL     1       7.363  27.030  57.533  1.00  0.00     0.146 C 
HETATM    6  C   UNL     1       6.229  26.669  56.919  1.00  0.00     0.059 C 
ENDROOT
BRANCH   1   7
HETATM    7  C   UNL     1       5.363  28.205  55.062  1.00  0.00    -0.028 A 
HETATM    8  C   UNL     1       6.454  27.912  54.218  1.00  0.00     0.012 A 
HETATM    9  C   UNL     1       6.429  28.249  52.865  1.00  0.00     0.040 A 
HETATM   10  C   UNL     1       5.317  28.891  52.347  1.00  0.00     0.099 A 
HETATM   11  C   UNL     1       4.214  29.196  53.148  1.00  0.00     0.102 A 
HETATM   12  C   UNL     1       4.244  28.863  54.506  1.00  0.00     0.049 A 
BRANCH  10  13
HETATM   13  O   UNL     1       5.318  29.211  51.018  1.00  0.00    -0.358 OA
HETATM   14  H   UNL     1       5.277  30.186  50.985  1.00  0.00     0.218 HD
ENDBRANCH  10  13
BRANCH  11  15
HETATM   15  O   UNL     1       3.193  29.836  52.497  1.00  0.00    -0.349 OA
BRANCH  15  16
HETATM   16  C   UNL     1       3.061  31.237  52.730  1.00  0.00     0.171 C 
HETATM   17  C   UNL     1       2.954  31.918  51.377  1.00  0.00     0.034 C 
ENDBRANCH  15  16
ENDBRANCH  11  15
ENDBRANCH   1   7
BRANCH   2  18
HETATM   18  C   UNL     1       5.366  30.106  57.769  1.00  0.00     0.129 C 
BRANCH  18  19
HETATM   19  C   UNL     1       6.269  31.347  57.742  1.00  0.00     0.048 C 
BRANCH  19  20
HETATM   20  C   UNL     1       6.286  32.231  58.993  1.00  0.00     0.236 C 
BRANCH  20  21
HETATM   21  N   UNL     1       7.172  31.721  60.098  1.00  0.00    -0.067 N 
HETATM   22  H   UNL     1       7.176  30.681  60.060  1.00  0.00     0.280 HD
HETATM   23  C   UNL     1       8.605  32.231  60.026  1.00  0.00     0.261 C 
HETATM   24  C   UNL     1       9.420  31.703  61.211  1.00  0.00     0.195 C 
HETATM   25  O   UNL     1       8.809  32.055  62.458  1.00  0.00    -0.388 OA
HETATM   26  C   UNL     1       7.500  31.488  62.572  1.00  0.00     0.195 C 
HETATM   27  C   UNL     1       6.580  32.035  61.477  1.00  0.00     0.261 C 
ENDBRANCH  20  21
ENDBRANCH  19  20
ENDBRANCH  18  19
ENDBRANCH   2  18
BRANCH   6  28
HETATM   28  C   UNL     1       5.721  25.316  56.609  1.00  0.00     0.193 C 
HETATM   29  O   UNL     1       4.723  24.893  57.182  1.00  0.00    -0.287 OA
BRANCH  28  30
HETATM   30  C   UNL     1       6.463  24.421  55.693  1.00  0.00     0.015 A 
HETATM   31  C   UNL     1       7.329  23.432  56.176  1.00  0.00     0.016 A 
HETATM   32  C   UNL     1       7.999  22.593  55.283  1.00  0.00     0.007 A 
HETATM   33  C   UNL     1       7.796  22.721  53.905  1.00  0.00    -0.062 A 
HETATM   34  C   UNL     1       8.499  21.807  52.944  1.00  0.00     0.048 C 
HETATM   35  C   UNL     1       6.880  23.670  53.433  1.00  0.00     0.007 A 
HETATM   36  C   UNL     1       6.213  24.515  54.322  1.00  0.00     0.016 A 
ENDBRANCH  28  30
ENDBRANCH   6  28
BRANCH   5  37
HETATM   37  O   UNL     1       8.390  26.263  57.983  1.00  0.00    -0.355 OA
HETATM   38  H   UNL     1       8.989  26.843  58.494  1.00  0.00     0.218 HD
ENDBRANCH   5  37
TORSDOF 11
ENDMDL
MODEL 8
REMARK VINA RESULT:      -8.3      2.634      7.428
REMARK  11 active torsions:
REMARK  status: ('A' for Active; 'I' for Inactive)
REMARK    1  A    between atoms: C_2  and  O_3 
REMARK    2  A    between atoms: O_3  and  C_4 
REMARK    3  A    between atoms: C_5  and  O_6 
REMARK    4  A    between atoms: C_9  and  C_10 
REMARK    5  A    between atoms: N_11  and  C_12 
REMARK    6  A    between atoms: C_12  and  C_13 
REMARK    7  A    between atoms: C_13  and  C_14 
REMARK    8  A    between atoms: C_14  and  N_15 
REMARK    9  A    between atoms: C_24  and  O_25 
REMARK   10  A    between atoms: C_26  and  C_27 
REMARK   11  A    between atoms: C_27  and  C_28 
ROOT
HETATM    1  C   UNL     1       4.986  28.416  56.206  1.00  0.00     0.161 C 
HETATM    2  N   UNL     1       5.511  29.591  56.897  1.00  0.00    -0.333 N 
HETATM    3  C   UNL     1       6.651  29.298  57.608  1.00  0.00     0.278 C 
HETATM    4  O   UNL     1       7.246  30.042  58.374  1.00  0.00    -0.265 OA
HETATM    5  C   UNL     1       6.873  27.843  57.515  1.00  0.00     0.146 C 
HETATM    6  C   UNL     1       5.832  27.341  56.838  1.00  0.00     0.059 C 
ENDROOT
BRANCH   1   7
HETATM    7  C   UNL     1       5.134  28.559  54.697  1.00  0.00    -0.028 A 
HETATM    8  C   UNL     1       6.313  28.175  54.024  1.00  0.00     0.012 A 
HETATM    9  C   UNL     1       6.433  28.321  52.643  1.00  0.00     0.040 A 
HETATM   10  C   UNL     1       5.381  28.862  51.923  1.00  0.00     0.099 A 
HETATM   11  C   UNL     1       4.195  29.251  52.550  1.00  0.00     0.102 A 
HETATM   12  C   UNL     1       4.078  29.111  53.936  1.00  0.00     0.049 A 
BRANCH  10  13
HETATM   13  O   UNL     1       5.526  28.994  50.570  1.00  0.00    -0.358 OA
HETATM   14  H   UNL     1       6.447  29.291  50.436  1.00  0.00     0.218 HD
ENDBRANCH  10  13
BRANCH  11  15
HETATM   15  O   UNL     1       3.248  29.774  51.709  1.00  0.00    -0.349 OA
BRANCH  15  16
HETATM   16  C   UNL     1       2.161  28.921  51.358  1.00  0.00     0.171 C 
HETATM   17  C   UNL     1       2.019  28.960  49.846  1.00  0.00     0.034 C 
ENDBRANCH  15  16
ENDBRANCH  11  15
ENDBRANCH   1   7
BRANCH   2  18
HETATM   18  C   UNL     1       4.752  30.813  57.087  1.00  0.00     0.129 C 
BRANCH  18  19
HETATM   19  C   UNL     1       3.798  30.757  58.289  1.00  0.00     0.048 C 
BRANCH  19  20
HETATM   20  C   UNL     1       3.798  31.957  59.242  1.00  0.00     0.236 C 
BRANCH  20  21
HETATM   21  N   UNL     1       4.768  31.835  60.388  1.00  0.00    -0.067 N 
HETATM   22  H   UNL     1       5.052  30.836  60.470  1.00  0.00     0.280 HD
HETATM   23  C   UNL     1       6.011  32.700  60.240  1.00  0.00     0.261 C 
HETATM   24  C   UNL     1       6.914  32.551  61.469  1.00  0.00     0.195 C 
HETATM   25  O   UNL     1       6.207  32.865  62.674  1.00  0.00    -0.388 OA
HETATM   26  C   UNL     1       5.097  31.983  62.869  1.00  0.00     0.195 C 
HETATM   27  C   UNL     1       4.086  32.133  61.728  1.00  0.00     0.261 C 
ENDBRANCH  20  21
ENDBRANCH  19  20
ENDBRANCH  18  19
ENDBRANCH   2  18
BRANCH   6  28
HETATM   28  C   UNL     1       5.412  25.934  56.670  1.00  0.00     0.193 C 
HETATM   29  O   UNL     1       4.526  25.473  57.383  1.00  0.00    -0.287 OA
BRANCH  28  30
HETATM   30  C   UNL     1       6.121  25.041  55.726  1.00  0.00     0.015 A 
HETATM   31  C   UNL     1       7.168  24.212  56.147  1.00  0.00     0.016 A 
HETATM   32  C   UNL     1       7.803  23.368  55.233  1.00  0.00     0.007 A 
HETATM   33  C   UNL     1       7.384  23.330  53.899  1.00  0.00    -0.062 A 
HETATM   34  C   UNL     1       8.049  22.409  52.918  1.00  0.00     0.048 C 
HETATM   35  C   UNL     1       6.294  24.115  53.500  1.00  0.00     0.007 A 
HETATM   36  C   UNL     1       5.661  24.965  54.410  1.00  0.00     0.016 A 
ENDBRANCH  28  30
ENDBRANCH   6  28
BRANCH   5  37
HETATM   37  O   UNL     1       7.867  27.199  58.182  1.00  0.00    -0.355 OA
HETATM   38  H   UNL     1       8.247  27.831  58.825  1.00  0.00     0.218 HD
ENDBRANCH   5  37
TORSDOF 11
ENDMDL
MODEL 9
REMARK VINA RESULT:      -8.3      2.353      6.419
REMARK  11 active torsions:
REMARK  status: ('A' for Active; 'I' for Inactive)
REMARK    1  A    between atoms: C_2  and  O_3 
REMARK    2  A    between atoms: O_3  and  C_4 
REMARK    3  A    between atoms: C_5  and  O_6 
REMARK    4  A    between atoms: C_9  and  C_10 
REMARK    5  A    between atoms: N_11  and  C_12 
REMARK    6  A    between atoms: C_12  and  C_13 
REMARK    7  A    between atoms: C_13  and  C_14 
REMARK    8  A    between atoms: C_14  and  N_15 
REMARK    9  A    between atoms: C_24  and  O_25 
REMARK   10  A    between atoms: C_26  and  C_27 
REMARK   11  A    between atoms: C_27  and  C_28 
ROOT
HETATM    1  C   UNL     1       5.833  26.748  54.905  1.00  0.00     0.161 C 
HETATM    2  N   UNL     1       6.222  25.343  54.819  1.00  0.00    -0.333 N 
HETATM    3  C   UNL     1       6.178  24.880  53.525  1.00  0.00     0.278 C 
HETATM    4  O   UNL     1       6.334  23.725  53.156  1.00  0.00    -0.265 OA
HETATM    5  C   UNL     1       5.622  25.958  52.684  1.00  0.00     0.146 C 
HETATM    6  C   UNL     1       5.294  26.957  53.514  1.00  0.00     0.059 C 
ENDROOT
BRANCH   1   7
HETATM    7  C   UNL     1       7.021  27.622  55.283  1.00  0.00    -0.028 A 
HETATM    8  C   UNL     1       7.929  28.103  54.316  1.00  0.00     0.012 A 
HETATM    9  C   UNL     1       9.017  28.895  54.681  1.00  0.00     0.040 A 
HETATM   10  C   UNL     1       9.212  29.205  56.017  1.00  0.00     0.099 A 
HETATM   11  C   UNL     1       8.335  28.753  57.005  1.00  0.00     0.102 A 
HETATM   12  C   UNL     1       7.249  27.952  56.638  1.00  0.00     0.049 A 
BRANCH  10  13
HETATM   13  O   UNL     1      10.287  29.983  56.346  1.00  0.00    -0.358 OA
HETATM   14  H   UNL     1      10.600  29.643  57.207  1.00  0.00     0.218 HD
ENDBRANCH  10  13
BRANCH  11  15
HETATM   15  O   UNL     1       8.662  29.135  58.279  1.00  0.00    -0.349 OA
BRANCH  15  16
HETATM   16  C   UNL     1       7.873  30.169  58.861  1.00  0.00     0.171 C 
HETATM   17  C   UNL     1       8.677  30.772  60.000  1.00  0.00     0.034 C 
ENDBRANCH  15  16
ENDBRANCH  11  15
ENDBRANCH   1   7
BRANCH   2  18
HETATM   18  C   UNL     1       6.313  24.465  55.971  1.00  0.00     0.129 C 
BRANCH  18  19
HETATM   19  C   UNL     1       7.733  24.355  56.542  1.00  0.00     0.048 C 
BRANCH  19  20
HETATM   20  C   UNL     1       8.793  23.681  55.664  1.00  0.00     0.236 C 
BRANCH  20  21
HETATM   21  N   UNL     1       8.392  22.327  55.141  1.00  0.00    -0.067 N 
HETATM   22  H   UNL     1       7.353  22.295  55.080  1.00  0.00     0.280 HD
HETATM   23  C   UNL     1       8.986  21.989  53.780  1.00  0.00     0.261 C 
HETATM   24  C   UNL     1       8.566  20.580  53.350  1.00  0.00     0.195 C 
HETATM   25  O   UNL     1       8.937  19.606  54.332  1.00  0.00    -0.388 OA
HETATM   26  C   UNL     1       8.296  19.862  55.586  1.00  0.00     0.195 C 
HETATM   27  C   UNL     1       8.733  21.219  56.145  1.00  0.00     0.261 C 
ENDBRANCH  20  21
ENDBRANCH  19  20
ENDBRANCH  18  19
ENDBRANCH   2  18
BRANCH   6  28
HETATM   28  C   UNL     1       4.481  28.163  53.252  1.00  0.00     0.193 C 
HETATM   29  O   UNL     1       3.761  28.616  54.136  1.00  0.00    -0.287 OA
BRANCH  28  30
HETATM   30  C   UNL     1       4.444  28.773  51.904  1.00  0.00     0.015 A 
HETATM   31  C   UNL     1       3.266  28.806  51.147  1.00  0.00     0.016 A 
HETATM   32  C   UNL     1       3.263  29.406  49.886  1.00  0.00     0.007 A 
HETATM   33  C   UNL     1       4.427  29.993  49.380  1.00  0.00    -0.062 A 
HETATM   34  C   UNL     1       4.421  30.657  48.033  1.00  0.00     0.048 C 
HETATM   35  C   UNL     1       5.584  30.011  50.169  1.00  0.00     0.007 A 
HETATM   36  C   UNL     1       5.594  29.407  51.428  1.00  0.00     0.016 A 
ENDBRANCH  28  30
ENDBRANCH   6  28
BRANCH   5  37
HETATM   37  O   UNL     1       5.356  25.804  51.360  1.00  0.00    -0.355 OA
HETATM   38  H   UNL     1       5.903  25.062  51.035  1.00  0.00     0.218 HD
ENDBRANCH   5  37
TORSDOF 11
ENDMDL
MODEL 10
REMARK VINA RESULT:      -8.2      2.260      7.708
REMARK  11 active torsions:
REMARK  status: ('A' for Active; 'I' for Inactive)
REMARK    1  A    between atoms: C_2  and  O_3 
REMARK    2  A    between atoms: O_3  and  C_4 
REMARK    3  A    between atoms: C_5  and  O_6 
REMARK    4  A    between atoms: C_9  and  C_10 
REMARK    5  A    between atoms: N_11  and  C_12 
REMARK    6  A    between atoms: C_12  and  C_13 
REMARK    7  A    between atoms: C_13  and  C_14 
REMARK    8  A    between atoms: C_14  and  N_15 
REMARK    9  A    between atoms: C_24  and  O_25 
REMARK   10  A    between atoms: C_26  and  C_27 
REMARK   11  A    between atoms: C_27  and  C_28 
ROOT
HETATM    1  C   UNL     1       5.403  28.607  56.033  1.00  0.00     0.161 C 
HETATM    2  N   UNL     1       6.300  29.691  56.426  1.00  0.00    -0.333 N 
HETATM    3  C   UNL     1       7.595  29.253  56.575  1.00  0.00     0.278 C 
HETATM    4  O   UNL     1       8.540  29.898  57.007  1.00  0.00    -0.265 OA
HETATM    5  C   UNL     1       7.593  27.788  56.400  1.00  0.00     0.146 C 
HETATM    6  C   UNL     1       6.314  27.425  56.241  1.00  0.00     0.059 C 
ENDROOT
BRANCH   1   7
HETATM    7  C   UNL     1       4.902  28.803  54.608  1.00  0.00    -0.028 A 
HETATM    8  C   UNL     1       3.769  29.591  54.319  1.00  0.00     0.012 A 
HETATM    9  C   UNL     1       3.319  29.753  53.009  1.00  0.00     0.040 A 
HETATM   10  C   UNL     1       3.992  29.119  51.978  1.00  0.00     0.099 A 
HETATM   11  C   UNL     1       5.121  28.333  52.221  1.00  0.00     0.102 A 
HETATM   12  C   UNL     1       5.566  28.166  53.536  1.00  0.00     0.049 A 
BRANCH  10  13
HETATM   13  O   UNL     1       3.530  29.293  50.704  1.00  0.00    -0.358 OA
HETATM   14  H   UNL     1       4.307  29.168  50.126  1.00  0.00     0.218 HD
ENDBRANCH  10  13
BRANCH  11  15
HETATM   15  O   UNL     1       5.675  27.766  51.104  1.00  0.00    -0.349 OA
BRANCH  15  16
HETATM   16  C   UNL     1       5.382  26.390  50.869  1.00  0.00     0.171 C 
HETATM   17  C   UNL     1       4.642  26.299  49.546  1.00  0.00     0.034 C 
ENDBRANCH  15  16
ENDBRANCH  11  15
ENDBRANCH   1   7
BRANCH   2  18
HETATM   18  C   UNL     1       5.837  30.973  56.922  1.00  0.00     0.129 C 
BRANCH  18  19
HETATM   19  C   UNL     1       5.700  31.022  58.450  1.00  0.00     0.048 C 
BRANCH  19  20
HETATM   20  C   UNL     1       6.605  32.002  59.205  1.00  0.00     0.236 C 
BRANCH  20  21
HETATM   21  N   UNL     1       6.840  31.640  60.648  1.00  0.00    -0.067 N 
HETATM   22  H   UNL     1       6.146  30.913  60.919  1.00  0.00     0.280 HD
HETATM   23  C   UNL     1       8.244  31.126  60.934  1.00  0.00     0.261 C 
HETATM   24  C   UNL     1       8.409  30.829  62.429  1.00  0.00     0.195 C 
HETATM   25  O   UNL     1       8.109  31.983  63.222  1.00  0.00    -0.388 OA
HETATM   26  C   UNL     1       6.755  32.406  63.033  1.00  0.00     0.195 C 
HETATM   27  C   UNL     1       6.520  32.817  61.577  1.00  0.00     0.261 C 
ENDBRANCH  20  21
ENDBRANCH  19  20
ENDBRANCH  18  19
ENDBRANCH   2  18
BRANCH   6  28
HETATM   28  C   UNL     1       5.711  26.076  56.275  1.00  0.00     0.193 C 
HETATM   29  O   UNL     1       4.788  25.841  57.048  1.00  0.00    -0.287 OA
BRANCH  28  30
HETATM   30  C   UNL     1       6.276  24.974  55.465  1.00  0.00     0.015 A 
HETATM   31  C   UNL     1       6.116  24.931  54.074  1.00  0.00     0.016 A 
HETATM   32  C   UNL     1       6.679  23.886  53.338  1.00  0.00     0.007 A 
HETATM   33  C   UNL     1       7.422  22.889  53.981  1.00  0.00    -0.062 A 
HETATM   34  C   UNL     1       8.046  21.776  53.190  1.00  0.00     0.048 C 
HETATM   35  C   UNL     1       7.631  22.974  55.363  1.00  0.00     0.007 A 
HETATM   36  C   UNL     1       7.064  24.014  56.103  1.00  0.00     0.016 A 
ENDBRANCH  28  30
ENDBRANCH   6  28
BRANCH   5  37
HETATM   37  O   UNL     1       8.700  27.018  56.573  1.00  0.00    -0.355 OA
HETATM   38  H   UNL     1       9.463  27.517  56.220  1.00  0.00     0.218 HD
ENDBRANCH   5  37
TORSDOF 11
ENDMDL
