MODEL 1
REMARK VINA RESULT:      -8.4      0.000      0.000
REMARK  5 active torsions:
REMARK  status: ('A' for Active; 'I' for Inactive)
REMARK    1  A    between atoms: C_2  and  O_3 
REMARK    2  A    between atoms: O_3  and  C_4 
REMARK    3  A    between atoms: C_4  and  C_5 
REMARK    4  A    between atoms: C_6  and  C_7 
REMARK    5  A    between atoms: C_22  and  N_23 
ROOT
HETATM    1  C   UNL     1       6.648  26.358  53.975  1.00  0.00     0.075 A 
HETATM    2  C   UNL     1       7.100  26.277  55.309  1.00  0.00     0.011 A 
HETATM    3  C   UNL     1       7.512  25.009  55.775  1.00  0.00     0.074 A 
HETATM    4  C   UNL     1       7.447  23.912  54.914  1.00  0.00     0.096 A 
HETATM    5  N   UNL     1       7.008  24.008  53.634  1.00  0.00    -0.250 NA
HETATM    6  C   UNL     1       6.609  25.217  53.172  1.00  0.00     0.048 A 
HETATM    7  C   UNL     1       6.125  25.248  51.751  1.00  0.00     0.071 C 
HETATM    8  C   UNL     1       8.025  24.750  57.148  1.00  0.00     0.260 A 
HETATM    9  O   UNL     1       8.183  25.624  57.988  1.00  0.00    -0.267 OA
HETATM   10  N   UNL     1       8.333  23.446  57.459  1.00  0.00    -0.312 N 
HETATM   11  C   UNL     1       8.268  22.366  56.621  1.00  0.00     0.102 A 
HETATM   12  C   UNL     1       7.846  22.567  55.355  1.00  0.00     0.098 A 
HETATM   13  C   UNL     1       7.793  21.419  54.360  1.00  0.00     0.025 C 
HETATM   14  N   UNL     1       7.748  20.466  53.535  1.00  0.00    -0.096 N 
HETATM   15  H   UNL     1       8.710  23.313  58.389  1.00  0.00     0.170 HD
ENDROOT
BRANCH  11  16
HETATM   16  N   UNL     1       8.658  21.159  57.146  1.00  0.00    -0.287 NA
HETATM   17  H   UNL     1       8.425  21.043  58.129  1.00  0.00     0.125 HD
HETATM   18  H   UNL     1       8.407  20.334  56.601  1.00  0.00     0.125 HD
ENDBRANCH  11  16
BRANCH   2  19
HETATM   19  C   UNL     1       7.127  27.486  56.148  1.00  0.00    -0.024 A 
HETATM   20  C   UNL     1       6.008  27.854  56.914  1.00  0.00     0.014 A 
HETATM   21  C   UNL     1       6.030  29.007  57.704  1.00  0.00     0.024 A 
HETATM   22  C   UNL     1       7.168  29.807  57.727  1.00  0.00     0.034 A 
HETATM   23 CL   UNL     1       7.194  31.228  58.698  1.00  0.00    -0.084 Cl
HETATM   24  C   UNL     1       8.284  29.468  56.967  1.00  0.00     0.024 A 
HETATM   25  C   UNL     1       8.264  28.312  56.182  1.00  0.00     0.014 A 
ENDBRANCH   2  19
BRANCH   1  26
HETATM   26  C   UNL     1       6.151  27.626  53.422  1.00  0.00     0.296 C 
HETATM   27  O   UNL     1       6.866  28.454  52.888  1.00  0.00    -0.259 OA
BRANCH  26  28
HETATM   28  O   UNL     1       4.822  27.690  53.662  1.00  0.00    -0.318 OA
BRANCH  28  29
HETATM   29  C   UNL     1       4.164  28.907  53.277  1.00  0.00     0.174 C 
HETATM   30  C   UNL     1       4.047  29.805  54.493  1.00  0.00     0.034 C 
ENDBRANCH  28  29
ENDBRANCH  26  28
ENDBRANCH   1  26
TORSDOF 5
ENDMDL
MODEL 2
REMARK VINA RESULT:      -8.3      3.592      5.959
REMARK  5 active torsions:
REMARK  status: ('A' for Active; 'I' for Inactive)
REMARK    1  A    between atoms: C_2  and  O_3 
REMARK    2  A    between atoms: O_3  and  C_4 
REMARK    3  A    between atoms: C_4  and  C_5 
REMARK    4  A    between atoms: C_6  and  C_7 
REMARK    5  A    between atoms: C_22  and  N_23 
ROOT
HETATM    1  C   UNL     1       5.462  26.411  53.962  1.00  0.00     0.075 A 
HETATM    2  C   UNL     1       6.499  25.947  54.798  1.00  0.00     0.011 A 
HETATM    3  C   UNL     1       6.905  26.792  55.854  1.00  0.00     0.074 A 
HETATM    4  C   UNL     1       6.278  28.029  56.016  1.00  0.00     0.096 A 
HETATM    5  N   UNL     1       5.283  28.460  55.201  1.00  0.00    -0.250 NA
HETATM    6  C   UNL     1       4.883  27.661  54.183  1.00  0.00     0.048 A 
HETATM    7  C   UNL     1       3.786  28.206  53.315  1.00  0.00     0.071 C 
HETATM    8  C   UNL     1       7.973  26.454  56.833  1.00  0.00     0.260 A 
HETATM    9  O   UNL     1       8.569  25.386  56.842  1.00  0.00    -0.267 OA
HETATM   10  N   UNL     1       8.284  27.412  57.769  1.00  0.00    -0.312 N 
HETATM   11  C   UNL     1       7.677  28.627  57.930  1.00  0.00     0.102 A 
HETATM   12  C   UNL     1       6.674  28.955  57.087  1.00  0.00     0.098 A 
HETATM   13  C   UNL     1       5.928  30.271  57.239  1.00  0.00     0.025 C 
HETATM   14  N   UNL     1       5.309  31.362  57.364  1.00  0.00    -0.096 N 
HETATM   15  H   UNL     1       8.991  27.133  58.438  1.00  0.00     0.170 HD
ENDROOT
BRANCH  11  16
HETATM   16  N   UNL     1       8.137  29.412  58.959  1.00  0.00    -0.287 NA
HETATM   17  H   UNL     1       7.399  29.792  59.547  1.00  0.00     0.125 HD
HETATM   18  H   UNL     1       8.894  29.018  59.516  1.00  0.00     0.125 HD
ENDBRANCH  11  16
BRANCH   2  19
HETATM   19  C   UNL     1       7.108  24.630  54.548  1.00  0.00    -0.024 A 
HETATM   20  C   UNL     1       7.984  24.437  53.467  1.00  0.00     0.014 A 
HETATM   21  C   UNL     1       8.556  23.185  53.224  1.00  0.00     0.024 A 
HETATM   22  C   UNL     1       8.248  22.112  54.055  1.00  0.00     0.034 A 
HETATM   23 CL   UNL     1       8.949  20.569  53.754  1.00  0.00    -0.084 Cl
HETATM   24  C   UNL     1       7.373  22.277  55.126  1.00  0.00     0.024 A 
HETATM   25  C   UNL     1       6.807  23.531  55.371  1.00  0.00     0.014 A 
ENDBRANCH   2  19
BRANCH   1  26
HETATM   26  C   UNL     1       5.012  25.620  52.808  1.00  0.00     0.296 C 
HETATM   27  O   UNL     1       4.224  24.696  52.889  1.00  0.00    -0.259 OA
BRANCH  26  28
HETATM   28  O   UNL     1       5.658  26.081  51.713  1.00  0.00    -0.318 OA
BRANCH  28  29
HETATM   29  C   UNL     1       4.930  26.029  50.476  1.00  0.00     0.174 C 
HETATM   30  C   UNL     1       4.918  27.413  49.858  1.00  0.00     0.034 C 
ENDBRANCH  28  29
ENDBRANCH  26  28
ENDBRANCH   1  26
TORSDOF 5
ENDMDL
MODEL 3
REMARK VINA RESULT:      -7.8      3.771      6.208
REMARK  5 active torsions:
REMARK  status: ('A' for Active; 'I' for Inactive)
REMARK    1  A    between atoms: C_2  and  O_3 
REMARK    2  A    between atoms: O_3  and  C_4 
REMARK    3  A    between atoms: C_4  and  C_5 
REMARK    4  A    between atoms: C_6  and  C_7 
REMARK    5  A    between atoms: C_22  and  N_23 
ROOT
HETATM    1  C   UNL     1       5.124  28.695  54.394  1.00  0.00     0.075 A 
HETATM    2  C   UNL     1       6.129  27.925  55.015  1.00  0.00     0.011 A 
HETATM    3  C   UNL     1       6.701  28.442  56.198  1.00  0.00     0.074 A 
HETATM    4  C   UNL     1       6.259  29.672  56.688  1.00  0.00     0.096 A 
HETATM    5  N   UNL     1       5.291  30.400  56.076  1.00  0.00    -0.250 NA
HETATM    6  C   UNL     1       4.734  29.919  54.940  1.00  0.00     0.048 A 
HETATM    7  C   UNL     1       3.678  30.781  54.311  1.00  0.00     0.071 C 
HETATM    8  C   UNL     1       7.762  27.755  56.983  1.00  0.00     0.260 A 
HETATM    9  O   UNL     1       8.206  26.651  56.701  1.00  0.00    -0.267 OA
HETATM   10  N   UNL     1       8.249  28.421  58.084  1.00  0.00    -0.312 N 
HETATM   11  C   UNL     1       7.823  29.628  58.566  1.00  0.00     0.102 A 
HETATM   12  C   UNL     1       6.833  30.265  57.905  1.00  0.00     0.098 A 
HETATM   13  C   UNL     1       6.283  31.588  58.412  1.00  0.00     0.025 C 
HETATM   14  N   UNL     1       5.826  32.685  58.832  1.00  0.00    -0.096 N 
HETATM   15  H   UNL     1       8.945  27.909  58.612  1.00  0.00     0.170 HD
ENDROOT
BRANCH  11  16
HETATM   16  N   UNL     1       8.439  30.086  59.705  1.00  0.00    -0.287 NA
HETATM   17  H   UNL     1       8.195  29.562  60.542  1.00  0.00     0.125 HD
HETATM   18  H   UNL     1       9.444  30.240  59.638  1.00  0.00     0.125 HD
ENDBRANCH  11  16
BRANCH   2  19
HETATM   19  C   UNL     1       6.539  26.640  54.423  1.00  0.00    -0.024 A 
HETATM   20  C   UNL     1       5.902  25.444  54.793  1.00  0.00     0.014 A 
HETATM   21  C   UNL     1       6.296  24.223  54.238  1.00  0.00     0.024 A 
HETATM   22  C   UNL     1       7.337  24.187  53.315  1.00  0.00     0.034 A 
HETATM   23 CL   UNL     1       7.825  22.684  52.633  1.00  0.00    -0.084 Cl
HETATM   24  C   UNL     1       7.990  25.360  52.942  1.00  0.00     0.024 A 
HETATM   25  C   UNL     1       7.591  26.581  53.493  1.00  0.00     0.014 A 
ENDBRANCH   2  19
BRANCH   1  26
HETATM   26  C   UNL     1       4.511  28.259  53.131  1.00  0.00     0.296 C 
HETATM   27  O   UNL     1       3.463  27.644  53.068  1.00  0.00    -0.259 OA
BRANCH  26  28
HETATM   28  O   UNL     1       5.335  28.625  52.124  1.00  0.00    -0.318 OA
BRANCH  28  29
HETATM   29  C   UNL     1       4.965  28.183  50.808  1.00  0.00     0.174 C 
HETATM   30  C   UNL     1       5.397  26.740  50.638  1.00  0.00     0.034 C 
ENDBRANCH  28  29
ENDBRANCH  26  28
ENDBRANCH   1  26
TORSDOF 5
ENDMDL
MODEL 4
REMARK VINA RESULT:      -7.6      3.826      6.893
REMARK  5 active torsions:
REMARK  status: ('A' for Active; 'I' for Inactive)
REMARK    1  A    between atoms: C_2  and  O_3 
REMARK    2  A    between atoms: O_3  and  C_4 
REMARK    3  A    between atoms: C_4  and  C_5 
REMARK    4  A    between atoms: C_6  and  C_7 
REMARK    5  A    between atoms: C_22  and  N_23 
ROOT
HETATM    1  C   UNL     1       6.768  28.008  56.128  1.00  0.00     0.075 A 
HETATM    2  C   UNL     1       6.281  27.127  55.139  1.00  0.00     0.011 A 
HETATM    3  C   UNL     1       5.268  27.613  54.284  1.00  0.00     0.074 A 
HETATM    4  C   UNL     1       4.798  28.916  54.457  1.00  0.00     0.096 A 
HETATM    5  N   UNL     1       5.277  29.749  55.414  1.00  0.00    -0.250 NA
HETATM    6  C   UNL     1       6.248  29.297  56.243  1.00  0.00     0.048 A 
HETATM    7  C   UNL     1       6.724  30.267  57.286  1.00  0.00     0.071 C 
HETATM    8  C   UNL     1       4.652  26.823  53.184  1.00  0.00     0.260 A 
HETATM    9  O   UNL     1       5.002  25.689  52.887  1.00  0.00    -0.267 OA
HETATM   10  N   UNL     1       3.638  27.427  52.478  1.00  0.00    -0.312 N 
HETATM   11  C   UNL     1       3.170  28.701  52.645  1.00  0.00     0.102 A 
HETATM   12  C   UNL     1       3.732  29.466  53.606  1.00  0.00     0.098 A 
HETATM   13  C   UNL     1       3.288  30.905  53.815  1.00  0.00     0.025 C 
HETATM   14  N   UNL     1       2.922  32.098  53.988  1.00  0.00    -0.096 N 
HETATM   15  H   UNL     1       3.267  26.872  51.717  1.00  0.00     0.170 HD
ENDROOT
BRANCH  11  16
HETATM   16  N   UNL     1       2.166  29.102  51.798  1.00  0.00    -0.287 NA
HETATM   17  H   UNL     1       1.472  28.383  51.614  1.00  0.00     0.125 HD
HETATM   18  H   UNL     1       1.731  29.998  52.015  1.00  0.00     0.125 HD
ENDBRANCH  11  16
BRANCH   2  19
HETATM   19  C   UNL     1       6.832  25.765  55.035  1.00  0.00    -0.024 A 
HETATM   20  C   UNL     1       6.446  24.764  55.941  1.00  0.00     0.014 A 
HETATM   21  C   UNL     1       6.974  23.473  55.847  1.00  0.00     0.024 A 
HETATM   22  C   UNL     1       7.902  23.176  54.853  1.00  0.00     0.034 A 
HETATM   23 CL   UNL     1       8.556  21.588  54.740  1.00  0.00    -0.084 Cl
HETATM   24  C   UNL     1       8.308  24.157  53.952  1.00  0.00     0.024 A 
HETATM   25  C   UNL     1       7.774  25.446  54.042  1.00  0.00     0.014 A 
ENDBRANCH   2  19
BRANCH   1  26
HETATM   26  C   UNL     1       7.786  27.569  57.094  1.00  0.00     0.296 C 
HETATM   27  O   UNL     1       7.521  27.113  58.191  1.00  0.00    -0.259 OA
BRANCH  26  28
HETATM   28  O   UNL     1       9.001  27.809  56.553  1.00  0.00    -0.318 OA
BRANCH  28  29
HETATM   29  C   UNL     1       9.766  28.867  57.152  1.00  0.00     0.174 C 
HETATM   30  C   UNL     1      10.263  29.790  56.058  1.00  0.00     0.034 C 
ENDBRANCH  28  29
ENDBRANCH  26  28
ENDBRANCH   1  26
TORSDOF 5
ENDMDL
MODEL 5
REMARK VINA RESULT:      -7.6      6.808      9.695
REMARK  5 active torsions:
REMARK  status: ('A' for Active; 'I' for Inactive)
REMARK    1  A    between atoms: C_2  and  O_3 
REMARK    2  A    between atoms: O_3  and  C_4 
REMARK    3  A    between atoms: C_4  and  C_5 
REMARK    4  A    between atoms: C_6  and  C_7 
REMARK    5  A    between atoms: C_22  and  N_23 
ROOT
HETATM    1  C   UNL     1       5.528  32.418  59.717  1.00  0.00     0.075 A 
HETATM    2  C   UNL     1       6.746  32.140  60.373  1.00  0.00     0.011 A 
HETATM    3  C   UNL     1       6.826  32.457  61.747  1.00  0.00     0.074 A 
HETATM    4  C   UNL     1       5.721  33.026  62.382  1.00  0.00     0.096 A 
HETATM    5  N   UNL     1       4.558  33.287  61.735  1.00  0.00    -0.250 NA
HETATM    6  C   UNL     1       4.465  32.991  60.416  1.00  0.00     0.048 A 
HETATM    7  C   UNL     1       3.153  33.317  59.762  1.00  0.00     0.071 C 
HETATM    8  C   UNL     1       8.029  32.220  62.590  1.00  0.00     0.260 A 
HETATM    9  O   UNL     1       9.048  31.682  62.179  1.00  0.00    -0.267 OA
HETATM   10  N   UNL     1       7.962  32.635  63.899  1.00  0.00    -0.312 N 
HETATM   11  C   UNL     1       6.883  33.198  64.525  1.00  0.00     0.102 A 
HETATM   12  C   UNL     1       5.758  33.391  63.805  1.00  0.00     0.098 A 
HETATM   13  C   UNL     1       4.510  33.971  64.451  1.00  0.00     0.025 C 
HETATM   14  N   UNL     1       3.474  34.451  64.987  1.00  0.00    -0.096 N 
HETATM   15  H   UNL     1       8.786  32.427  64.450  1.00  0.00     0.170 HD
ENDROOT
BRANCH  11  16
HETATM   16  N   UNL     1       7.037  33.505  65.855  1.00  0.00    -0.287 NA
HETATM   17  H   UNL     1       6.924  34.494  66.064  1.00  0.00     0.125 HD
HETATM   18  H   UNL     1       6.520  32.921  66.511  1.00  0.00     0.125 HD
ENDBRANCH  11  16
BRANCH   2  19
HETATM   19  C   UNL     1       7.863  31.545  59.621  1.00  0.00    -0.024 A 
HETATM   20  C   UNL     1       8.989  32.313  59.281  1.00  0.00     0.014 A 
HETATM   21  C   UNL     1      10.047  31.751  58.560  1.00  0.00     0.024 A 
HETATM   22  C   UNL     1       9.982  30.418  58.164  1.00  0.00     0.034 A 
HETATM   23 CL   UNL     1      11.282  29.726  57.274  1.00  0.00    -0.084 Cl
HETATM   24  C   UNL     1       8.870  29.642  58.481  1.00  0.00     0.024 A 
HETATM   25  C   UNL     1       7.816  30.203  59.207  1.00  0.00     0.014 A 
ENDBRANCH   2  19
BRANCH   1  26
HETATM   26  C   UNL     1       5.372  32.170  58.277  1.00  0.00     0.296 C 
HETATM   27  O   UNL     1       5.736  32.948  57.416  1.00  0.00    -0.259 OA
BRANCH  26  28
HETATM   28  O   UNL     1       4.735  30.987  58.128  1.00  0.00    -0.318 OA
BRANCH  28  29
HETATM   29  C   UNL     1       4.684  30.455  56.794  1.00  0.00     0.174 C 
HETATM   30  C   UNL     1       5.232  29.042  56.811  1.00  0.00     0.034 C 
ENDBRANCH  28  29
ENDBRANCH  26  28
ENDBRANCH   1  26
TORSDOF 5
ENDMDL
MODEL 6
REMARK VINA RESULT:      -7.2      4.354      6.921
REMARK  5 active torsions:
REMARK  status: ('A' for Active; 'I' for Inactive)
REMARK    1  A    between atoms: C_2  and  O_3 
REMARK    2  A    between atoms: O_3  and  C_4 
REMARK    3  A    between atoms: C_4  and  C_5 
REMARK    4  A    between atoms: C_6  and  C_7 
REMARK    5  A    between atoms: C_22  and  N_23 
ROOT
HETATM    1  C   UNL     1       4.726  29.358  52.668  1.00  0.00     0.075 A 
HETATM    2  C   UNL     1       5.032  28.528  53.768  1.00  0.00     0.011 A 
HETATM    3  C   UNL     1       4.735  29.027  55.055  1.00  0.00     0.074 A 
HETATM    4  C   UNL     1       4.170  30.297  55.181  1.00  0.00     0.096 A 
HETATM    5  N   UNL     1       3.884  31.082  54.112  1.00  0.00    -0.250 NA
HETATM    6  C   UNL     1       4.164  30.619  52.871  1.00  0.00     0.048 A 
HETATM    7  C   UNL     1       3.832  31.544  51.736  1.00  0.00     0.071 C 
HETATM    8  C   UNL     1       4.982  28.280  56.318  1.00  0.00     0.260 A 
HETATM    9  O   UNL     1       5.423  27.140  56.355  1.00  0.00    -0.267 OA
HETATM   10  N   UNL     1       4.686  28.931  57.493  1.00  0.00    -0.312 N 
HETATM   11  C   UNL     1       4.137  30.177  57.623  1.00  0.00     0.102 A 
HETATM   12  C   UNL     1       3.859  30.871  56.498  1.00  0.00     0.098 A 
HETATM   13  C   UNL     1       3.207  32.243  56.571  1.00  0.00     0.025 C 
HETATM   14  N   UNL     1       2.667  33.380  56.630  1.00  0.00    -0.096 N 
HETATM   15  H   UNL     1       4.835  28.380  58.329  1.00  0.00     0.170 HD
ENDROOT
BRANCH  11  16
HETATM   16  N   UNL     1       3.898  30.612  58.903  1.00  0.00    -0.287 NA
HETATM   17  H   UNL     1       4.077  31.604  59.040  1.00  0.00     0.125 HD
HETATM   18  H   UNL     1       3.007  30.332  59.310  1.00  0.00     0.125 HD
ENDBRANCH  11  16
BRANCH   2  19
HETATM   19  C   UNL     1       5.634  27.204  53.541  1.00  0.00    -0.024 A 
HETATM   20  C   UNL     1       7.029  27.050  53.484  1.00  0.00     0.014 A 
HETATM   21  C   UNL     1       7.602  25.795  53.260  1.00  0.00     0.024 A 
HETATM   22  C   UNL     1       6.783  24.684  53.081  1.00  0.00     0.034 A 
HETATM   23 CL   UNL     1       7.487  23.138  52.803  1.00  0.00    -0.084 Cl
HETATM   24  C   UNL     1       5.397  24.815  53.123  1.00  0.00     0.024 A 
HETATM   25  C   UNL     1       4.826  26.070  53.352  1.00  0.00     0.014 A 
ENDBRANCH   2  19
BRANCH   1  26
HETATM   26  C   UNL     1       5.049  28.942  51.296  1.00  0.00     0.296 C 
HETATM   27  O   UNL     1       6.098  29.208  50.740  1.00  0.00    -0.259 OA
BRANCH  26  28
HETATM   28  O   UNL     1       3.977  28.283  50.801  1.00  0.00    -0.318 OA
BRANCH  28  29
HETATM   29  C   UNL     1       4.139  27.689  49.503  1.00  0.00     0.174 C 
HETATM   30  C   UNL     1       4.646  26.271  49.675  1.00  0.00     0.034 C 
ENDBRANCH  28  29
ENDBRANCH  26  28
ENDBRANCH   1  26
TORSDOF 5
ENDMDL
MODEL 7
REMARK VINA RESULT:      -7.2      4.665      7.632
REMARK  5 active torsions:
REMARK  status: ('A' for Active; 'I' for Inactive)
REMARK    1  A    between atoms: C_2  and  O_3 
REMARK    2  A    between atoms: O_3  and  C_4 
REMARK    3  A    between atoms: C_4  and  C_5 
REMARK    4  A    between atoms: C_6  and  C_7 
REMARK    5  A    between atoms: C_22  and  N_23 
ROOT
HETATM    1  C   UNL     1       4.964  28.475  53.780  1.00  0.00     0.075 A 
HETATM    2  C   UNL     1       5.031  27.565  52.704  1.00  0.00     0.011 A 
HETATM    3  C   UNL     1       4.270  27.869  51.553  1.00  0.00     0.074 A 
HETATM    4  C   UNL     1       3.496  29.030  51.534  1.00  0.00     0.096 A 
HETATM    5  N   UNL     1       3.443  29.893  52.579  1.00  0.00    -0.250 NA
HETATM    6  C   UNL     1       4.165  29.615  53.691  1.00  0.00     0.048 A 
HETATM    7  C   UNL     1       4.051  30.608  54.812  1.00  0.00     0.071 C 
HETATM    8  C   UNL     1       4.235  27.025  50.328  1.00  0.00     0.260 A 
HETATM    9  O   UNL     1       4.903  26.010  50.185  1.00  0.00    -0.267 OA
HETATM   10  N   UNL     1       3.401  27.436  49.315  1.00  0.00    -0.312 N 
HETATM   11  C   UNL     1       2.636  28.570  49.292  1.00  0.00     0.102 A 
HETATM   12  C   UNL     1       2.672  29.384  50.369  1.00  0.00     0.098 A 
HETATM   13  C   UNL     1       1.881  30.682  50.391  1.00  0.00     0.025 C 
HETATM   14  N   UNL     1       1.226  31.759  50.410  1.00  0.00    -0.096 N 
HETATM   15  H   UNL     1       3.428  26.856  48.485  1.00  0.00     0.170 HD
ENDROOT
BRANCH  11  16
HETATM   16  N   UNL     1       1.901  28.792  48.154  1.00  0.00    -0.287 NA
HETATM   17  H   UNL     1       0.962  28.404  48.189  1.00  0.00     0.125 HD
HETATM   18  H   UNL     1       1.898  29.750  47.805  1.00  0.00     0.125 HD
ENDBRANCH  11  16
BRANCH   2  19
HETATM   19  C   UNL     1       5.869  26.360  52.814  1.00  0.00    -0.024 A 
HETATM   20  C   UNL     1       7.220  26.387  52.429  1.00  0.00     0.014 A 
HETATM   21  C   UNL     1       8.014  25.240  52.525  1.00  0.00     0.024 A 
HETATM   22  C   UNL     1       7.461  24.054  52.999  1.00  0.00     0.034 A 
HETATM   23 CL   UNL     1       8.438  22.642  53.116  1.00  0.00    -0.084 Cl
HETATM   24  C   UNL     1       6.122  24.002  53.377  1.00  0.00     0.024 A 
HETATM   25  C   UNL     1       5.330  25.150  53.285  1.00  0.00     0.014 A 
ENDBRANCH   2  19
BRANCH   1  26
HETATM   26  C   UNL     1       5.681  28.212  55.036  1.00  0.00     0.296 C 
HETATM   27  O   UNL     1       6.826  28.566  55.245  1.00  0.00    -0.259 OA
BRANCH  26  28
HETATM   28  O   UNL     1       4.860  27.497  55.838  1.00  0.00    -0.318 OA
BRANCH  28  29
HETATM   29  C   UNL     1       5.472  26.873  56.978  1.00  0.00     0.174 C 
HETATM   30  C   UNL     1       5.149  25.392  56.956  1.00  0.00     0.034 C 
ENDBRANCH  28  29
ENDBRANCH  26  28
ENDBRANCH   1  26
TORSDOF 5
ENDMDL
MODEL 8
REMARK VINA RESULT:      -7.0      4.232      7.476
REMARK  5 active torsions:
REMARK  status: ('A' for Active; 'I' for Inactive)
REMARK    1  A    between atoms: C_2  and  O_3 
REMARK    2  A    between atoms: O_3  and  C_4 
REMARK    3  A    between atoms: C_4  and  C_5 
REMARK    4  A    between atoms: C_6  and  C_7 
REMARK    5  A    between atoms: C_22  and  N_23 
ROOT
HETATM    1  C   UNL     1       6.319  28.492  55.449  1.00  0.00     0.075 A 
HETATM    2  C   UNL     1       5.874  27.870  54.263  1.00  0.00     0.011 A 
HETATM    3  C   UNL     1       4.916  28.563  53.491  1.00  0.00     0.074 A 
HETATM    4  C   UNL     1       4.456  29.806  53.930  1.00  0.00     0.096 A 
HETATM    5  N   UNL     1       4.895  30.388  55.073  1.00  0.00    -0.250 NA
HETATM    6  C   UNL     1       5.813  29.736  55.826  1.00  0.00     0.048 A 
HETATM    7  C   UNL     1       6.245  30.434  57.083  1.00  0.00     0.071 C 
HETATM    8  C   UNL     1       4.349  28.056  52.212  1.00  0.00     0.260 A 
HETATM    9  O   UNL     1       4.698  27.010  51.684  1.00  0.00    -0.267 OA
HETATM   10  N   UNL     1       3.385  28.831  51.610  1.00  0.00    -0.312 N 
HETATM   11  C   UNL     1       2.927  30.047  52.038  1.00  0.00     0.102 A 
HETATM   12  C   UNL     1       3.447  30.560  53.173  1.00  0.00     0.098 A 
HETATM   13  C   UNL     1       3.014  31.927  53.679  1.00  0.00     0.025 C 
HETATM   14  N   UNL     1       2.656  33.060  54.099  1.00  0.00    -0.096 N 
HETATM   15  H   UNL     1       3.047  28.472  50.726  1.00  0.00     0.170 HD
ENDROOT
BRANCH  11  16
HETATM   16  N   UNL     1       1.977  30.655  51.254  1.00  0.00    -0.287 NA
HETATM   17  H   UNL     1       1.718  31.586  51.570  1.00  0.00     0.125 HD
HETATM   18  H   UNL     1       2.147  30.634  50.250  1.00  0.00     0.125 HD
ENDBRANCH  11  16
BRANCH   2  19
HETATM   19  C   UNL     1       6.409  26.552  53.882  1.00  0.00    -0.024 A 
HETATM   20  C   UNL     1       7.599  26.447  53.143  1.00  0.00     0.014 A 
HETATM   21  C   UNL     1       8.103  25.196  52.774  1.00  0.00     0.024 A 
HETATM   22  C   UNL     1       7.415  24.041  53.131  1.00  0.00     0.034 A 
HETATM   23 CL   UNL     1       8.033  22.501  52.674  1.00  0.00    -0.084 Cl
HETATM   24  C   UNL     1       6.228  24.122  53.854  1.00  0.00     0.024 A 
HETATM   25  C   UNL     1       5.727  25.372  54.228  1.00  0.00     0.014 A 
ENDBRANCH   2  19
BRANCH   1  26
HETATM   26  C   UNL     1       7.276  27.820  56.340  1.00  0.00     0.296 C 
HETATM   27  O   UNL     1       8.474  28.033  56.327  1.00  0.00    -0.259 OA
BRANCH  26  28
HETATM   28  O   UNL     1       6.586  26.937  57.096  1.00  0.00    -0.318 OA
BRANCH  28  29
HETATM   29  C   UNL     1       7.368  26.055  57.917  1.00  0.00     0.174 C 
HETATM   30  C   UNL     1       7.710  24.816  57.114  1.00  0.00     0.034 C 
ENDBRANCH  28  29
ENDBRANCH  26  28
ENDBRANCH   1  26
TORSDOF 5
ENDMDL
MODEL 9
REMARK VINA RESULT:      -6.9      9.802     13.026
REMARK  5 active torsions:
REMARK  status: ('A' for Active; 'I' for Inactive)
REMARK    1  A    between atoms: C_2  and  O_3 
REMARK    2  A    between atoms: O_3  and  C_4 
REMARK    3  A    between atoms: C_4  and  C_5 
REMARK    4  A    between atoms: C_6  and  C_7 
REMARK    5  A    between atoms: C_22  and  N_23 
ROOT
HETATM    1  C   UNL     1       5.167  33.381  62.526  1.00  0.00     0.075 A 
HETATM    2  C   UNL     1       5.103  34.509  63.371  1.00  0.00     0.011 A 
HETATM    3  C   UNL     1       4.820  35.753  62.767  1.00  0.00     0.074 A 
HETATM    4  C   UNL     1       4.626  35.811  61.386  1.00  0.00     0.096 A 
HETATM    5  N   UNL     1       4.692  34.716  60.588  1.00  0.00    -0.250 NA
HETATM    6  C   UNL     1       4.965  33.515  61.153  1.00  0.00     0.048 A 
HETATM    7  C   UNL     1       5.034  32.349  60.210  1.00  0.00     0.071 C 
HETATM    8  C   UNL     1       4.706  37.037  63.511  1.00  0.00     0.260 A 
HETATM    9  O   UNL     1       4.800  37.125  64.727  1.00  0.00    -0.267 OA
HETATM   10  N   UNL     1       4.477  38.169  62.764  1.00  0.00    -0.312 N 
HETATM   11  C   UNL     1       4.291  38.233  61.410  1.00  0.00     0.102 A 
HETATM   12  C   UNL     1       4.346  37.084  60.704  1.00  0.00     0.098 A 
HETATM   13  C   UNL     1       4.104  37.079  59.203  1.00  0.00     0.025 C 
HETATM   14  N   UNL     1       3.903  37.075  57.959  1.00  0.00    -0.096 N 
HETATM   15  H   UNL     1       4.373  39.017  63.306  1.00  0.00     0.170 HD
ENDROOT
BRANCH  11  16
HETATM   16  N   UNL     1       4.046  39.477  60.883  1.00  0.00    -0.287 NA
HETATM   17  H   UNL     1       4.691  40.194  61.204  1.00  0.00     0.125 HD
HETATM   18  H   UNL     1       3.914  39.516  59.873  1.00  0.00     0.125 HD
ENDBRANCH  11  16
BRANCH   2  19
HETATM   19  C   UNL     1       5.329  34.354  64.818  1.00  0.00    -0.024 A 
HETATM   20  C   UNL     1       4.247  34.207  65.702  1.00  0.00     0.014 A 
HETATM   21  C   UNL     1       4.461  34.069  67.077  1.00  0.00     0.024 A 
HETATM   22  C   UNL     1       5.758  34.087  67.580  1.00  0.00     0.034 A 
HETATM   23 CL   UNL     1       6.022  33.919  69.273  1.00  0.00    -0.084 Cl
HETATM   24  C   UNL     1       6.845  34.242  66.723  1.00  0.00     0.024 A 
HETATM   25  C   UNL     1       6.631  34.375  65.348  1.00  0.00     0.014 A 
ENDBRANCH   2  19
BRANCH   1  26
HETATM   26  C   UNL     1       5.508  32.055  63.062  1.00  0.00     0.296 C 
HETATM   27  O   UNL     1       4.682  31.202  63.327  1.00  0.00    -0.259 OA
BRANCH  26  28
HETATM   28  O   UNL     1       6.849  32.009  63.230  1.00  0.00    -0.318 OA
BRANCH  28  29
HETATM   29  C   UNL     1       7.574  31.159  62.328  1.00  0.00     0.174 C 
HETATM   30  C   UNL     1       8.864  31.851  61.936  1.00  0.00     0.034 C 
ENDBRANCH  28  29
ENDBRANCH  26  28
ENDBRANCH   1  26
TORSDOF 5
ENDMDL
MODEL 10
REMARK VINA RESULT:      -6.9      3.772      6.437
REMARK  5 active torsions:
REMARK  status: ('A' for Active; 'I' for Inactive)
REMARK    1  A    between atoms: C_2  and  O_3 
REMARK    2  A    between atoms: O_3  and  C_4 
REMARK    3  A    between atoms: C_4  and  C_5 
REMARK    4  A    between atoms: C_6  and  C_7 
REMARK    5  A    between atoms: C_22  and  N_23 
ROOT
HETATM    1  C   UNL     1       4.727  28.576  54.033  1.00  0.00     0.075 A 
HETATM    2  C   UNL     1       5.293  27.419  53.458  1.00  0.00     0.011 A 
HETATM    3  C   UNL     1       5.121  27.237  52.068  1.00  0.00     0.074 A 
HETATM    4  C   UNL     1       4.406  28.189  51.340  1.00  0.00     0.096 A 
HETATM    5  N   UNL     1       3.867  29.296  51.909  1.00  0.00    -0.250 NA
HETATM    6  C   UNL     1       4.022  29.484  53.242  1.00  0.00     0.048 A 
HETATM    7  C   UNL     1       3.390  30.723  53.807  1.00  0.00     0.071 C 
HETATM    8  C   UNL     1       5.662  26.081  51.303  1.00  0.00     0.260 A 
HETATM    9  O   UNL     1       6.350  25.201  51.802  1.00  0.00    -0.267 OA
HETATM   10  N   UNL     1       5.359  26.027  49.963  1.00  0.00    -0.312 N 
HETATM   11  C   UNL     1       4.654  26.954  49.244  1.00  0.00     0.102 A 
HETATM   12  C   UNL     1       4.182  28.039  49.894  1.00  0.00     0.098 A 
HETATM   13  C   UNL     1       3.430  29.128  49.147  1.00  0.00     0.025 C 
HETATM   14  N   UNL     1       2.807  30.032  48.528  1.00  0.00    -0.096 N 
HETATM   15  H   UNL     1       5.771  25.245  49.469  1.00  0.00     0.170 HD
ENDROOT
BRANCH  11  16
HETATM   16  N   UNL     1       4.501  26.704  47.903  1.00  0.00    -0.287 NA
HETATM   17  H   UNL     1       4.756  27.487  47.307  1.00  0.00     0.125 HD
HETATM   18  H   UNL     1       4.901  25.830  47.564  1.00  0.00     0.125 HD
ENDBRANCH  11  16
BRANCH   2  19
HETATM   19  C   UNL     1       6.026  26.463  54.306  1.00  0.00    -0.024 A 
HETATM   20  C   UNL     1       5.361  25.387  54.916  1.00  0.00     0.014 A 
HETATM   21  C   UNL     1       6.054  24.485  55.728  1.00  0.00     0.024 A 
HETATM   22  C   UNL     1       7.418  24.658  55.944  1.00  0.00     0.034 A 
HETATM   23 CL   UNL     1       8.272  23.549  56.946  1.00  0.00    -0.084 Cl
HETATM   24  C   UNL     1       8.096  25.724  55.359  1.00  0.00     0.024 A 
HETATM   25  C   UNL     1       7.403  26.622  54.542  1.00  0.00     0.014 A 
ENDBRANCH   2  19
BRANCH   1  26
HETATM   26  C   UNL     1       4.812  28.819  55.480  1.00  0.00     0.296 C 
HETATM   27  O   UNL     1       3.961  28.464  56.274  1.00  0.00    -0.259 OA
BRANCH  26  28
HETATM   28  O   UNL     1       5.944  29.519  55.715  1.00  0.00    -0.318 OA
BRANCH  28  29
HETATM   29  C   UNL     1       6.265  29.764  57.094  1.00  0.00     0.174 C 
HETATM   30  C   UNL     1       7.246  28.707  57.562  1.00  0.00     0.034 C 
ENDBRANCH  28  29
ENDBRANCH  26  28
ENDBRANCH   1  26
TORSDOF 5
ENDMDL
