MODEL 1
REMARK VINA RESULT:      -9.0      0.000      0.000
REMARK  3 active torsions:
REMARK  status: ('A' for Active; 'I' for Inactive)
REMARK    1  A    between atoms: C_5  and  N_6 
REMARK       I    between atoms: N_6  and  C_7 
REMARK    2  A    between atoms: C_7  and  C_8 
REMARK    3  A    between atoms: C_13  and  O_14 
ROOT
HETATM    1  C   UNL     1       5.543  26.459  51.183  1.00  0.00     0.001 A 
HETATM    2  C   UNL     1       6.285  25.309  51.469  1.00  0.00     0.013 A 
HETATM    3  C   UNL     1       6.429  24.931  52.793  1.00  0.00    -0.017 A 
HETATM    4  C   UNL     1       5.842  25.696  53.827  1.00  0.00    -0.020 A 
HETATM    5  C   UNL     1       6.127  25.058  55.177  1.00  0.00     0.153 A 
HETATM    6  C   UNL     1       6.947  23.841  54.782  1.00  0.00    -0.020 A 
HETATM    7  C   UNL     1       7.105  23.792  53.378  1.00  0.00    -0.017 A 
HETATM    8  C   UNL     1       7.483  22.861  55.604  1.00  0.00     0.010 A 
HETATM    9  C   UNL     1       8.189  21.816  55.006  1.00  0.00     0.001 A 
HETATM   10  C   UNL     1       8.347  21.763  53.611  1.00  0.00     0.001 A 
HETATM   11  C   UNL     1       7.803  22.753  52.787  1.00  0.00     0.013 A 
HETATM   12  C   UNL     1       5.093  26.830  53.548  1.00  0.00     0.010 A 
HETATM   13  C   UNL     1       4.951  27.212  52.212  1.00  0.00     0.001 A 
ENDROOT
BRANCH   5  14
HETATM   14  N   UNL     1       6.909  25.943  56.014  1.00  0.00    -0.346 N 
HETATM   15  C   UNL     1       6.336  26.738  56.968  1.00  0.00     0.249 C 
HETATM   16  O   UNL     1       5.122  26.818  57.138  1.00  0.00    -0.271 OA
HETATM   17  H   UNL     1       7.890  26.047  55.758  1.00  0.00     0.163 HD
BRANCH  15  18
HETATM   18  C   UNL     1       7.283  27.687  57.723  1.00  0.00     0.279 C 
HETATM   19  N   UNL     1       6.645  29.059  57.891  1.00  0.00    -0.060 N 
HETATM   20  H   UNL     1       5.873  29.127  57.208  1.00  0.00     0.278 HD
HETATM   21  H   UNL     1       6.230  29.178  58.823  1.00  0.00     0.278 HD
HETATM   22  C   UNL     1       7.681  30.081  57.537  1.00  0.00     0.264 C 
HETATM   23  C   UNL     1       8.503  29.350  56.477  1.00  0.00     0.146 C 
HETATM   24  C   UNL     1       8.642  27.957  57.071  1.00  0.00     0.076 C 
BRANCH  23  25
HETATM   25  O   UNL     1       7.742  29.238  55.273  1.00  0.00    -0.394 OA
HETATM   26  H   UNL     1       7.112  29.988  55.237  1.00  0.00     0.210 HD
ENDBRANCH  23  25
ENDBRANCH  15  18
ENDBRANCH   5  14
TORSDOF 3
ENDMDL
MODEL 2
REMARK VINA RESULT:      -8.8      2.550      5.239
REMARK  3 active torsions:
REMARK  status: ('A' for Active; 'I' for Inactive)
REMARK    1  A    between atoms: C_5  and  N_6 
REMARK       I    between atoms: N_6  and  C_7 
REMARK    2  A    between atoms: C_7  and  C_8 
REMARK    3  A    between atoms: C_13  and  O_14 
ROOT
HETATM    1  C   UNL     1       7.603  25.767  57.724  1.00  0.00     0.001 A 
HETATM    2  C   UNL     1       7.683  24.453  57.254  1.00  0.00     0.013 A 
HETATM    3  C   UNL     1       7.656  24.240  55.887  1.00  0.00    -0.017 A 
HETATM    4  C   UNL     1       7.544  25.328  54.992  1.00  0.00    -0.020 A 
HETATM    5  C   UNL     1       7.561  24.829  53.556  1.00  0.00     0.153 A 
HETATM    6  C   UNL     1       7.693  23.328  53.747  1.00  0.00    -0.020 A 
HETATM    7  C   UNL     1       7.750  23.013  55.124  1.00  0.00    -0.017 A 
HETATM    8  C   UNL     1       7.776  22.341  52.776  1.00  0.00     0.010 A 
HETATM    9  C   UNL     1       7.917  21.017  53.196  1.00  0.00     0.001 A 
HETATM   10  C   UNL     1       7.975  20.700  54.563  1.00  0.00     0.001 A 
HETATM   11  C   UNL     1       7.892  21.699  55.538  1.00  0.00     0.013 A 
HETATM   12  C   UNL     1       7.478  26.636  55.452  1.00  0.00     0.010 A 
HETATM   13  C   UNL     1       7.503  26.849  56.831  1.00  0.00     0.001 A 
ENDROOT
BRANCH   5  14
HETATM   14  N   UNL     1       6.318  25.144  52.883  1.00  0.00    -0.346 N 
HETATM   15  C   UNL     1       6.160  26.281  52.140  1.00  0.00     0.249 C 
HETATM   16  O   UNL     1       7.024  27.149  52.045  1.00  0.00    -0.271 OA
HETATM   17  H   UNL     1       5.525  24.546  53.111  1.00  0.00     0.163 HD
BRANCH  15  18
HETATM   18  C   UNL     1       4.759  26.522  51.553  1.00  0.00     0.279 C 
HETATM   19  N   UNL     1       4.581  25.747  50.254  1.00  0.00    -0.060 N 
HETATM   20  H   UNL     1       5.523  25.492  49.915  1.00  0.00     0.278 HD
HETATM   21  H   UNL     1       4.067  24.870  50.398  1.00  0.00     0.278 HD
HETATM   22  C   UNL     1       3.957  26.677  49.260  1.00  0.00     0.264 C 
HETATM   23  C   UNL     1       4.520  28.030  49.689  1.00  0.00     0.146 C 
HETATM   24  C   UNL     1       4.404  27.970  51.204  1.00  0.00     0.076 C 
BRANCH  23  25
HETATM   25  O   UNL     1       5.909  28.098  49.360  1.00  0.00    -0.394 OA
HETATM   26  H   UNL     1       6.294  28.877  49.815  1.00  0.00     0.210 HD
ENDBRANCH  23  25
ENDBRANCH  15  18
ENDBRANCH   5  14
TORSDOF 3
ENDMDL
MODEL 3
REMARK VINA RESULT:      -8.6      2.516      5.232
REMARK  3 active torsions:
REMARK  status: ('A' for Active; 'I' for Inactive)
REMARK    1  A    between atoms: C_5  and  N_6 
REMARK       I    between atoms: N_6  and  C_7 
REMARK    2  A    between atoms: C_7  and  C_8 
REMARK    3  A    between atoms: C_13  and  O_14 
ROOT
HETATM    1  C   UNL     1       9.169  20.831  53.974  1.00  0.00     0.001 A 
HETATM    2  C   UNL     1       9.230  21.751  55.025  1.00  0.00     0.013 A 
HETATM    3  C   UNL     1       8.342  22.813  55.022  1.00  0.00    -0.017 A 
HETATM    4  C   UNL     1       7.402  22.962  53.977  1.00  0.00    -0.020 A 
HETATM    5  C   UNL     1       6.536  24.186  54.222  1.00  0.00     0.153 A 
HETATM    6  C   UNL     1       7.100  24.713  55.530  1.00  0.00    -0.020 A 
HETATM    7  C   UNL     1       8.155  23.885  55.976  1.00  0.00    -0.017 A 
HETATM    8  C   UNL     1       6.690  25.819  56.261  1.00  0.00     0.010 A 
HETATM    9  C   UNL     1       7.352  26.097  57.457  1.00  0.00     0.001 A 
HETATM   10  C   UNL     1       8.401  25.277  57.905  1.00  0.00     0.001 A 
HETATM   11  C   UNL     1       8.809  24.162  57.165  1.00  0.00     0.013 A 
HETATM   12  C   UNL     1       7.329  22.044  52.938  1.00  0.00     0.010 A 
HETATM   13  C   UNL     1       8.227  20.975  52.941  1.00  0.00     0.001 A 
ENDROOT
BRANCH   5  14
HETATM   14  N   UNL     1       6.710  25.164  53.168  1.00  0.00    -0.346 N 
HETATM   15  C   UNL     1       5.704  26.006  52.783  1.00  0.00     0.249 C 
HETATM   16  O   UNL     1       4.566  25.952  53.244  1.00  0.00    -0.271 OA
HETATM   17  H   UNL     1       7.575  25.093  52.633  1.00  0.00     0.163 HD
BRANCH  15  18
HETATM   18  C   UNL     1       6.009  26.934  51.594  1.00  0.00     0.279 C 
HETATM   19  N   UNL     1       6.031  28.389  52.042  1.00  0.00    -0.060 N 
HETATM   20  H   UNL     1       5.544  28.441  52.951  1.00  0.00     0.278 HD
HETATM   21  H   UNL     1       6.988  28.729  52.196  1.00  0.00     0.278 HD
HETATM   22  C   UNL     1       5.246  29.177  51.040  1.00  0.00     0.264 C 
HETATM   23  C   UNL     1       4.201  28.162  50.581  1.00  0.00     0.146 C 
HETATM   24  C   UNL     1       5.023  26.892  50.424  1.00  0.00     0.076 C 
BRANCH  23  25
HETATM   25  O   UNL     1       3.253  27.944  51.627  1.00  0.00    -0.394 OA
HETATM   26  H   UNL     1       2.482  27.470  51.248  1.00  0.00     0.210 HD
ENDBRANCH  23  25
ENDBRANCH  15  18
ENDBRANCH   5  14
TORSDOF 3
ENDMDL
MODEL 4
REMARK VINA RESULT:      -8.4      3.448      6.167
REMARK  3 active torsions:
REMARK  status: ('A' for Active; 'I' for Inactive)
REMARK    1  A    between atoms: C_5  and  N_6 
REMARK       I    between atoms: N_6  and  C_7 
REMARK    2  A    between atoms: C_7  and  C_8 
REMARK    3  A    between atoms: C_13  and  O_14 
ROOT
HETATM    1  C   UNL     1       4.756  27.470  56.674  1.00  0.00     0.001 A 
HETATM    2  C   UNL     1       5.434  26.298  56.328  1.00  0.00     0.013 A 
HETATM    3  C   UNL     1       5.831  26.131  55.012  1.00  0.00    -0.017 A 
HETATM    4  C   UNL     1       5.549  27.122  54.045  1.00  0.00    -0.020 A 
HETATM    5  C   UNL     1       6.107  26.708  52.693  1.00  0.00     0.153 A 
HETATM    6  C   UNL     1       6.738  25.363  53.012  1.00  0.00    -0.020 A 
HETATM    7  C   UNL     1       6.562  25.053  54.379  1.00  0.00    -0.017 A 
HETATM    8  C   UNL     1       7.422  24.510  52.158  1.00  0.00     0.010 A 
HETATM    9  C   UNL     1       7.936  23.326  52.689  1.00  0.00     0.001 A 
HETATM   10  C   UNL     1       7.765  23.013  54.048  1.00  0.00     0.001 A 
HETATM   11  C   UNL     1       7.075  23.879  54.903  1.00  0.00     0.013 A 
HETATM   12  C   UNL     1       4.887  28.293  54.385  1.00  0.00     0.010 A 
HETATM   13  C   UNL     1       4.486  28.459  55.712  1.00  0.00     0.001 A 
ENDROOT
BRANCH   5  14
HETATM   14  N   UNL     1       5.047  26.551  51.720  1.00  0.00    -0.346 N 
HETATM   15  C   UNL     1       4.998  27.290  50.570  1.00  0.00     0.249 C 
HETATM   16  O   UNL     1       5.797  28.186  50.310  1.00  0.00    -0.271 OA
HETATM   17  H   UNL     1       4.265  25.962  52.005  1.00  0.00     0.163 HD
BRANCH  15  18
HETATM   18  C   UNL     1       3.768  27.072  49.672  1.00  0.00     0.279 C 
HETATM   19  N   UNL     1       3.699  25.625  49.201  1.00  0.00    -0.060 N 
HETATM   20  H   UNL     1       4.635  25.211  49.337  1.00  0.00     0.278 HD
HETATM   21  H   UNL     1       3.042  25.070  49.763  1.00  0.00     0.278 HD
HETATM   22  C   UNL     1       3.397  25.646  47.735  1.00  0.00     0.264 C 
HETATM   23  C   UNL     1       4.077  26.939  47.286  1.00  0.00     0.146 C 
HETATM   24  C   UNL     1       3.698  27.910  48.393  1.00  0.00     0.076 C 
BRANCH  23  25
HETATM   25  O   UNL     1       5.495  26.771  47.318  1.00  0.00    -0.394 OA
HETATM   26  H   UNL     1       5.690  25.857  47.613  1.00  0.00     0.210 HD
ENDBRANCH  23  25
ENDBRANCH  15  18
ENDBRANCH   5  14
TORSDOF 3
ENDMDL
MODEL 5
REMARK VINA RESULT:      -7.8      1.926      4.077
REMARK  3 active torsions:
REMARK  status: ('A' for Active; 'I' for Inactive)
REMARK    1  A    between atoms: C_5  and  N_6 
REMARK       I    between atoms: N_6  and  C_7 
REMARK    2  A    between atoms: C_7  and  C_8 
REMARK    3  A    between atoms: C_13  and  O_14 
ROOT
HETATM    1  C   UNL     1       7.989  22.537  56.090  1.00  0.00     0.001 A 
HETATM    2  C   UNL     1       7.275  22.961  54.965  1.00  0.00     0.013 A 
HETATM    3  C   UNL     1       7.115  24.320  54.761  1.00  0.00    -0.017 A 
HETATM    4  C   UNL     1       7.657  25.253  55.674  1.00  0.00    -0.020 A 
HETATM    5  C   UNL     1       7.363  26.671  55.212  1.00  0.00     0.153 A 
HETATM    6  C   UNL     1       6.587  26.428  53.928  1.00  0.00    -0.020 A 
HETATM    7  C   UNL     1       6.461  25.041  53.689  1.00  0.00    -0.017 A 
HETATM    8  C   UNL     1       6.063  27.364  53.049  1.00  0.00     0.010 A 
HETATM    9  C   UNL     1       5.401  26.898  51.913  1.00  0.00     0.001 A 
HETATM   10  C   UNL     1       5.274  25.520  51.670  1.00  0.00     0.001 A 
HETATM   11  C   UNL     1       5.805  24.581  52.560  1.00  0.00     0.013 A 
HETATM   12  C   UNL     1       8.378  24.838  56.785  1.00  0.00     0.010 A 
HETATM   13  C   UNL     1       8.537  23.467  56.991  1.00  0.00     0.001 A 
ENDROOT
BRANCH   5  14
HETATM   14  N   UNL     1       6.538  27.370  56.175  1.00  0.00    -0.346 N 
HETATM   15  C   UNL     1       6.659  28.714  56.398  1.00  0.00     0.249 C 
HETATM   16  O   UNL     1       7.515  29.412  55.861  1.00  0.00    -0.271 OA
HETATM   17  H   UNL     1       5.963  26.782  56.778  1.00  0.00     0.163 HD
BRANCH  15  18
HETATM   18  C   UNL     1       5.773  29.302  57.510  1.00  0.00     0.279 C 
HETATM   19  N   UNL     1       4.303  29.228  57.119  1.00  0.00    -0.060 N 
HETATM   20  H   UNL     1       4.262  29.088  56.097  1.00  0.00     0.278 HD
HETATM   21  H   UNL     1       3.831  28.424  57.550  1.00  0.00     0.278 HD
HETATM   22  C   UNL     1       3.688  30.555  57.441  1.00  0.00     0.264 C 
HETATM   23  C   UNL     1       4.858  31.512  57.223  1.00  0.00     0.146 C 
HETATM   24  C   UNL     1       6.016  30.770  57.872  1.00  0.00     0.076 C 
BRANCH  23  25
HETATM   25  O   UNL     1       5.137  31.620  55.826  1.00  0.00    -0.394 OA
HETATM   26  H   UNL     1       4.871  30.781  55.395  1.00  0.00     0.210 HD
ENDBRANCH  23  25
ENDBRANCH  15  18
ENDBRANCH   5  14
TORSDOF 3
ENDMDL
MODEL 6
REMARK VINA RESULT:      -7.8      9.152     11.655
REMARK  3 active torsions:
REMARK  status: ('A' for Active; 'I' for Inactive)
REMARK    1  A    between atoms: C_5  and  N_6 
REMARK       I    between atoms: N_6  and  C_7 
REMARK    2  A    between atoms: C_7  and  C_8 
REMARK    3  A    between atoms: C_13  and  O_14 
ROOT
HETATM    1  C   UNL     1       3.363  34.528  59.814  1.00  0.00     0.001 A 
HETATM    2  C   UNL     1       4.578  33.867  59.613  1.00  0.00     0.013 A 
HETATM    3  C   UNL     1       5.200  33.286  60.704  1.00  0.00    -0.017 A 
HETATM    4  C   UNL     1       4.619  33.366  61.990  1.00  0.00    -0.020 A 
HETATM    5  C   UNL     1       5.483  32.632  63.002  1.00  0.00     0.153 A 
HETATM    6  C   UNL     1       6.624  32.128  62.135  1.00  0.00    -0.020 A 
HETATM    7  C   UNL     1       6.428  32.524  60.792  1.00  0.00    -0.017 A 
HETATM    8  C   UNL     1       7.721  31.369  62.512  1.00  0.00     0.010 A 
HETATM    9  C   UNL     1       8.637  31.003  61.525  1.00  0.00     0.001 A 
HETATM   10  C   UNL     1       8.447  31.393  60.188  1.00  0.00     0.001 A 
HETATM   11  C   UNL     1       7.337  32.158  59.814  1.00  0.00     0.013 A 
HETATM   12  C   UNL     1       3.406  34.010  62.193  1.00  0.00     0.010 A 
HETATM   13  C   UNL     1       2.782  34.598  61.092  1.00  0.00     0.001 A 
ENDROOT
BRANCH   5  14
HETATM   14  N   UNL     1       5.982  33.540  64.014  1.00  0.00    -0.346 N 
HETATM   15  C   UNL     1       5.361  33.697  65.222  1.00  0.00     0.249 C 
HETATM   16  O   UNL     1       4.305  33.142  65.514  1.00  0.00    -0.271 OA
HETATM   17  H   UNL     1       6.737  34.160  63.722  1.00  0.00     0.163 HD
BRANCH  15  18
HETATM   18  C   UNL     1       5.959  34.757  66.163  1.00  0.00     0.279 C 
HETATM   19  N   UNL     1       7.062  34.152  67.020  1.00  0.00    -0.060 N 
HETATM   20  H   UNL     1       6.948  33.127  66.993  1.00  0.00     0.278 HD
HETATM   21  H   UNL     1       7.996  34.359  66.645  1.00  0.00     0.278 HD
HETATM   22  C   UNL     1       6.842  34.616  68.427  1.00  0.00     0.264 C 
HETATM   23  C   UNL     1       5.321  34.746  68.486  1.00  0.00     0.146 C 
HETATM   24  C   UNL     1       4.994  35.409  67.158  1.00  0.00     0.076 C 
BRANCH  23  25
HETATM   25  O   UNL     1       4.728  33.446  68.483  1.00  0.00    -0.394 OA
HETATM   26  H   UNL     1       4.803  33.072  69.386  1.00  0.00     0.210 HD
ENDBRANCH  23  25
ENDBRANCH  15  18
ENDBRANCH   5  14
TORSDOF 3
ENDMDL
MODEL 7
REMARK VINA RESULT:      -7.7      8.566     10.687
REMARK  3 active torsions:
REMARK  status: ('A' for Active; 'I' for Inactive)
REMARK    1  A    between atoms: C_5  and  N_6 
REMARK       I    between atoms: N_6  and  C_7 
REMARK    2  A    between atoms: C_7  and  C_8 
REMARK    3  A    between atoms: C_13  and  O_14 
ROOT
HETATM    1  C   UNL     1       4.395  33.239  58.175  1.00  0.00     0.001 A 
HETATM    2  C   UNL     1       5.648  32.667  58.414  1.00  0.00     0.013 A 
HETATM    3  C   UNL     1       6.017  32.416  59.724  1.00  0.00    -0.017 A 
HETATM    4  C   UNL     1       5.147  32.737  60.791  1.00  0.00    -0.020 A 
HETATM    5  C   UNL     1       5.777  32.342  62.117  1.00  0.00     0.153 A 
HETATM    6  C   UNL     1       7.108  31.761  61.673  1.00  0.00    -0.020 A 
HETATM    7  C   UNL     1       7.219  31.815  60.265  1.00  0.00    -0.017 A 
HETATM    8  C   UNL     1       8.114  31.216  62.457  1.00  0.00     0.010 A 
HETATM    9  C   UNL     1       9.249  30.720  61.816  1.00  0.00     0.001 A 
HETATM   10  C   UNL     1       9.364  30.770  60.416  1.00  0.00     0.001 A 
HETATM   11  C   UNL     1       8.345  31.319  59.631  1.00  0.00     0.013 A 
HETATM   12  C   UNL     1       3.897  33.292  60.558  1.00  0.00     0.010 A 
HETATM   13  C   UNL     1       3.527  33.548  59.237  1.00  0.00     0.001 A 
ENDROOT
BRANCH   5  14
HETATM   14  N   UNL     1       5.988  33.503  62.957  1.00  0.00    -0.346 N 
HETATM   15  C   UNL     1       5.417  33.621  64.194  1.00  0.00     0.249 C 
HETATM   16  O   UNL     1       4.632  32.796  64.655  1.00  0.00    -0.271 OA
HETATM   17  H   UNL     1       6.468  34.288  62.518  1.00  0.00     0.163 HD
BRANCH  15  18
HETATM   18  C   UNL     1       5.665  34.945  64.935  1.00  0.00     0.279 C 
HETATM   19  N   UNL     1       5.679  34.723  66.442  1.00  0.00    -0.060 N 
HETATM   20  H   UNL     1       5.225  33.813  66.624  1.00  0.00     0.278 HD
HETATM   21  H   UNL     1       6.636  34.657  66.810  1.00  0.00     0.278 HD
HETATM   22  C   UNL     1       4.847  35.802  67.061  1.00  0.00     0.264 C 
HETATM   23  C   UNL     1       3.803  36.063  65.978  1.00  0.00     0.146 C 
HETATM   24  C   UNL     1       4.638  36.058  64.708  1.00  0.00     0.076 C 
BRANCH  23  25
HETATM   25  O   UNL     1       2.896  34.961  65.909  1.00  0.00    -0.394 OA
HETATM   26  H   UNL     1       2.668  34.810  64.967  1.00  0.00     0.210 HD
ENDBRANCH  23  25
ENDBRANCH  15  18
ENDBRANCH   5  14
TORSDOF 3
ENDMDL
MODEL 8
REMARK VINA RESULT:      -7.6      2.643      6.189
REMARK  3 active torsions:
REMARK  status: ('A' for Active; 'I' for Inactive)
REMARK    1  A    between atoms: C_5  and  N_6 
REMARK       I    between atoms: N_6  and  C_7 
REMARK    2  A    between atoms: C_7  and  C_8 
REMARK    3  A    between atoms: C_13  and  O_14 
ROOT
HETATM    1  C   UNL     1       8.638  23.944  56.958  1.00  0.00     0.001 A 
HETATM    2  C   UNL     1       8.562  25.270  57.394  1.00  0.00     0.013 A 
HETATM    3  C   UNL     1       7.667  26.119  56.767  1.00  0.00    -0.017 A 
HETATM    4  C   UNL     1       6.856  25.653  55.708  1.00  0.00    -0.020 A 
HETATM    5  C   UNL     1       5.951  26.769  55.211  1.00  0.00     0.153 A 
HETATM    6  C   UNL     1       6.349  27.923  56.116  1.00  0.00    -0.020 A 
HETATM    7  C   UNL     1       7.355  27.510  57.019  1.00  0.00    -0.017 A 
HETATM    8  C   UNL     1       5.842  29.213  56.138  1.00  0.00     0.010 A 
HETATM    9  C   UNL     1       6.355  30.104  57.083  1.00  0.00     0.001 A 
HETATM   10  C   UNL     1       7.354  29.698  57.984  1.00  0.00     0.001 A 
HETATM   11  C   UNL     1       7.860  28.395  57.957  1.00  0.00     0.013 A 
HETATM   12  C   UNL     1       6.917  24.334  55.280  1.00  0.00     0.010 A 
HETATM   13  C   UNL     1       7.822  23.480  55.912  1.00  0.00     0.001 A 
ENDROOT
BRANCH   5  14
HETATM   14  N   UNL     1       6.235  27.091  53.828  1.00  0.00    -0.346 N 
HETATM   15  C   UNL     1       5.245  27.244  52.898  1.00  0.00     0.249 C 
HETATM   16  O   UNL     1       4.056  27.051  53.141  1.00  0.00    -0.271 OA
HETATM   17  H   UNL     1       7.217  27.056  53.556  1.00  0.00     0.163 HD
BRANCH  15  18
HETATM   18  C   UNL     1       5.702  27.502  51.452  1.00  0.00     0.279 C 
HETATM   19  N   UNL     1       5.645  28.990  51.130  1.00  0.00    -0.060 N 
HETATM   20  H   UNL     1       5.036  29.436  51.835  1.00  0.00     0.278 HD
HETATM   21  H   UNL     1       6.568  29.435  51.208  1.00  0.00     0.278 HD
HETATM   22  C   UNL     1       4.999  29.132  49.787  1.00  0.00     0.264 C 
HETATM   23  C   UNL     1       4.040  27.944  49.765  1.00  0.00     0.146 C 
HETATM   24  C   UNL     1       4.889  26.824  50.346  1.00  0.00     0.076 C 
BRANCH  23  25
HETATM   25  O   UNL     1       2.957  28.184  50.666  1.00  0.00    -0.394 OA
HETATM   26  H   UNL     1       2.789  29.150  50.693  1.00  0.00     0.210 HD
ENDBRANCH  23  25
ENDBRANCH  15  18
ENDBRANCH   5  14
TORSDOF 3
ENDMDL
MODEL 9
REMARK VINA RESULT:      -7.3      3.989      6.685
REMARK  3 active torsions:
REMARK  status: ('A' for Active; 'I' for Inactive)
REMARK    1  A    between atoms: C_5  and  N_6 
REMARK       I    between atoms: N_6  and  C_7 
REMARK    2  A    between atoms: C_7  and  C_8 
REMARK    3  A    between atoms: C_13  and  O_14 
ROOT
HETATM    1  C   UNL     1       3.853  29.066  54.562  1.00  0.00     0.001 A 
HETATM    2  C   UNL     1       4.478  27.823  54.692  1.00  0.00     0.013 A 
HETATM    3  C   UNL     1       5.182  27.323  53.609  1.00  0.00    -0.017 A 
HETATM    4  C   UNL     1       5.258  28.055  52.402  1.00  0.00    -0.020 A 
HETATM    5  C   UNL     1       6.102  27.303  51.386  1.00  0.00     0.153 A 
HETATM    6  C   UNL     1       6.493  26.057  52.163  1.00  0.00    -0.020 A 
HETATM    7  C   UNL     1       5.941  26.100  53.464  1.00  0.00    -0.017 A 
HETATM    8  C   UNL     1       7.286  24.998  51.748  1.00  0.00     0.010 A 
HETATM    9  C   UNL     1       7.527  23.964  52.654  1.00  0.00     0.001 A 
HETATM   10  C   UNL     1       6.981  24.002  53.949  1.00  0.00     0.001 A 
HETATM   11  C   UNL     1       6.184  25.074  54.362  1.00  0.00     0.013 A 
HETATM   12  C   UNL     1       4.649  29.296  52.272  1.00  0.00     0.010 A 
HETATM   13  C   UNL     1       3.938  29.796  53.364  1.00  0.00     0.001 A 
ENDROOT
BRANCH   5  14
HETATM   14  N   UNL     1       5.317  26.946  50.223  1.00  0.00    -0.346 N 
HETATM   15  C   UNL     1       5.350  27.680  49.069  1.00  0.00     0.249 C 
HETATM   16  O   UNL     1       5.981  28.728  48.955  1.00  0.00    -0.271 OA
HETATM   17  H   UNL     1       4.634  26.202  50.358  1.00  0.00     0.163 HD
BRANCH  15  18
HETATM   18  C   UNL     1       4.401  27.227  47.947  1.00  0.00     0.279 C 
HETATM   19  N   UNL     1       3.683  28.423  47.336  1.00  0.00    -0.060 N 
HETATM   20  H   UNL     1       3.765  29.207  48.003  1.00  0.00     0.278 HD
HETATM   21  H   UNL     1       4.126  28.730  46.460  1.00  0.00     0.278 HD
HETATM   22  C   UNL     1       2.237  28.060  47.206  1.00  0.00     0.264 C 
HETATM   23  C   UNL     1       2.035  27.119  48.393  1.00  0.00     0.146 C 
HETATM   24  C   UNL     1       3.286  26.256  48.345  1.00  0.00     0.076 C 
BRANCH  23  25
HETATM   25  O   UNL     1       2.068  27.868  49.609  1.00  0.00    -0.394 OA
HETATM   26  H   UNL     1       1.311  28.492  49.606  1.00  0.00     0.210 HD
ENDBRANCH  23  25
ENDBRANCH  15  18
ENDBRANCH   5  14
TORSDOF 3
ENDMDL
MODEL 10
REMARK VINA RESULT:      -7.3      2.397      4.804
REMARK  3 active torsions:
REMARK  status: ('A' for Active; 'I' for Inactive)
REMARK    1  A    between atoms: C_5  and  N_6 
REMARK       I    between atoms: N_6  and  C_7 
REMARK    2  A    between atoms: C_7  and  C_8 
REMARK    3  A    between atoms: C_13  and  O_14 
ROOT
HETATM    1  C   UNL     1       7.631  27.682  57.794  1.00  0.00     0.001 A 
HETATM    2  C   UNL     1       7.560  26.410  57.219  1.00  0.00     0.013 A 
HETATM    3  C   UNL     1       7.561  26.311  55.838  1.00  0.00    -0.017 A 
HETATM    4  C   UNL     1       7.626  27.472  55.034  1.00  0.00    -0.020 A 
HETATM    5  C   UNL     1       7.635  27.090  53.563  1.00  0.00     0.153 A 
HETATM    6  C   UNL     1       7.566  25.574  53.631  1.00  0.00    -0.020 A 
HETATM    7  C   UNL     1       7.527  25.147  54.978  1.00  0.00    -0.017 A 
HETATM    8  C   UNL     1       7.560  24.665  52.584  1.00  0.00     0.010 A 
HETATM    9  C   UNL     1       7.513  23.305  52.895  1.00  0.00     0.001 A 
HETATM   10  C   UNL     1       7.475  22.875  54.232  1.00  0.00     0.001 A 
HETATM   11  C   UNL     1       7.482  23.797  55.284  1.00  0.00     0.013 A 
HETATM   12  C   UNL     1       7.709  28.736  55.600  1.00  0.00     0.010 A 
HETATM   13  C   UNL     1       7.706  28.834  56.993  1.00  0.00     0.001 A 
ENDROOT
BRANCH   5  14
HETATM   14  N   UNL     1       6.471  27.618  52.883  1.00  0.00    -0.346 N 
HETATM   15  C   UNL     1       5.211  27.508  53.403  1.00  0.00     0.249 C 
HETATM   16  O   UNL     1       4.961  26.898  54.439  1.00  0.00    -0.271 OA
HETATM   17  H   UNL     1       6.624  27.948  51.930  1.00  0.00     0.163 HD
BRANCH  15  18
HETATM   18  C   UNL     1       4.064  28.043  52.529  1.00  0.00     0.279 C 
HETATM   19  N   UNL     1       4.257  27.624  51.077  1.00  0.00    -0.060 N 
HETATM   20  H   UNL     1       5.245  27.348  50.963  1.00  0.00     0.278 HD
HETATM   21  H   UNL     1       3.688  26.803  50.836  1.00  0.00     0.278 HD
HETATM   22  C   UNL     1       4.000  28.829  50.226  1.00  0.00     0.264 C 
HETATM   23  C   UNL     1       4.462  29.967  51.134  1.00  0.00     0.146 C 
HETATM   24  C   UNL     1       3.891  29.564  52.484  1.00  0.00     0.076 C 
BRANCH  23  25
HETATM   25  O   UNL     1       5.887  29.949  51.239  1.00  0.00    -0.394 OA
HETATM   26  H   UNL     1       6.160  29.062  51.555  1.00  0.00     0.210 HD
ENDBRANCH  23  25
ENDBRANCH  15  18
ENDBRANCH   5  14
TORSDOF 3
ENDMDL
