MODEL 1
REMARK VINA RESULT:      -9.0      0.000      0.000
REMARK  3 active torsions:
REMARK  status: ('A' for Active; 'I' for Inactive)
REMARK    1  A    between atoms: C_3  and  N_4 
REMARK    2  A    between atoms: C_10  and  O_11 
REMARK    3  A    between atoms: C_14  and  C_15 
ROOT
HETATM    1  N   UNL     1       8.068  27.793  57.094  1.00  0.00    -0.212 N 
HETATM    2  N   UNL     1       7.804  26.891  58.085  1.00  0.00    -0.177 NA
HETATM    3  C   UNL     1       6.982  26.003  57.536  1.00  0.00     0.152 A 
HETATM    4  C   UNL     1       6.715  26.267  56.180  1.00  0.00     0.027 A 
HETATM    5  C   UNL     1       7.446  27.413  55.896  1.00  0.00     0.163 A 
HETATM    6  N   UNL     1       7.638  28.029  54.700  1.00  0.00    -0.208 NA
HETATM    7  C   UNL     1       6.564  28.300  54.033  1.00  0.00     0.149 C 
HETATM    8  C   UNL     1       5.131  28.049  54.416  1.00  0.00     0.161 C 
HETATM    9  S   UNL     1       4.670  26.301  54.216  1.00  0.00    -0.146 SA
HETATM   10  C   UNL     1       5.917  25.412  55.249  1.00  0.00     0.124 C 
ENDROOT
BRANCH  10  11
HETATM   11  C   UNL     1       6.809  24.518  54.413  1.00  0.00     0.028 A 
HETATM   12  C   UNL     1       7.291  23.279  55.113  1.00  0.00     0.253 A 
HETATM   13  O   UNL     1       6.970  23.014  56.267  1.00  0.00    -0.268 OA
HETATM   14  N   UNL     1       8.119  22.449  54.393  1.00  0.00    -0.333 N 
HETATM   15  C   UNL     1       8.512  22.685  53.104  1.00  0.00     0.091 A 
HETATM   16  H   UNL     1       8.440  21.621  54.880  1.00  0.00     0.168 HD
HETATM   17  C   UNL     1       8.086  23.779  52.465  1.00  0.00     0.018 A 
HETATM   18  C   UNL     1       7.216  24.713  53.142  1.00  0.00     0.015 A 
ENDBRANCH  10  11
BRANCH   1  19
HETATM   19  C   UNL     1       8.907  28.905  57.386  1.00  0.00     0.099 A 
HETATM   20  C   UNL     1      10.210  28.922  56.854  1.00  0.00     0.035 A 
HETATM   21  C   UNL     1      11.062  30.007  57.085  1.00  0.00     0.002 A 
HETATM   22  C   UNL     1      10.631  31.077  57.864  1.00  0.00     0.003 A 
HETATM   23  C   UNL     1       9.355  31.051  58.424  1.00  0.00     0.045 A 
HETATM   24  C   UNL     1       8.502  29.970  58.192  1.00  0.00     0.145 A 
HETATM   25  F   UNL     1       7.344  29.967  58.862  1.00  0.00    -0.204 F 
ENDBRANCH   1  19
BRANCH   7  26
HETATM   26  O   UNL     1       6.727  28.885  52.837  1.00  0.00    -0.347 OA
HETATM   27  H   UNL     1       5.918  29.392  52.653  1.00  0.00     0.219 HD
ENDBRANCH   7  26
TORSDOF 3
ENDMDL
MODEL 2
REMARK VINA RESULT:      -8.3      3.275      6.401
REMARK  3 active torsions:
REMARK  status: ('A' for Active; 'I' for Inactive)
REMARK    1  A    between atoms: C_3  and  N_4 
REMARK    2  A    between atoms: C_10  and  O_11 
REMARK    3  A    between atoms: C_14  and  C_15 
ROOT
HETATM    1  N   UNL     1       6.380  25.662  55.711  1.00  0.00    -0.212 N 
HETATM    2  N   UNL     1       5.348  25.268  56.514  1.00  0.00    -0.177 NA
HETATM    3  C   UNL     1       4.970  26.367  57.158  1.00  0.00     0.152 A 
HETATM    4  C   UNL     1       5.703  27.506  56.777  1.00  0.00     0.027 A 
HETATM    5  C   UNL     1       6.595  27.044  55.819  1.00  0.00     0.163 A 
HETATM    6  N   UNL     1       7.454  27.753  55.040  1.00  0.00    -0.208 NA
HETATM    7  C   UNL     1       8.233  28.569  55.669  1.00  0.00     0.149 C 
HETATM    8  C   UNL     1       8.334  28.822  57.148  1.00  0.00     0.161 C 
HETATM    9  S   UNL     1       6.963  29.848  57.759  1.00  0.00    -0.146 SA
HETATM   10  C   UNL     1       5.462  28.910  57.232  1.00  0.00     0.124 C 
ENDROOT
BRANCH  10  11
HETATM   11  C   UNL     1       4.635  29.685  56.227  1.00  0.00     0.028 A 
HETATM   12  C   UNL     1       3.565  30.552  56.829  1.00  0.00     0.253 A 
HETATM   13  O   UNL     1       3.393  30.630  58.041  1.00  0.00    -0.268 OA
HETATM   14  N   UNL     1       2.781  31.260  55.948  1.00  0.00    -0.333 N 
HETATM   15  C   UNL     1       2.922  31.220  54.588  1.00  0.00     0.091 A 
HETATM   16  H   UNL     1       2.061  31.836  56.369  1.00  0.00     0.168 HD
HETATM   17  C   UNL     1       3.873  30.458  54.038  1.00  0.00     0.018 A 
HETATM   18  C   UNL     1       4.745  29.675  54.883  1.00  0.00     0.015 A 
ENDBRANCH  10  11
BRANCH   1  19
HETATM   19  C   UNL     1       7.034  24.686  54.908  1.00  0.00     0.099 A 
HETATM   20  C   UNL     1       8.133  23.994  55.451  1.00  0.00     0.035 A 
HETATM   21  C   UNL     1       8.788  23.003  54.714  1.00  0.00     0.002 A 
HETATM   22  C   UNL     1       8.368  22.704  53.421  1.00  0.00     0.003 A 
HETATM   23  C   UNL     1       7.304  23.410  52.863  1.00  0.00     0.045 A 
HETATM   24  C   UNL     1       6.646  24.398  53.598  1.00  0.00     0.145 A 
HETATM   25  F   UNL     1       5.716  25.108  52.949  1.00  0.00    -0.204 F 
ENDBRANCH   1  19
BRANCH   7  26
HETATM   26  O   UNL     1       9.073  29.300  54.920  1.00  0.00    -0.347 OA
HETATM   27  H   UNL     1       8.529  29.820  54.303  1.00  0.00     0.219 HD
ENDBRANCH   7  26
TORSDOF 3
ENDMDL
MODEL 3
REMARK VINA RESULT:      -7.9      3.231      6.381
REMARK  3 active torsions:
REMARK  status: ('A' for Active; 'I' for Inactive)
REMARK    1  A    between atoms: C_3  and  N_4 
REMARK    2  A    between atoms: C_10  and  O_11 
REMARK    3  A    between atoms: C_14  and  C_15 
ROOT
HETATM    1  N   UNL     1       4.797  29.512  55.204  1.00  0.00    -0.212 N 
HETATM    2  N   UNL     1       4.326  30.109  56.338  1.00  0.00    -0.177 NA
HETATM    3  C   UNL     1       5.110  29.664  57.315  1.00  0.00     0.152 A 
HETATM    4  C   UNL     1       6.125  28.806  56.856  1.00  0.00     0.027 A 
HETATM    5  C   UNL     1       5.931  28.736  55.483  1.00  0.00     0.163 A 
HETATM    6  N   UNL     1       6.705  28.138  54.540  1.00  0.00    -0.208 NA
HETATM    7  C   UNL     1       7.006  26.902  54.767  1.00  0.00     0.149 C 
HETATM    8  C   UNL     1       6.592  26.030  55.922  1.00  0.00     0.161 C 
HETATM    9  S   UNL     1       7.530  26.411  57.432  1.00  0.00    -0.146 SA
HETATM   10  C   UNL     1       7.229  28.218  57.675  1.00  0.00     0.124 C 
ENDROOT
BRANCH  10  11
HETATM   11  C   UNL     1       8.504  29.026  57.551  1.00  0.00     0.028 A 
HETATM   12  C   UNL     1       8.668  30.104  58.585  1.00  0.00     0.253 A 
HETATM   13  O   UNL     1       7.835  30.298  59.464  1.00  0.00    -0.268 OA
HETATM   14  N   UNL     1       9.806  30.872  58.496  1.00  0.00    -0.333 N 
HETATM   15  C   UNL     1      10.774  30.706  57.543  1.00  0.00     0.091 A 
HETATM   16  H   UNL     1       9.900  31.598  59.196  1.00  0.00     0.168 HD
HETATM   17  C   UNL     1      10.645  29.746  56.621  1.00  0.00     0.018 A 
HETATM   18  C   UNL     1       9.481  28.891  56.631  1.00  0.00     0.015 A 
ENDBRANCH  10  11
BRANCH   1  19
HETATM   19  C   UNL     1       4.132  29.766  53.971  1.00  0.00     0.099 A 
HETATM   20  C   UNL     1       3.935  31.103  53.576  1.00  0.00     0.035 A 
HETATM   21  C   UNL     1       3.317  31.405  52.359  1.00  0.00     0.002 A 
HETATM   22  C   UNL     1       2.872  30.379  51.531  1.00  0.00     0.003 A 
HETATM   23  C   UNL     1       3.030  29.053  51.931  1.00  0.00     0.045 A 
HETATM   24  C   UNL     1       3.650  28.750  53.145  1.00  0.00     0.145 A 
HETATM   25  F   UNL     1       3.655  27.462  53.509  1.00  0.00    -0.204 F 
ENDBRANCH   1  19
BRANCH   7  26
HETATM   26  O   UNL     1       7.791  26.295  53.864  1.00  0.00    -0.347 OA
HETATM   27  H   UNL     1       8.712  26.445  54.139  1.00  0.00     0.219 HD
ENDBRANCH   7  26
TORSDOF 3
ENDMDL
MODEL 4
REMARK VINA RESULT:      -7.9      3.541      6.579
REMARK  3 active torsions:
REMARK  status: ('A' for Active; 'I' for Inactive)
REMARK    1  A    between atoms: C_3  and  N_4 
REMARK    2  A    between atoms: C_10  and  O_11 
REMARK    3  A    between atoms: C_14  and  C_15 
ROOT
HETATM    1  N   UNL     1       5.010  28.123  52.647  1.00  0.00    -0.212 N 
HETATM    2  N   UNL     1       4.008  28.806  53.274  1.00  0.00    -0.177 NA
HETATM    3  C   UNL     1       4.097  28.454  54.552  1.00  0.00     0.152 A 
HETATM    4  C   UNL     1       5.164  27.575  54.808  1.00  0.00     0.027 A 
HETATM    5  C   UNL     1       5.767  27.388  53.571  1.00  0.00     0.163 A 
HETATM    6  N   UNL     1       6.915  26.724  53.272  1.00  0.00    -0.208 NA
HETATM    7  C   UNL     1       6.993  25.516  53.722  1.00  0.00     0.149 C 
HETATM    8  C   UNL     1       5.976  24.738  54.511  1.00  0.00     0.161 C 
HETATM    9  S   UNL     1       5.923  25.256  56.253  1.00  0.00    -0.146 SA
HETATM   10  C   UNL     1       5.601  27.072  56.146  1.00  0.00     0.124 C 
ENDROOT
BRANCH  10  11
HETATM   11  C   UNL     1       6.756  27.884  56.695  1.00  0.00     0.028 A 
HETATM   12  C   UNL     1       6.352  29.093  57.491  1.00  0.00     0.253 A 
HETATM   13  O   UNL     1       5.176  29.383  57.686  1.00  0.00    -0.268 OA
HETATM   14  N   UNL     1       7.372  29.867  57.993  1.00  0.00    -0.333 N 
HETATM   15  C   UNL     1       8.701  29.598  57.814  1.00  0.00     0.091 A 
HETATM   16  H   UNL     1       7.084  30.682  58.522  1.00  0.00     0.168 HD
HETATM   17  C   UNL     1       9.076  28.523  57.114  1.00  0.00     0.018 A 
HETATM   18  C   UNL     1       8.075  27.651  56.544  1.00  0.00     0.015 A 
ENDBRANCH  10  11
BRANCH   1  19
HETATM   19  C   UNL     1       5.157  28.264  51.238  1.00  0.00     0.099 A 
HETATM   20  C   UNL     1       5.449  29.538  50.717  1.00  0.00     0.035 A 
HETATM   21  C   UNL     1       5.634  29.723  49.343  1.00  0.00     0.002 A 
HETATM   22  C   UNL     1       5.513  28.644  48.473  1.00  0.00     0.003 A 
HETATM   23  C   UNL     1       5.189  27.386  48.977  1.00  0.00     0.045 A 
HETATM   24  C   UNL     1       5.006  27.199  50.349  1.00  0.00     0.145 A 
HETATM   25  F   UNL     1       4.581  25.991  50.736  1.00  0.00    -0.204 F 
ENDBRANCH   1  19
BRANCH   7  26
HETATM   26  O   UNL     1       8.127  24.847  53.462  1.00  0.00    -0.347 OA
HETATM   27  H   UNL     1       8.835  25.271  53.977  1.00  0.00     0.219 HD
ENDBRANCH   7  26
TORSDOF 3
ENDMDL
MODEL 5
REMARK VINA RESULT:      -7.8      8.799     12.195
REMARK  3 active torsions:
REMARK  status: ('A' for Active; 'I' for Inactive)
REMARK    1  A    between atoms: C_3  and  N_4 
REMARK    2  A    between atoms: C_10  and  O_11 
REMARK    3  A    between atoms: C_14  and  C_15 
ROOT
HETATM    1  N   UNL     1       6.339  33.275  61.751  1.00  0.00    -0.212 N 
HETATM    2  N   UNL     1       5.427  33.422  60.745  1.00  0.00    -0.177 NA
HETATM    3  C   UNL     1       4.489  34.222  61.241  1.00  0.00     0.152 A 
HETATM    4  C   UNL     1       4.768  34.648  62.552  1.00  0.00     0.027 A 
HETATM    5  C   UNL     1       5.983  34.052  62.862  1.00  0.00     0.163 A 
HETATM    6  N   UNL     1       6.764  34.227  63.961  1.00  0.00    -0.208 NA
HETATM    7  C   UNL     1       6.167  34.081  65.098  1.00  0.00     0.149 C 
HETATM    8  C   UNL     1       4.732  33.719  65.368  1.00  0.00     0.161 C 
HETATM    9  S   UNL     1       3.613  35.127  65.097  1.00  0.00    -0.146 SA
HETATM   10  C   UNL     1       3.974  35.628  63.356  1.00  0.00     0.124 C 
ENDROOT
BRANCH  10  11
HETATM   11  C   UNL     1       4.567  37.019  63.279  1.00  0.00     0.028 A 
HETATM   12  C   UNL     1       4.025  37.873  62.167  1.00  0.00     0.253 A 
HETATM   13  O   UNL     1       3.160  37.469  61.396  1.00  0.00    -0.268 OA
HETATM   14  N   UNL     1       4.550  39.139  62.053  1.00  0.00    -0.333 N 
HETATM   15  C   UNL     1       5.512  39.650  62.881  1.00  0.00     0.091 A 
HETATM   16  H   UNL     1       4.179  39.700  61.296  1.00  0.00     0.168 HD
HETATM   17  C   UNL     1       6.000  38.905  63.878  1.00  0.00     0.018 A 
HETATM   18  C   UNL     1       5.512  37.560  64.075  1.00  0.00     0.015 A 
ENDBRANCH  10  11
BRANCH   1  19
HETATM   19  C   UNL     1       7.465  32.432  61.536  1.00  0.00     0.099 A 
HETATM   20  C   UNL     1       8.400  32.798  60.550  1.00  0.00     0.035 A 
HETATM   21  C   UNL     1       9.540  32.021  60.322  1.00  0.00     0.002 A 
HETATM   22  C   UNL     1       9.751  30.861  61.062  1.00  0.00     0.003 A 
HETATM   23  C   UNL     1       8.812  30.472  62.015  1.00  0.00     0.045 A 
HETATM   24  C   UNL     1       7.674  31.249  62.245  1.00  0.00     0.145 A 
HETATM   25  F   UNL     1       6.766  30.744  63.089  1.00  0.00    -0.204 F 
ENDBRANCH   1  19
BRANCH   7  26
HETATM   26  O   UNL     1       6.910  34.273  66.199  1.00  0.00    -0.347 OA
HETATM   27  H   UNL     1       6.926  33.430  66.685  1.00  0.00     0.219 HD
ENDBRANCH   7  26
TORSDOF 3
ENDMDL
MODEL 6
REMARK VINA RESULT:      -7.5      3.465      6.243
REMARK  3 active torsions:
REMARK  status: ('A' for Active; 'I' for Inactive)
REMARK    1  A    between atoms: C_3  and  N_4 
REMARK    2  A    between atoms: C_10  and  O_11 
REMARK    3  A    between atoms: C_14  and  C_15 
ROOT
HETATM    1  N   UNL     1       6.148  24.933  53.643  1.00  0.00    -0.212 N 
HETATM    2  N   UNL     1       4.878  24.464  53.465  1.00  0.00    -0.177 NA
HETATM    3  C   UNL     1       4.132  25.547  53.275  1.00  0.00     0.152 A 
HETATM    4  C   UNL     1       4.881  26.738  53.284  1.00  0.00     0.027 A 
HETATM    5  C   UNL     1       6.190  26.327  53.495  1.00  0.00     0.163 A 
HETATM    6  N   UNL     1       7.331  27.065  53.473  1.00  0.00    -0.208 NA
HETATM    7  C   UNL     1       7.326  28.122  54.216  1.00  0.00     0.149 C 
HETATM    8  C   UNL     1       6.237  28.631  55.121  1.00  0.00     0.161 C 
HETATM    9  S   UNL     1       4.893  29.426  54.188  1.00  0.00    -0.146 SA
HETATM   10  C   UNL     1       4.366  28.113  52.999  1.00  0.00     0.124 C 
ENDROOT
BRANCH  10  11
HETATM   11  C   UNL     1       4.623  28.515  51.562  1.00  0.00     0.028 A 
HETATM   12  C   UNL     1       3.396  28.922  50.794  1.00  0.00     0.253 A 
HETATM   13  O   UNL     1       2.281  28.936  51.306  1.00  0.00    -0.268 OA
HETATM   14  N   UNL     1       3.585  29.279  49.480  1.00  0.00    -0.333 N 
HETATM   15  C   UNL     1       4.800  29.287  48.851  1.00  0.00     0.091 A 
HETATM   16  H   UNL     1       2.748  29.545  48.974  1.00  0.00     0.168 HD
HETATM   17  C   UNL     1       5.901  28.935  49.522  1.00  0.00     0.018 A 
HETATM   18  C   UNL     1       5.802  28.540  50.909  1.00  0.00     0.015 A 
ENDBRANCH  10  11
BRANCH   1  19
HETATM   19  C   UNL     1       7.191  24.002  53.909  1.00  0.00     0.099 A 
HETATM   20  C   UNL     1       7.447  22.991  52.963  1.00  0.00     0.035 A 
HETATM   21  C   UNL     1       8.481  22.072  53.161  1.00  0.00     0.002 A 
HETATM   22  C   UNL     1       9.259  22.137  54.313  1.00  0.00     0.003 A 
HETATM   23  C   UNL     1       8.990  23.111  55.272  1.00  0.00     0.045 A 
HETATM   24  C   UNL     1       7.959  24.033  55.074  1.00  0.00     0.145 A 
HETATM   25  F   UNL     1       7.689  24.857  56.093  1.00  0.00    -0.204 F 
ENDBRANCH   1  19
BRANCH   7  26
HETATM   26  O   UNL     1       8.431  28.883  54.193  1.00  0.00    -0.347 OA
HETATM   27  H   UNL     1       8.194  29.719  53.755  1.00  0.00     0.219 HD
ENDBRANCH   7  26
TORSDOF 3
ENDMDL
MODEL 7
REMARK VINA RESULT:      -7.5      2.497      6.535
REMARK  3 active torsions:
REMARK  status: ('A' for Active; 'I' for Inactive)
REMARK    1  A    between atoms: C_3  and  N_4 
REMARK    2  A    between atoms: C_10  and  O_11 
REMARK    3  A    between atoms: C_14  and  C_15 
ROOT
HETATM    1  N   UNL     1       7.761  24.924  54.103  1.00  0.00    -0.212 N 
HETATM    2  N   UNL     1       8.101  25.695  53.028  1.00  0.00    -0.177 NA
HETATM    3  C   UNL     1       7.625  26.904  53.304  1.00  0.00     0.152 A 
HETATM    4  C   UNL     1       7.002  26.975  54.563  1.00  0.00     0.027 A 
HETATM    5  C   UNL     1       7.120  25.694  55.085  1.00  0.00     0.163 A 
HETATM    6  N   UNL     1       6.792  25.243  56.324  1.00  0.00    -0.208 NA
HETATM    7  C   UNL     1       5.591  25.514  56.717  1.00  0.00     0.149 C 
HETATM    8  C   UNL     1       4.501  26.238  55.976  1.00  0.00     0.161 C 
HETATM    9  S   UNL     1       4.771  28.037  55.955  1.00  0.00    -0.146 SA
HETATM   10  C   UNL     1       6.456  28.204  55.216  1.00  0.00     0.124 C 
ENDROOT
BRANCH  10  11
HETATM   11  C   UNL     1       7.447  28.799  56.196  1.00  0.00     0.028 A 
HETATM   12  C   UNL     1       6.988  30.066  56.863  1.00  0.00     0.253 A 
HETATM   13  O   UNL     1       5.891  30.564  56.634  1.00  0.00    -0.268 OA
HETATM   14  N   UNL     1       7.867  30.647  57.748  1.00  0.00    -0.333 N 
HETATM   15  C   UNL     1       9.102  30.142  58.049  1.00  0.00     0.091 A 
HETATM   16  H   UNL     1       7.546  31.503  58.184  1.00  0.00     0.168 HD
HETATM   17  C   UNL     1       9.521  29.012  57.469  1.00  0.00     0.018 A 
HETATM   18  C   UNL     1       8.669  28.331  56.522  1.00  0.00     0.015 A 
ENDBRANCH  10  11
BRANCH   1  19
HETATM   19  C   UNL     1       8.107  23.544  54.092  1.00  0.00     0.099 A 
HETATM   20  C   UNL     1       7.540  22.717  53.104  1.00  0.00     0.035 A 
HETATM   21  C   UNL     1       7.872  21.360  53.031  1.00  0.00     0.002 A 
HETATM   22  C   UNL     1       8.758  20.810  53.952  1.00  0.00     0.003 A 
HETATM   23  C   UNL     1       9.296  21.613  54.955  1.00  0.00     0.045 A 
HETATM   24  C   UNL     1       8.967  22.969  55.028  1.00  0.00     0.145 A 
HETATM   25  F   UNL     1       9.431  23.641  56.089  1.00  0.00    -0.204 F 
ENDBRANCH   1  19
BRANCH   7  26
HETATM   26  O   UNL     1       5.251  25.102  57.947  1.00  0.00    -0.347 OA
HETATM   27  H   UNL     1       5.610  24.204  58.059  1.00  0.00     0.219 HD
ENDBRANCH   7  26
TORSDOF 3
ENDMDL
MODEL 8
REMARK VINA RESULT:      -7.3      6.924     10.483
REMARK  3 active torsions:
REMARK  status: ('A' for Active; 'I' for Inactive)
REMARK    1  A    between atoms: C_3  and  N_4 
REMARK    2  A    between atoms: C_10  and  O_11 
REMARK    3  A    between atoms: C_14  and  C_15 
ROOT
HETATM    1  N   UNL     1       5.958  32.572  59.006  1.00  0.00    -0.212 N 
HETATM    2  N   UNL     1       5.492  33.320  57.963  1.00  0.00    -0.177 NA
HETATM    3  C   UNL     1       4.608  34.153  58.502  1.00  0.00     0.152 A 
HETATM    4  C   UNL     1       4.495  34.008  59.896  1.00  0.00     0.027 A 
HETATM    5  C   UNL     1       5.395  33.000  60.216  1.00  0.00     0.163 A 
HETATM    6  N   UNL     1       5.769  32.547  61.442  1.00  0.00    -0.208 NA
HETATM    7  C   UNL     1       4.803  32.218  62.235  1.00  0.00     0.149 C 
HETATM    8  C   UNL     1       3.322  32.246  61.973  1.00  0.00     0.161 C 
HETATM    9  S   UNL     1       2.649  33.934  62.047  1.00  0.00    -0.146 SA
HETATM   10  C   UNL     1       3.672  34.854  60.814  1.00  0.00     0.124 C 
ENDROOT
BRANCH  10  11
HETATM   11  C   UNL     1       4.505  35.937  61.467  1.00  0.00     0.028 A 
HETATM   12  C   UNL     1       4.555  37.234  60.710  1.00  0.00     0.253 A 
HETATM   13  O   UNL     1       3.952  37.397  59.653  1.00  0.00    -0.268 OA
HETATM   14  N   UNL     1       5.315  38.239  61.262  1.00  0.00    -0.333 N 
HETATM   15  C   UNL     1       6.007  38.124  62.436  1.00  0.00     0.091 A 
HETATM   16  H   UNL     1       5.343  39.105  60.737  1.00  0.00     0.168 HD
HETATM   17  C   UNL     1       5.968  36.978  63.124  1.00  0.00     0.018 A 
HETATM   18  C   UNL     1       5.198  35.864  62.622  1.00  0.00     0.015 A 
ENDBRANCH  10  11
BRANCH   1  19
HETATM   19  C   UNL     1       6.910  31.548  58.741  1.00  0.00     0.099 A 
HETATM   20  C   UNL     1       6.477  30.380  58.087  1.00  0.00     0.035 A 
HETATM   21  C   UNL     1       7.379  29.358  57.775  1.00  0.00     0.002 A 
HETATM   22  C   UNL     1       8.719  29.481  58.129  1.00  0.00     0.003 A 
HETATM   23  C   UNL     1       9.150  30.619  58.809  1.00  0.00     0.045 A 
HETATM   24  C   UNL     1       8.251  31.641  59.118  1.00  0.00     0.145 A 
HETATM   25  F   UNL     1       8.718  32.641  59.875  1.00  0.00    -0.204 F 
ENDBRANCH   1  19
BRANCH   7  26
HETATM   26  O   UNL     1       5.144  31.793  63.460  1.00  0.00    -0.347 OA
HETATM   27  H   UNL     1       5.996  31.329  63.375  1.00  0.00     0.219 HD
ENDBRANCH   7  26
TORSDOF 3
ENDMDL
MODEL 9
REMARK VINA RESULT:      -7.1      8.063     10.452
REMARK  3 active torsions:
REMARK  status: ('A' for Active; 'I' for Inactive)
REMARK    1  A    between atoms: C_3  and  N_4 
REMARK    2  A    between atoms: C_10  and  O_11 
REMARK    3  A    between atoms: C_14  and  C_15 
ROOT
HETATM    1  N   UNL     1       5.593  32.605  60.429  1.00  0.00    -0.212 N 
HETATM    2  N   UNL     1       5.038  31.943  59.372  1.00  0.00    -0.177 NA
HETATM    3  C   UNL     1       3.834  32.484  59.218  1.00  0.00     0.152 A 
HETATM    4  C   UNL     1       3.578  33.525  60.128  1.00  0.00     0.027 A 
HETATM    5  C   UNL     1       4.736  33.614  60.891  1.00  0.00     0.163 A 
HETATM    6  N   UNL     1       5.067  34.534  61.835  1.00  0.00    -0.208 NA
HETATM    7  C   UNL     1       4.192  34.715  62.769  1.00  0.00     0.149 C 
HETATM    8  C   UNL     1       2.869  34.026  62.964  1.00  0.00     0.161 C 
HETATM    9  S   UNL     1       1.601  34.652  61.820  1.00  0.00    -0.146 SA
HETATM   10  C   UNL     1       2.369  34.403  60.158  1.00  0.00     0.124 C 
ENDROOT
BRANCH  10  11
HETATM   11  C   UNL     1       2.619  35.718  59.448  1.00  0.00     0.028 A 
HETATM   12  C   UNL     1       2.166  35.755  58.016  1.00  0.00     0.253 A 
HETATM   13  O   UNL     1       1.625  34.795  57.477  1.00  0.00    -0.268 OA
HETATM   14  N   UNL     1       2.391  36.927  57.331  1.00  0.00    -0.333 N 
HETATM   15  C   UNL     1       2.986  38.033  57.873  1.00  0.00     0.091 A 
HETATM   16  H   UNL     1       2.086  36.935  56.365  1.00  0.00     0.168 HD
HETATM   17  C   UNL     1       3.388  38.017  59.148  1.00  0.00     0.018 A 
HETATM   18  C   UNL     1       3.198  36.829  59.948  1.00  0.00     0.015 A 
ENDBRANCH  10  11
BRANCH   1  19
HETATM   19  C   UNL     1       6.891  32.224  60.870  1.00  0.00     0.099 A 
HETATM   20  C   UNL     1       7.983  32.434  60.007  1.00  0.00     0.035 A 
HETATM   21  C   UNL     1       9.282  32.106  60.406  1.00  0.00     0.002 A 
HETATM   22  C   UNL     1       9.506  31.549  61.661  1.00  0.00     0.003 A 
HETATM   23  C   UNL     1       8.426  31.304  62.508  1.00  0.00     0.045 A 
HETATM   24  C   UNL     1       7.128  31.633  62.112  1.00  0.00     0.145 A 
HETATM   25  F   UNL     1       6.139  31.257  62.932  1.00  0.00    -0.204 F 
ENDBRANCH   1  19
BRANCH   7  26
HETATM   26  O   UNL     1       4.483  35.636  63.700  1.00  0.00    -0.347 OA
HETATM   27  H   UNL     1       4.746  36.446  63.229  1.00  0.00     0.219 HD
ENDBRANCH   7  26
TORSDOF 3
ENDMDL
MODEL 10
REMARK VINA RESULT:      -6.9      3.932      5.456
REMARK  3 active torsions:
REMARK  status: ('A' for Active; 'I' for Inactive)
REMARK    1  A    between atoms: C_3  and  N_4 
REMARK    2  A    between atoms: C_10  and  O_11 
REMARK    3  A    between atoms: C_14  and  C_15 
ROOT
HETATM    1  N   UNL     1       5.547  31.237  57.833  1.00  0.00    -0.212 N 
HETATM    2  N   UNL     1       4.974  31.221  56.594  1.00  0.00    -0.177 NA
HETATM    3  C   UNL     1       5.798  30.502  55.840  1.00  0.00     0.152 A 
HETATM    4  C   UNL     1       6.900  29.999  56.557  1.00  0.00     0.027 A 
HETATM    5  C   UNL     1       6.712  30.458  57.854  1.00  0.00     0.163 A 
HETATM    6  N   UNL     1       7.423  30.164  58.975  1.00  0.00    -0.208 NA
HETATM    7  C   UNL     1       8.702  30.325  58.883  1.00  0.00     0.149 C 
HETATM    8  C   UNL     1       9.506  30.819  57.711  1.00  0.00     0.161 C 
HETATM    9  S   UNL     1       9.696  29.542  56.430  1.00  0.00    -0.146 SA
HETATM   10  C   UNL     1       7.953  29.075  56.035  1.00  0.00     0.124 C 
ENDROOT
BRANCH  10  11
HETATM   11  C   UNL     1       7.657  27.634  56.399  1.00  0.00     0.028 A 
HETATM   12  C   UNL     1       6.853  26.880  55.377  1.00  0.00     0.253 A 
HETATM   13  O   UNL     1       6.483  27.396  54.327  1.00  0.00    -0.268 OA
HETATM   14  N   UNL     1       6.549  25.573  55.678  1.00  0.00    -0.333 N 
HETATM   15  C   UNL     1       6.934  24.938  56.827  1.00  0.00     0.091 A 
HETATM   16  H   UNL     1       6.003  25.079  54.982  1.00  0.00     0.168 HD
HETATM   17  C   UNL     1       7.655  25.594  57.742  1.00  0.00     0.018 A 
HETATM   18  C   UNL     1       8.020  26.973  57.516  1.00  0.00     0.015 A 
ENDBRANCH  10  11
BRANCH   1  19
HETATM   19  C   UNL     1       4.908  31.970  58.873  1.00  0.00     0.099 A 
HETATM   20  C   UNL     1       5.582  33.075  59.427  1.00  0.00     0.035 A 
HETATM   21  C   UNL     1       4.984  33.848  60.428  1.00  0.00     0.002 A 
HETATM   22  C   UNL     1       3.717  33.517  60.900  1.00  0.00     0.003 A 
HETATM   23  C   UNL     1       3.059  32.403  60.382  1.00  0.00     0.045 A 
HETATM   24  C   UNL     1       3.653  31.633  59.380  1.00  0.00     0.145 A 
HETATM   25  F   UNL     1       3.009  30.515  59.024  1.00  0.00    -0.204 F 
ENDBRANCH   1  19
BRANCH   7  26
HETATM   26  O   UNL     1       9.428  30.017  59.968  1.00  0.00    -0.347 OA
HETATM   27  H   UNL     1       9.789  30.851  60.317  1.00  0.00     0.219 HD
ENDBRANCH   7  26
TORSDOF 3
ENDMDL
