MODEL 1
REMARK VINA RESULT:     -10.4      0.000      0.000
REMARK  6 active torsions:
REMARK  status: ('A' for Active; 'I' for Inactive)
REMARK    1  A    between atoms: C_2  and  C_3 
REMARK    2  A    between atoms: C_2  and  C_9 
REMARK    3  A    between atoms: C_9  and  N_10 
REMARK       I    between atoms: N_10  and  C_11 
REMARK       I    between atoms: C_11  and  N_12 
REMARK    4  A    between atoms: N_12  and  C_13 
REMARK    5  A    between atoms: C_15  and  N_16 
REMARK       I    between atoms: N_16  and  C_17 
REMARK    6  A    between atoms: C_17  and  C_18 
ROOT
HETATM    1  N   UNL     1       7.253  26.220  55.759  1.00  0.00    -0.342 N 
HETATM    2  C   UNL     1       7.997  26.881  56.713  1.00  0.00     0.320 C 
HETATM    3  N   UNL     1       8.105  28.217  56.395  1.00  0.00    -0.309 N 
HETATM    4  O   UNL     1       8.533  26.308  57.651  1.00  0.00    -0.247 OA
HETATM    5  H   UNL     1       6.581  26.754  55.228  1.00  0.00     0.164 HD
HETATM    6  H   UNL     1       7.917  28.432  55.426  1.00  0.00     0.170 HD
ENDROOT
BRANCH   3   7
HETATM    7  C   UNL     1       8.819  29.192  57.118  1.00  0.00     0.038 A 
HETATM    8  C   UNL     1       8.224  29.684  58.289  1.00  0.00     0.059 A 
HETATM    9  C   UNL     1       8.835  30.690  59.040  1.00  0.00     0.037 A 
HETATM   10  C   UNL     1      10.087  31.166  58.634  1.00  0.00     0.029 A 
HETATM   11  C   UNL     1      10.701  30.661  57.486  1.00  0.00     0.004 A 
HETATM   12  C   UNL     1      10.063  29.681  56.724  1.00  0.00     0.029 A 
BRANCH   9  13
HETATM   13  N   UNL     1       8.250  31.297  60.175  1.00  0.00    -0.323 N 
HETATM   14  C   UNL     1       8.491  30.999  61.507  1.00  0.00     0.258 C 
HETATM   15  O   UNL     1       9.334  30.209  61.916  1.00  0.00    -0.267 OA
HETATM   16  H   UNL     1       7.547  31.990  59.976  1.00  0.00     0.169 HD
BRANCH  14  17
HETATM   17  C   UNL     1       7.634  31.702  62.460  1.00  0.00     0.056 A 
HETATM   18  C   UNL     1       6.263  31.634  62.616  1.00  0.00     0.158 A 
HETATM   19  O   UNL     1       5.845  32.434  63.633  1.00  0.00    -0.334 OA
HETATM   20  C   UNL     1       6.949  33.028  64.148  1.00  0.00     0.142 A 
HETATM   21  C   UNL     1       8.070  32.618  63.468  1.00  0.00     0.043 A 
ENDBRANCH  14  17
ENDBRANCH   9  13
ENDBRANCH   3   7
BRANCH   1  22
HETATM   22  C   UNL     1       7.219  24.769  55.667  1.00  0.00     0.138 C 
BRANCH  22  23
HETATM   23  C   UNL     1       7.099  24.255  54.197  1.00  0.00    -0.004 C 
HETATM   24  C   UNL     1       8.015  25.066  53.249  1.00  0.00     0.021 C 
HETATM   25  C   UNL     1       5.644  24.481  53.715  1.00  0.00     0.021 C 
BRANCH  23  26
HETATM   26  C   UNL     1       7.522  22.773  54.149  1.00  0.00    -0.046 A 
HETATM   27  C   UNL     1       7.575  22.014  55.332  1.00  0.00     0.027 A 
HETATM   28  C   UNL     1       7.973  20.686  55.279  1.00  0.00     0.116 A 
HETATM   29  N   UNL     1       8.321  20.052  54.143  1.00  0.00    -0.273 NA
HETATM   30  C   UNL     1       8.267  20.783  53.012  1.00  0.00     0.116 A 
HETATM   31  C   UNL     1       7.880  22.116  52.965  1.00  0.00     0.027 A 
ENDBRANCH  23  26
ENDBRANCH  22  23
ENDBRANCH   1  22
TORSDOF 6
ENDMDL
MODEL 2
REMARK VINA RESULT:      -9.4      2.020      2.381
REMARK  6 active torsions:
REMARK  status: ('A' for Active; 'I' for Inactive)
REMARK    1  A    between atoms: C_2  and  C_3 
REMARK    2  A    between atoms: C_2  and  C_9 
REMARK    3  A    between atoms: C_9  and  N_10 
REMARK       I    between atoms: N_10  and  C_11 
REMARK       I    between atoms: C_11  and  N_12 
REMARK    4  A    between atoms: N_12  and  C_13 
REMARK    5  A    between atoms: C_15  and  N_16 
REMARK       I    between atoms: N_16  and  C_17 
REMARK    6  A    between atoms: C_17  and  C_18 
ROOT
HETATM    1  N   UNL     1       7.559  26.420  55.172  1.00  0.00    -0.342 N 
HETATM    2  C   UNL     1       6.616  27.283  55.688  1.00  0.00     0.320 C 
HETATM    3  N   UNL     1       7.127  28.560  55.762  1.00  0.00    -0.309 N 
HETATM    4  O   UNL     1       5.521  26.910  56.085  1.00  0.00    -0.247 OA
HETATM    5  H   UNL     1       8.274  26.802  54.572  1.00  0.00     0.164 HD
HETATM    6  H   UNL     1       8.135  28.609  55.736  1.00  0.00     0.170 HD
ENDROOT
BRANCH   3   7
HETATM    7  C   UNL     1       6.466  29.696  56.269  1.00  0.00     0.038 A 
HETATM    8  C   UNL     1       6.822  30.122  57.557  1.00  0.00     0.059 A 
HETATM    9  C   UNL     1       6.180  31.205  58.161  1.00  0.00     0.037 A 
HETATM   10  C   UNL     1       5.208  31.901  57.434  1.00  0.00     0.029 A 
HETATM   11  C   UNL     1       4.869  31.503  56.139  1.00  0.00     0.004 A 
HETATM   12  C   UNL     1       5.491  30.396  55.561  1.00  0.00     0.029 A 
BRANCH   9  13
HETATM   13  N   UNL     1       6.422  31.629  59.487  1.00  0.00    -0.323 N 
HETATM   14  C   UNL     1       7.577  32.207  59.990  1.00  0.00     0.258 C 
HETATM   15  O   UNL     1       8.556  32.530  59.326  1.00  0.00    -0.267 OA
HETATM   16  H   UNL     1       5.677  31.441  60.140  1.00  0.00     0.169 HD
BRANCH  14  17
HETATM   17  C   UNL     1       7.583  32.416  61.436  1.00  0.00     0.056 A 
HETATM   18  C   UNL     1       8.578  32.137  62.354  1.00  0.00     0.158 A 
HETATM   19  O   UNL     1       8.200  32.496  63.610  1.00  0.00    -0.334 OA
HETATM   20  C   UNL     1       6.952  33.015  63.516  1.00  0.00     0.142 A 
HETATM   21  C   UNL     1       6.525  32.989  62.210  1.00  0.00     0.043 A 
ENDBRANCH  14  17
ENDBRANCH   9  13
ENDBRANCH   3   7
BRANCH   1  22
HETATM   22  C   UNL     1       7.416  24.975  55.252  1.00  0.00     0.138 C 
BRANCH  22  23
HETATM   23  C   UNL     1       7.164  24.310  53.862  1.00  0.00    -0.004 C 
HETATM   24  C   UNL     1       8.012  24.990  52.760  1.00  0.00     0.021 C 
HETATM   25  C   UNL     1       5.678  24.523  53.478  1.00  0.00     0.021 C 
BRANCH  23  26
HETATM   26  C   UNL     1       7.553  22.820  53.941  1.00  0.00    -0.046 A 
HETATM   27  C   UNL     1       7.606  22.168  55.185  1.00  0.00     0.027 A 
HETATM   28  C   UNL     1       7.975  20.832  55.246  1.00  0.00     0.116 A 
HETATM   29  N   UNL     1       8.291  20.091  54.167  1.00  0.00    -0.273 NA
HETATM   30  C   UNL     1       8.238  20.720  52.977  1.00  0.00     0.116 A 
HETATM   31  C   UNL     1       7.880  22.053  52.815  1.00  0.00     0.027 A 
ENDBRANCH  23  26
ENDBRANCH  22  23
ENDBRANCH   1  22
TORSDOF 6
ENDMDL
MODEL 3
REMARK VINA RESULT:      -9.1      2.474     11.073
REMARK  6 active torsions:
REMARK  status: ('A' for Active; 'I' for Inactive)
REMARK    1  A    between atoms: C_2  and  C_3 
REMARK    2  A    between atoms: C_2  and  C_9 
REMARK    3  A    between atoms: C_9  and  N_10 
REMARK       I    between atoms: N_10  and  C_11 
REMARK       I    between atoms: C_11  and  N_12 
REMARK    4  A    between atoms: N_12  and  C_13 
REMARK    5  A    between atoms: C_15  and  N_16 
REMARK       I    between atoms: N_16  and  C_17 
REMARK    6  A    between atoms: C_17  and  C_18 
ROOT
HETATM    1  N   UNL     1       6.232  31.876  61.421  1.00  0.00    -0.342 N 
HETATM    2  C   UNL     1       7.342  31.251  60.896  1.00  0.00     0.320 C 
HETATM    3  N   UNL     1       7.176  31.036  59.545  1.00  0.00    -0.309 N 
HETATM    4  O   UNL     1       8.286  30.886  61.583  1.00  0.00    -0.247 OA
HETATM    5  H   UNL     1       5.666  32.437  60.802  1.00  0.00     0.164 HD
HETATM    6  H   UNL     1       6.217  31.069  59.232  1.00  0.00     0.170 HD
ENDROOT
BRANCH   3   7
HETATM    7  C   UNL     1       8.086  30.392  58.684  1.00  0.00     0.038 A 
HETATM    8  C   UNL     1       7.649  29.215  58.056  1.00  0.00     0.059 A 
HETATM    9  C   UNL     1       8.502  28.482  57.229  1.00  0.00     0.037 A 
HETATM   10  C   UNL     1       9.791  28.971  56.988  1.00  0.00     0.029 A 
HETATM   11  C   UNL     1      10.224  30.157  57.585  1.00  0.00     0.004 A 
HETATM   12  C   UNL     1       9.375  30.861  58.439  1.00  0.00     0.029 A 
BRANCH   9  13
HETATM   13  N   UNL     1       8.161  27.243  56.640  1.00  0.00    -0.323 N 
HETATM   14  C   UNL     1       7.980  26.027  57.279  1.00  0.00     0.258 C 
HETATM   15  O   UNL     1       8.000  25.854  58.493  1.00  0.00    -0.267 OA
HETATM   16  H   UNL     1       8.089  27.251  55.634  1.00  0.00     0.169 HD
BRANCH  14  17
HETATM   17  C   UNL     1       7.765  24.888  56.389  1.00  0.00     0.056 A 
HETATM   18  C   UNL     1       6.760  24.682  55.463  1.00  0.00     0.158 A 
HETATM   19  O   UNL     1       6.923  23.495  54.820  1.00  0.00    -0.334 OA
HETATM   20  C   UNL     1       8.041  22.920  55.325  1.00  0.00     0.142 A 
HETATM   21  C   UNL     1       8.595  23.728  56.289  1.00  0.00     0.043 A 
ENDBRANCH  14  17
ENDBRANCH   9  13
ENDBRANCH   3   7
BRANCH   1  22
HETATM   22  C   UNL     1       5.993  31.963  62.853  1.00  0.00     0.138 C 
BRANCH  22  23
HETATM   23  C   UNL     1       6.417  33.339  63.458  1.00  0.00    -0.004 C 
HETATM   24  C   UNL     1       6.527  34.419  62.356  1.00  0.00     0.021 C 
HETATM   25  C   UNL     1       7.829  33.187  64.079  1.00  0.00     0.021 C 
BRANCH  23  26
HETATM   26  C   UNL     1       5.356  33.782  64.485  1.00  0.00    -0.046 A 
HETATM   27  C   UNL     1       4.072  34.161  64.056  1.00  0.00     0.027 A 
HETATM   28  C   UNL     1       3.130  34.575  64.988  1.00  0.00     0.116 A 
HETATM   29  N   UNL     1       3.363  34.638  66.312  1.00  0.00    -0.273 NA
HETATM   30  C   UNL     1       4.595  34.273  66.718  1.00  0.00     0.116 A 
HETATM   31  C   UNL     1       5.602  33.845  65.863  1.00  0.00     0.027 A 
ENDBRANCH  23  26
ENDBRANCH  22  23
ENDBRANCH   1  22
TORSDOF 6
ENDMDL
MODEL 4
REMARK VINA RESULT:      -8.9      2.407     11.016
REMARK  6 active torsions:
REMARK  status: ('A' for Active; 'I' for Inactive)
REMARK    1  A    between atoms: C_2  and  C_3 
REMARK    2  A    between atoms: C_2  and  C_9 
REMARK    3  A    between atoms: C_9  and  N_10 
REMARK       I    between atoms: N_10  and  C_11 
REMARK       I    between atoms: C_11  and  N_12 
REMARK    4  A    between atoms: N_12  and  C_13 
REMARK    5  A    between atoms: C_15  and  N_16 
REMARK       I    between atoms: N_16  and  C_17 
REMARK    6  A    between atoms: C_17  and  C_18 
ROOT
HETATM    1  N   UNL     1       7.213  31.799  61.726  1.00  0.00    -0.342 N 
HETATM    2  C   UNL     1       7.718  31.741  60.445  1.00  0.00     0.320 C 
HETATM    3  N   UNL     1       8.074  30.449  60.128  1.00  0.00    -0.309 N 
HETATM    4  O   UNL     1       7.883  32.735  59.751  1.00  0.00    -0.247 OA
HETATM    5  H   UNL     1       6.794  30.964  62.109  1.00  0.00     0.164 HD
HETATM    6  H   UNL     1       8.205  29.844  60.927  1.00  0.00     0.170 HD
ENDROOT
BRANCH   3   7
HETATM    7  C   UNL     1       8.657  30.015  58.922  1.00  0.00     0.038 A 
HETATM    8  C   UNL     1       8.034  28.947  58.258  1.00  0.00     0.059 A 
HETATM    9  C   UNL     1       8.572  28.416  57.084  1.00  0.00     0.037 A 
HETATM   10  C   UNL     1       9.721  29.006  56.544  1.00  0.00     0.029 A 
HETATM   11  C   UNL     1      10.330  30.089  57.182  1.00  0.00     0.004 A 
HETATM   12  C   UNL     1       9.803  30.587  58.374  1.00  0.00     0.029 A 
BRANCH   9  13
HETATM   13  N   UNL     1       8.052  27.284  56.416  1.00  0.00    -0.323 N 
HETATM   14  C   UNL     1       8.042  25.973  56.861  1.00  0.00     0.258 C 
HETATM   15  O   UNL     1       8.410  25.597  57.969  1.00  0.00    -0.267 OA
HETATM   16  H   UNL     1       7.692  27.461  55.491  1.00  0.00     0.169 HD
BRANCH  14  17
HETATM   17  C   UNL     1       7.557  24.994  55.890  1.00  0.00     0.056 A 
HETATM   18  C   UNL     1       7.540  23.615  55.975  1.00  0.00     0.158 A 
HETATM   19  O   UNL     1       6.988  23.063  54.862  1.00  0.00    -0.334 OA
HETATM   20  C   UNL     1       6.639  24.085  54.043  1.00  0.00     0.142 A 
HETATM   21  C   UNL     1       6.966  25.288  54.621  1.00  0.00     0.043 A 
ENDBRANCH  14  17
ENDBRANCH   9  13
ENDBRANCH   3   7
BRANCH   1  22
HETATM   22  C   UNL     1       7.034  33.055  62.435  1.00  0.00     0.138 C 
BRANCH  22  23
HETATM   23  C   UNL     1       5.569  33.270  62.934  1.00  0.00    -0.004 C 
HETATM   24  C   UNL     1       4.721  31.991  62.729  1.00  0.00     0.021 C 
HETATM   25  C   UNL     1       4.916  34.382  62.076  1.00  0.00     0.021 C 
BRANCH  23  26
HETATM   26  C   UNL     1       5.597  33.612  64.437  1.00  0.00    -0.046 A 
HETATM   27  C   UNL     1       6.823  33.691  65.121  1.00  0.00     0.027 A 
HETATM   28  C   UNL     1       6.835  33.983  66.478  1.00  0.00     0.116 A 
HETATM   29  N   UNL     1       5.725  34.206  67.207  1.00  0.00    -0.273 NA
HETATM   30  C   UNL     1       4.553  34.130  66.547  1.00  0.00     0.116 A 
HETATM   31  C   UNL     1       4.440  33.846  65.192  1.00  0.00     0.027 A 
ENDBRANCH  23  26
ENDBRANCH  22  23
ENDBRANCH   1  22
TORSDOF 6
ENDMDL
MODEL 5
REMARK VINA RESULT:      -8.9      2.355      3.823
REMARK  6 active torsions:
REMARK  status: ('A' for Active; 'I' for Inactive)
REMARK    1  A    between atoms: C_2  and  C_3 
REMARK    2  A    between atoms: C_2  and  C_9 
REMARK    3  A    between atoms: C_9  and  N_10 
REMARK       I    between atoms: N_10  and  C_11 
REMARK       I    between atoms: C_11  and  N_12 
REMARK    4  A    between atoms: N_12  and  C_13 
REMARK    5  A    between atoms: C_15  and  N_16 
REMARK       I    between atoms: N_16  and  C_17 
REMARK    6  A    between atoms: C_17  and  C_18 
ROOT
HETATM    1  N   UNL     1       7.036  26.595  55.322  1.00  0.00    -0.342 N 
HETATM    2  C   UNL     1       7.437  27.873  55.646  1.00  0.00     0.320 C 
HETATM    3  N   UNL     1       8.348  27.841  56.679  1.00  0.00    -0.309 N 
HETATM    4  O   UNL     1       6.967  28.871  55.117  1.00  0.00    -0.247 OA
HETATM    5  H   UNL     1       7.666  25.834  55.526  1.00  0.00     0.164 HD
HETATM    6  H   UNL     1       8.338  26.987  57.217  1.00  0.00     0.170 HD
ENDROOT
BRANCH   3   7
HETATM    7  C   UNL     1       8.948  28.956  57.298  1.00  0.00     0.038 A 
HETATM    8  C   UNL     1       8.317  29.469  58.441  1.00  0.00     0.059 A 
HETATM    9  C   UNL     1       8.811  30.604  59.088  1.00  0.00     0.037 A 
HETATM   10  C   UNL     1       9.987  31.193  58.608  1.00  0.00     0.029 A 
HETATM   11  C   UNL     1      10.638  30.670  57.489  1.00  0.00     0.004 A 
HETATM   12  C   UNL     1      10.114  29.558  56.830  1.00  0.00     0.029 A 
BRANCH   9  13
HETATM   13  N   UNL     1       8.176  31.229  60.185  1.00  0.00    -0.323 N 
HETATM   14  C   UNL     1       8.542  31.165  61.519  1.00  0.00     0.258 C 
HETATM   15  O   UNL     1       9.550  30.617  61.953  1.00  0.00    -0.267 OA
HETATM   16  H   UNL     1       7.336  31.739  59.960  1.00  0.00     0.169 HD
BRANCH  14  17
HETATM   17  C   UNL     1       7.612  31.806  62.447  1.00  0.00     0.056 A 
HETATM   18  C   UNL     1       6.231  31.761  62.468  1.00  0.00     0.158 A 
HETATM   19  O   UNL     1       5.734  32.483  63.507  1.00  0.00    -0.334 OA
HETATM   20  C   UNL     1       6.794  33.003  64.172  1.00  0.00     0.142 A 
HETATM   21  C   UNL     1       7.966  32.623  63.566  1.00  0.00     0.043 A 
ENDBRANCH  14  17
ENDBRANCH   9  13
ENDBRANCH   3   7
BRANCH   1  22
HETATM   22  C   UNL     1       5.877  26.333  54.484  1.00  0.00     0.138 C 
BRANCH  22  23
HETATM   23  C   UNL     1       6.256  25.778  53.075  1.00  0.00    -0.004 C 
HETATM   24  C   UNL     1       5.749  24.326  52.896  1.00  0.00     0.021 C 
HETATM   25  C   UNL     1       7.801  25.728  52.966  1.00  0.00     0.021 C 
BRANCH  23  26
HETATM   26  C   UNL     1       5.609  26.667  51.995  1.00  0.00    -0.046 A 
HETATM   27  C   UNL     1       5.183  26.105  50.778  1.00  0.00     0.027 A 
HETATM   28  C   UNL     1       4.617  26.918  49.807  1.00  0.00     0.116 A 
HETATM   29  N   UNL     1       4.437  28.245  49.950  1.00  0.00    -0.273 NA
HETATM   30  C   UNL     1       4.846  28.778  51.118  1.00  0.00     0.116 A 
HETATM   31  C   UNL     1       5.422  28.047  52.149  1.00  0.00     0.027 A 
ENDBRANCH  23  26
ENDBRANCH  22  23
ENDBRANCH   1  22
TORSDOF 6
ENDMDL
MODEL 6
REMARK VINA RESULT:      -8.8      2.902      3.528
REMARK  6 active torsions:
REMARK  status: ('A' for Active; 'I' for Inactive)
REMARK    1  A    between atoms: C_2  and  C_3 
REMARK    2  A    between atoms: C_2  and  C_9 
REMARK    3  A    between atoms: C_9  and  N_10 
REMARK       I    between atoms: N_10  and  C_11 
REMARK       I    between atoms: C_11  and  N_12 
REMARK    4  A    between atoms: N_12  and  C_13 
REMARK    5  A    between atoms: C_15  and  N_16 
REMARK       I    between atoms: N_16  and  C_17 
REMARK    6  A    between atoms: C_17  and  C_18 
ROOT
HETATM    1  N   UNL     1       6.135  25.757  55.272  1.00  0.00    -0.342 N 
HETATM    2  C   UNL     1       6.124  27.094  55.606  1.00  0.00     0.320 C 
HETATM    3  N   UNL     1       4.832  27.570  55.631  1.00  0.00    -0.309 N 
HETATM    4  O   UNL     1       7.146  27.746  55.771  1.00  0.00    -0.247 OA
HETATM    5  H   UNL     1       5.312  25.210  55.476  1.00  0.00     0.164 HD
HETATM    6  H   UNL     1       4.167  27.001  55.126  1.00  0.00     0.170 HD
ENDROOT
BRANCH   3   7
HETATM    7  C   UNL     1       4.435  28.895  55.897  1.00  0.00     0.038 A 
HETATM    8  C   UNL     1       4.618  29.367  57.206  1.00  0.00     0.059 A 
HETATM    9  C   UNL     1       4.204  30.650  57.573  1.00  0.00     0.037 A 
HETATM   10  C   UNL     1       3.651  31.484  56.595  1.00  0.00     0.029 A 
HETATM   11  C   UNL     1       3.493  31.033  55.283  1.00  0.00     0.004 A 
HETATM   12  C   UNL     1       3.877  29.737  54.937  1.00  0.00     0.029 A 
BRANCH   9  13
HETATM   13  N   UNL     1       4.271  31.155  58.891  1.00  0.00    -0.323 N 
HETATM   14  C   UNL     1       5.069  32.187  59.358  1.00  0.00     0.258 C 
HETATM   15  O   UNL     1       5.790  32.897  58.664  1.00  0.00    -0.267 OA
HETATM   16  H   UNL     1       3.702  30.670  59.567  1.00  0.00     0.169 HD
BRANCH  14  17
HETATM   17  C   UNL     1       5.023  32.398  60.804  1.00  0.00     0.056 A 
HETATM   18  C   UNL     1       3.925  32.473  61.640  1.00  0.00     0.158 A 
HETATM   19  O   UNL     1       4.306  32.663  62.931  1.00  0.00    -0.334 OA
HETATM   20  C   UNL     1       5.660  32.712  62.943  1.00  0.00     0.142 A 
HETATM   21  C   UNL     1       6.151  32.557  61.669  1.00  0.00     0.043 A 
ENDBRANCH  14  17
ENDBRANCH   9  13
ENDBRANCH   3   7
BRANCH   1  22
HETATM   22  C   UNL     1       7.352  25.063  54.882  1.00  0.00     0.138 C 
BRANCH  22  23
HETATM   23  C   UNL     1       7.183  24.227  53.574  1.00  0.00    -0.004 C 
HETATM   24  C   UNL     1       8.070  24.790  52.437  1.00  0.00     0.021 C 
HETATM   25  C   UNL     1       5.714  24.350  53.098  1.00  0.00     0.021 C 
BRANCH  23  26
HETATM   26  C   UNL     1       7.601  22.769  53.854  1.00  0.00    -0.046 A 
HETATM   27  C   UNL     1       7.967  21.922  52.794  1.00  0.00     0.027 A 
HETATM   28  C   UNL     1       8.325  20.607  53.057  1.00  0.00     0.116 A 
HETATM   29  N   UNL     1       8.351  20.069  54.291  1.00  0.00    -0.273 NA
HETATM   30  C   UNL     1       8.000  20.885  55.303  1.00  0.00     0.116 A 
HETATM   31  C   UNL     1       7.628  22.214  55.140  1.00  0.00     0.027 A 
ENDBRANCH  23  26
ENDBRANCH  22  23
ENDBRANCH   1  22
TORSDOF 6
ENDMDL
MODEL 7
REMARK VINA RESULT:      -8.8      4.519      6.572
REMARK  6 active torsions:
REMARK  status: ('A' for Active; 'I' for Inactive)
REMARK    1  A    between atoms: C_2  and  C_3 
REMARK    2  A    between atoms: C_2  and  C_9 
REMARK    3  A    between atoms: C_9  and  N_10 
REMARK       I    between atoms: N_10  and  C_11 
REMARK       I    between atoms: C_11  and  N_12 
REMARK    4  A    between atoms: N_12  and  C_13 
REMARK    5  A    between atoms: C_15  and  N_16 
REMARK       I    between atoms: N_16  and  C_17 
REMARK    6  A    between atoms: C_17  and  C_18 
ROOT
HETATM    1  N   UNL     1       4.684  26.239  51.882  1.00  0.00    -0.342 N 
HETATM    2  C   UNL     1       5.668  26.104  52.838  1.00  0.00     0.320 C 
HETATM    3  N   UNL     1       5.140  26.290  54.097  1.00  0.00    -0.309 N 
HETATM    4  O   UNL     1       6.845  25.922  52.559  1.00  0.00    -0.247 OA
HETATM    5  H   UNL     1       3.731  26.051  52.152  1.00  0.00     0.164 HD
HETATM    6  H   UNL     1       4.256  26.778  54.111  1.00  0.00     0.170 HD
ENDROOT
BRANCH   3   7
HETATM    7  C   UNL     1       5.850  26.261  55.313  1.00  0.00     0.038 A 
HETATM    8  C   UNL     1       6.200  27.497  55.878  1.00  0.00     0.059 A 
HETATM    9  C   UNL     1       6.951  27.564  57.054  1.00  0.00     0.037 A 
HETATM   10  C   UNL     1       7.305  26.371  57.695  1.00  0.00     0.029 A 
HETATM   11  C   UNL     1       6.934  25.137  57.155  1.00  0.00     0.004 A 
HETATM   12  C   UNL     1       6.216  25.083  55.960  1.00  0.00     0.029 A 
BRANCH   9  13
HETATM   13  N   UNL     1       7.417  28.768  57.627  1.00  0.00    -0.323 N 
HETATM   14  C   UNL     1       8.714  29.257  57.625  1.00  0.00     0.258 C 
HETATM   15  O   UNL     1       9.661  28.751  57.033  1.00  0.00    -0.267 OA
HETATM   16  H   UNL     1       6.725  29.300  58.131  1.00  0.00     0.169 HD
BRANCH  14  17
HETATM   17  C   UNL     1       8.919  30.467  58.419  1.00  0.00     0.056 A 
HETATM   18  C   UNL     1       9.948  31.388  58.356  1.00  0.00     0.158 A 
HETATM   19  O   UNL     1       9.765  32.389  59.257  1.00  0.00    -0.334 OA
HETATM   20  C   UNL     1       8.609  32.125  59.913  1.00  0.00     0.142 A 
HETATM   21  C   UNL     1       8.051  30.962  59.442  1.00  0.00     0.043 A 
ENDBRANCH  14  17
ENDBRANCH   9  13
ENDBRANCH   3   7
BRANCH   1  22
HETATM   22  C   UNL     1       4.990  26.390  50.468  1.00  0.00     0.138 C 
BRANCH  22  23
HETATM   23  C   UNL     1       4.385  27.690  49.849  1.00  0.00    -0.004 C 
HETATM   24  C   UNL     1       5.478  28.530  49.145  1.00  0.00     0.021 C 
HETATM   25  C   UNL     1       3.821  28.564  50.998  1.00  0.00     0.021 C 
BRANCH  23  26
HETATM   26  C   UNL     1       3.313  27.299  48.813  1.00  0.00    -0.046 A 
HETATM   27  C   UNL     1       3.583  26.304  47.858  1.00  0.00     0.027 A 
HETATM   28  C   UNL     1       2.617  25.972  46.919  1.00  0.00     0.116 A 
HETATM   29  N   UNL     1       1.402  26.549  46.856  1.00  0.00    -0.273 NA
HETATM   30  C   UNL     1       1.147  27.502  47.774  1.00  0.00     0.116 A 
HETATM   31  C   UNL     1       2.049  27.901  48.753  1.00  0.00     0.027 A 
ENDBRANCH  23  26
ENDBRANCH  22  23
ENDBRANCH   1  22
TORSDOF 6
ENDMDL
MODEL 8
REMARK VINA RESULT:      -8.7      2.108      2.284
REMARK  6 active torsions:
REMARK  status: ('A' for Active; 'I' for Inactive)
REMARK    1  A    between atoms: C_2  and  C_3 
REMARK    2  A    between atoms: C_2  and  C_9 
REMARK    3  A    between atoms: C_9  and  N_10 
REMARK       I    between atoms: N_10  and  C_11 
REMARK       I    between atoms: C_11  and  N_12 
REMARK    4  A    between atoms: N_12  and  C_13 
REMARK    5  A    between atoms: C_15  and  N_16 
REMARK       I    between atoms: N_16  and  C_17 
REMARK    6  A    between atoms: C_17  and  C_18 
ROOT
HETATM    1  N   UNL     1       7.639  26.427  55.489  1.00  0.00    -0.342 N 
HETATM    2  C   UNL     1       7.440  27.587  56.207  1.00  0.00     0.320 C 
HETATM    3  N   UNL     1       8.645  28.094  56.640  1.00  0.00    -0.309 N 
HETATM    4  O   UNL     1       6.327  28.025  56.466  1.00  0.00    -0.247 OA
HETATM    5  H   UNL     1       8.529  26.300  55.031  1.00  0.00     0.164 HD
HETATM    6  H   UNL     1       9.401  27.425  56.647  1.00  0.00     0.170 HD
ENDROOT
BRANCH   3   7
HETATM    7  C   UNL     1       8.831  29.246  57.430  1.00  0.00     0.038 A 
HETATM    8  C   UNL     1       7.733  29.690  58.182  1.00  0.00     0.059 A 
HETATM    9  C   UNL     1       7.810  30.853  58.951  1.00  0.00     0.037 A 
HETATM   10  C   UNL     1       9.026  31.544  59.006  1.00  0.00     0.029 A 
HETATM   11  C   UNL     1      10.132  31.092  58.284  1.00  0.00     0.004 A 
HETATM   12  C   UNL     1      10.032  29.949  57.490  1.00  0.00     0.029 A 
BRANCH   9  13
HETATM   13  N   UNL     1       6.719  31.408  59.657  1.00  0.00    -0.323 N 
HETATM   14  C   UNL     1       5.875  32.425  59.241  1.00  0.00     0.258 C 
HETATM   15  O   UNL     1       5.889  32.949  58.133  1.00  0.00    -0.267 OA
HETATM   16  H   UNL     1       6.580  31.044  60.587  1.00  0.00     0.169 HD
BRANCH  14  17
HETATM   17  C   UNL     1       4.917  32.883  60.245  1.00  0.00     0.056 A 
HETATM   18  C   UNL     1       4.331  32.176  61.279  1.00  0.00     0.158 A 
HETATM   19  O   UNL     1       3.502  32.970  62.007  1.00  0.00    -0.334 OA
HETATM   20  C   UNL     1       3.545  34.205  61.450  1.00  0.00     0.142 A 
HETATM   21  C   UNL     1       4.393  34.208  60.369  1.00  0.00     0.043 A 
ENDBRANCH  14  17
ENDBRANCH   9  13
ENDBRANCH   3   7
BRANCH   1  22
HETATM   22  C   UNL     1       6.551  25.518  55.164  1.00  0.00     0.138 C 
BRANCH  22  23
HETATM   23  C   UNL     1       6.741  24.811  53.785  1.00  0.00    -0.004 C 
HETATM   24  C   UNL     1       7.739  25.590  52.894  1.00  0.00     0.021 C 
HETATM   25  C   UNL     1       5.382  24.812  53.041  1.00  0.00     0.021 C 
BRANCH  23  26
HETATM   26  C   UNL     1       7.292  23.390  54.022  1.00  0.00    -0.046 A 
HETATM   27  C   UNL     1       7.301  22.843  55.317  1.00  0.00     0.027 A 
HETATM   28  C   UNL     1       7.815  21.570  55.521  1.00  0.00     0.116 A 
HETATM   29  N   UNL     1       8.317  20.797  54.539  1.00  0.00    -0.273 NA
HETATM   30  C   UNL     1       8.305  21.326  53.300  1.00  0.00     0.116 A 
HETATM   31  C   UNL     1       7.811  22.589  52.997  1.00  0.00     0.027 A 
ENDBRANCH  23  26
ENDBRANCH  22  23
ENDBRANCH   1  22
TORSDOF 6
ENDMDL
MODEL 9
REMARK VINA RESULT:      -8.6      2.465     10.498
REMARK  6 active torsions:
REMARK  status: ('A' for Active; 'I' for Inactive)
REMARK    1  A    between atoms: C_2  and  C_3 
REMARK    2  A    between atoms: C_2  and  C_9 
REMARK    3  A    between atoms: C_9  and  N_10 
REMARK       I    between atoms: N_10  and  C_11 
REMARK       I    between atoms: C_11  and  N_12 
REMARK    4  A    between atoms: N_12  and  C_13 
REMARK    5  A    between atoms: C_15  and  N_16 
REMARK       I    between atoms: N_16  and  C_17 
REMARK    6  A    between atoms: C_17  and  C_18 
ROOT
HETATM    1  N   UNL     1       7.885  29.773  59.340  1.00  0.00    -0.342 N 
HETATM    2  C   UNL     1       7.571  29.427  58.043  1.00  0.00     0.320 C 
HETATM    3  N   UNL     1       6.777  28.302  58.026  1.00  0.00    -0.309 N 
HETATM    4  O   UNL     1       8.021  30.018  57.071  1.00  0.00    -0.247 OA
HETATM    5  H   UNL     1       7.251  29.491  60.072  1.00  0.00     0.164 HD
HETATM    6  H   UNL     1       6.810  27.755  58.875  1.00  0.00     0.170 HD
ENDROOT
BRANCH   3   7
HETATM    7  C   UNL     1       6.291  27.639  56.882  1.00  0.00     0.038 A 
HETATM    8  C   UNL     1       6.704  26.312  56.688  1.00  0.00     0.059 A 
HETATM    9  C   UNL     1       6.315  25.596  55.554  1.00  0.00     0.037 A 
HETATM   10  C   UNL     1       5.455  26.207  54.634  1.00  0.00     0.029 A 
HETATM   11  C   UNL     1       5.016  27.517  54.835  1.00  0.00     0.004 A 
HETATM   12  C   UNL     1       5.441  28.235  55.954  1.00  0.00     0.029 A 
BRANCH   9  13
HETATM   13  N   UNL     1       6.767  24.292  55.248  1.00  0.00    -0.323 N 
HETATM   14  C   UNL     1       7.612  23.913  54.218  1.00  0.00     0.258 C 
HETATM   15  O   UNL     1       8.184  24.680  53.451  1.00  0.00    -0.267 OA
HETATM   16  H   UNL     1       6.386  23.559  55.826  1.00  0.00     0.169 HD
BRANCH  14  17
HETATM   17  C   UNL     1       7.794  22.471  54.068  1.00  0.00     0.056 A 
HETATM   18  C   UNL     1       7.809  21.487  55.038  1.00  0.00     0.158 A 
HETATM   19  O   UNL     1       7.991  20.258  54.487  1.00  0.00    -0.334 OA
HETATM   20  C   UNL     1       8.093  20.435  53.147  1.00  0.00     0.142 A 
HETATM   21  C   UNL     1       7.982  21.768  52.836  1.00  0.00     0.043 A 
ENDBRANCH  14  17
ENDBRANCH   9  13
ENDBRANCH   3   7
BRANCH   1  22
HETATM   22  C   UNL     1       8.936  30.726  59.658  1.00  0.00     0.138 C 
BRANCH  22  23
HETATM   23  C   UNL     1       8.872  31.234  61.133  1.00  0.00    -0.004 C 
HETATM   24  C   UNL     1       9.896  32.369  61.373  1.00  0.00     0.021 C 
HETATM   25  C   UNL     1       9.269  30.067  62.072  1.00  0.00     0.021 C 
BRANCH  23  26
HETATM   26  C   UNL     1       7.455  31.774  61.415  1.00  0.00    -0.046 A 
HETATM   27  C   UNL     1       6.807  31.460  62.622  1.00  0.00     0.027 A 
HETATM   28  C   UNL     1       5.525  31.938  62.858  1.00  0.00     0.116 A 
HETATM   29  N   UNL     1       4.839  32.706  61.990  1.00  0.00    -0.273 NA
HETATM   30  C   UNL     1       5.466  33.005  60.835  1.00  0.00     0.116 A 
HETATM   31  C   UNL     1       6.746  32.575  60.510  1.00  0.00     0.027 A 
ENDBRANCH  23  26
ENDBRANCH  22  23
ENDBRANCH   1  22
TORSDOF 6
ENDMDL
MODEL 10
REMARK VINA RESULT:      -8.6      2.871     11.310
REMARK  6 active torsions:
REMARK  status: ('A' for Active; 'I' for Inactive)
REMARK    1  A    between atoms: C_2  and  C_3 
REMARK    2  A    between atoms: C_2  and  C_9 
REMARK    3  A    between atoms: C_9  and  N_10 
REMARK       I    between atoms: N_10  and  C_11 
REMARK       I    between atoms: C_11  and  N_12 
REMARK    4  A    between atoms: N_12  and  C_13 
REMARK    5  A    between atoms: C_15  and  N_16 
REMARK       I    between atoms: N_16  and  C_17 
REMARK    6  A    between atoms: C_17  and  C_18 
ROOT
HETATM    1  N   UNL     1       6.492  31.963  61.276  1.00  0.00    -0.342 N 
HETATM    2  C   UNL     1       7.008  31.738  60.018  1.00  0.00     0.320 C 
HETATM    3  N   UNL     1       7.827  30.630  60.028  1.00  0.00    -0.309 N 
HETATM    4  O   UNL     1       6.804  32.487  59.073  1.00  0.00    -0.247 OA
HETATM    5  H   UNL     1       6.408  31.176  61.902  1.00  0.00     0.164 HD
HETATM    6  H   UNL     1       8.158  30.364  60.944  1.00  0.00     0.170 HD
ENDROOT
BRANCH   3   7
HETATM    7  C   UNL     1       8.554  30.120  58.935  1.00  0.00     0.038 A 
HETATM    8  C   UNL     1       7.959  29.085  58.197  1.00  0.00     0.059 A 
HETATM    9  C   UNL     1       8.630  28.482  57.132  1.00  0.00     0.037 A 
HETATM   10  C   UNL     1       9.893  28.967  56.770  1.00  0.00     0.029 A 
HETATM   11  C   UNL     1      10.479  30.018  57.480  1.00  0.00     0.004 A 
HETATM   12  C   UNL     1       9.814  30.587  58.566  1.00  0.00     0.029 A 
BRANCH   9  13
HETATM   13  N   UNL     1       8.131  27.376  56.407  1.00  0.00    -0.323 N 
HETATM   14  C   UNL     1       7.486  27.393  55.181  1.00  0.00     0.258 C 
HETATM   15  O   UNL     1       7.325  28.385  54.478  1.00  0.00    -0.267 OA
HETATM   16  H   UNL     1       8.222  26.485  56.868  1.00  0.00     0.169 HD
BRANCH  14  17
HETATM   17  C   UNL     1       6.961  26.102  54.741  1.00  0.00     0.056 A 
HETATM   18  C   UNL     1       5.799  25.823  54.048  1.00  0.00     0.158 A 
HETATM   19  O   UNL     1       5.677  24.490  53.814  1.00  0.00    -0.334 OA
HETATM   20  C   UNL     1       6.766  23.891  54.354  1.00  0.00     0.142 A 
HETATM   21  C   UNL     1       7.583  24.829  54.935  1.00  0.00     0.043 A 
ENDBRANCH  14  17
ENDBRANCH   9  13
ENDBRANCH   3   7
BRANCH   1  22
HETATM   22  C   UNL     1       5.842  33.212  61.637  1.00  0.00     0.138 C 
BRANCH  22  23
HETATM   23  C   UNL     1       5.988  33.559  63.153  1.00  0.00    -0.004 C 
HETATM   24  C   UNL     1       7.423  33.265  63.653  1.00  0.00     0.021 C 
HETATM   25  C   UNL     1       5.036  32.640  63.961  1.00  0.00     0.021 C 
BRANCH  23  26
HETATM   26  C   UNL     1       5.688  35.057  63.356  1.00  0.00    -0.046 A 
HETATM   27  C   UNL     1       5.237  35.526  64.602  1.00  0.00     0.027 A 
HETATM   28  C   UNL     1       4.954  36.874  64.768  1.00  0.00     0.116 A 
HETATM   29  N   UNL     1       5.086  37.794  63.794  1.00  0.00    -0.273 NA
HETATM   30  C   UNL     1       5.519  37.340  62.601  1.00  0.00     0.116 A 
HETATM   31  C   UNL     1       5.829  36.011  62.340  1.00  0.00     0.027 A 
ENDBRANCH  23  26
ENDBRANCH  22  23
ENDBRANCH   1  22
TORSDOF 6
ENDMDL
