MODEL 1
REMARK VINA RESULT:     -10.1      0.000      0.000
REMARK  3 active torsions:
REMARK  status: ('A' for Active; 'I' for Inactive)
REMARK    1  A    between atoms: C_7  and  C_8 
REMARK    2  A    between atoms: N_11  and  C_13 
REMARK    3  A    between atoms: C_13  and  C_14 
ROOT
HETATM    1  C   UNL     1       9.273  29.486  56.549  1.00  0.00     0.080 A 
HETATM    2  O   UNL     1       8.734  30.315  57.490  1.00  0.00    -0.302 OA
HETATM    3  C   UNL     1       9.779  30.914  58.129  1.00  0.00     0.155 A 
HETATM    4  C   UNL     1       9.473  31.839  59.161  1.00  0.00     0.125 C 
HETATM    5  N   UNL     1       9.208  32.604  59.991  1.00  0.00    -0.189 NA
HETATM    6  C   UNL     1      10.977  30.488  57.605  1.00  0.00     0.051 A 
HETATM    7  C   UNL     1      10.651  29.562  56.581  1.00  0.00     0.038 A 
ENDROOT
BRANCH   1   8
HETATM    8  C   UNL     1       8.317  28.720  55.713  1.00  0.00     0.299 C 
BRANCH   8   9
HETATM    9  N   UNL     1       7.450  27.735  56.486  1.00  0.00    -0.065 N 
HETATM   10  C   UNL     1       6.192  27.371  55.732  1.00  0.00     0.236 C 
HETATM   11  C   UNL     1       5.399  26.329  56.508  1.00  0.00     0.037 C 
HETATM   12  C   UNL     1       6.227  25.046  56.716  1.00  0.00     0.024 C 
HETATM   13  C   UNL     1       7.450  25.451  57.540  1.00  0.00     0.037 C 
HETATM   14  C   UNL     1       8.283  26.543  56.882  1.00  0.00     0.236 C 
HETATM   15  H   UNL     1       7.157  28.234  57.337  1.00  0.00     0.280 HD
BRANCH  12  16
HETATM   16  C   UNL     1       6.484  24.337  55.393  1.00  0.00    -0.026 A 
HETATM   17  C   UNL     1       7.184  23.113  55.073  1.00  0.00    -0.001 A 
HETATM   18  C   UNL     1       7.234  23.016  53.677  1.00  0.00     0.045 A 
HETATM   19  C   UNL     1       7.807  22.074  55.810  1.00  0.00     0.017 A 
HETATM   20  C   UNL     1       7.922  22.004  52.997  1.00  0.00     0.072 A 
HETATM   21  N   UNL     1       6.486  24.045  53.164  1.00  0.00    -0.365 N 
HETATM   22  C   UNL     1       8.563  21.038  53.763  1.00  0.00     0.118 A 
HETATM   23  C   UNL     1       8.501  21.054  55.146  1.00  0.00     0.043 A 
HETATM   24  F   UNL     1       9.247  20.064  53.149  1.00  0.00    -0.206 F 
HETATM   25  C   UNL     1       6.024  24.831  54.179  1.00  0.00     0.096 A 
HETATM   26  H   UNL     1       6.299  24.186  52.179  1.00  0.00     0.165 HD
ENDBRANCH  12  16
ENDBRANCH   8   9
ENDBRANCH   1   8
TORSDOF 3
ENDMDL
MODEL 2
REMARK VINA RESULT:      -9.7      1.685      2.293
REMARK  3 active torsions:
REMARK  status: ('A' for Active; 'I' for Inactive)
REMARK    1  A    between atoms: C_7  and  C_8 
REMARK    2  A    between atoms: N_11  and  C_13 
REMARK    3  A    between atoms: C_13  and  C_14 
ROOT
HETATM    1  C   UNL     1       7.933  29.697  57.605  1.00  0.00     0.080 A 
HETATM    2  O   UNL     1       8.713  29.558  58.717  1.00  0.00    -0.302 OA
HETATM    3  C   UNL     1       8.279  30.487  59.618  1.00  0.00     0.155 A 
HETATM    4  C   UNL     1       8.935  30.538  60.874  1.00  0.00     0.125 C 
HETATM    5  N   UNL     1       9.470  30.558  61.903  1.00  0.00    -0.189 NA
HETATM    6  C   UNL     1       7.229  31.210  59.100  1.00  0.00     0.051 A 
HETATM    7  C   UNL     1       7.005  30.700  57.796  1.00  0.00     0.038 A 
ENDROOT
BRANCH   1   8
HETATM    8  C   UNL     1       8.219  28.778  56.476  1.00  0.00     0.299 C 
BRANCH   8   9
HETATM    9  N   UNL     1       7.021  27.964  56.005  1.00  0.00    -0.065 N 
HETATM   10  C   UNL     1       7.330  27.165  54.760  1.00  0.00     0.236 C 
HETATM   11  C   UNL     1       6.130  26.312  54.374  1.00  0.00     0.037 C 
HETATM   12  C   UNL     1       5.765  25.327  55.502  1.00  0.00     0.024 C 
HETATM   13  C   UNL     1       5.395  26.180  56.716  1.00  0.00     0.037 C 
HETATM   14  C   UNL     1       6.508  27.126  57.148  1.00  0.00     0.236 C 
HETATM   15  H   UNL     1       6.301  28.654  55.750  1.00  0.00     0.280 HD
BRANCH  12  16
HETATM   16  C   UNL     1       6.857  24.283  55.694  1.00  0.00    -0.026 A 
HETATM   17  C   UNL     1       7.413  23.291  54.799  1.00  0.00    -0.001 A 
HETATM   18  C   UNL     1       8.293  22.502  55.551  1.00  0.00     0.045 A 
HETATM   19  C   UNL     1       7.256  22.952  53.432  1.00  0.00     0.017 A 
HETATM   20  C   UNL     1       8.948  21.375  55.039  1.00  0.00     0.072 A 
HETATM   21  N   UNL     1       8.385  23.060  56.800  1.00  0.00    -0.365 N 
HETATM   22  C   UNL     1       8.721  21.050  53.707  1.00  0.00     0.118 A 
HETATM   23  C   UNL     1       7.903  21.826  52.903  1.00  0.00     0.043 A 
HETATM   24  F   UNL     1       9.314  19.969  53.187  1.00  0.00    -0.206 F 
HETATM   25  C   UNL     1       7.543  24.129  56.891  1.00  0.00     0.096 A 
HETATM   26  H   UNL     1       8.999  22.730  57.535  1.00  0.00     0.165 HD
ENDBRANCH  12  16
ENDBRANCH   8   9
ENDBRANCH   1   8
TORSDOF 3
ENDMDL
MODEL 3
REMARK VINA RESULT:      -9.3      3.776      6.545
REMARK  3 active torsions:
REMARK  status: ('A' for Active; 'I' for Inactive)
REMARK    1  A    between atoms: C_7  and  C_8 
REMARK    2  A    between atoms: N_11  and  C_13 
REMARK    3  A    between atoms: C_13  and  C_14 
ROOT
HETATM    1  C   UNL     1       8.485  23.753  55.344  1.00  0.00     0.080 A 
HETATM    2  O   UNL     1       8.640  22.419  55.099  1.00  0.00    -0.302 OA
HETATM    3  C   UNL     1       8.411  22.236  53.767  1.00  0.00     0.155 A 
HETATM    4  C   UNL     1       8.520  20.916  53.258  1.00  0.00     0.125 C 
HETATM    5  N   UNL     1       8.630  19.835  52.854  1.00  0.00    -0.189 NA
HETATM    6  C   UNL     1       8.119  23.434  53.156  1.00  0.00     0.051 A 
HETATM    7  C   UNL     1       8.166  24.417  54.176  1.00  0.00     0.038 A 
ENDROOT
BRANCH   1   8
HETATM    8  C   UNL     1       8.693  24.200  56.743  1.00  0.00     0.299 C 
BRANCH   8   9
HETATM    9  N   UNL     1       7.590  25.097  57.290  1.00  0.00    -0.065 N 
HETATM   10  C   UNL     1       7.909  26.564  57.110  1.00  0.00     0.236 C 
HETATM   11  C   UNL     1       6.748  27.416  57.601  1.00  0.00     0.037 C 
HETATM   12  C   UNL     1       5.459  27.101  56.815  1.00  0.00     0.024 C 
HETATM   13  C   UNL     1       5.140  25.630  57.082  1.00  0.00     0.037 C 
HETATM   14  C   UNL     1       6.270  24.688  56.688  1.00  0.00     0.236 C 
HETATM   15  H   UNL     1       7.565  24.916  58.303  1.00  0.00     0.280 HD
BRANCH  12  16
HETATM   16  C   UNL     1       5.585  27.532  55.360  1.00  0.00    -0.026 A 
HETATM   17  C   UNL     1       5.340  26.829  54.120  1.00  0.00    -0.001 A 
HETATM   18  C   UNL     1       5.759  27.667  53.078  1.00  0.00     0.045 A 
HETATM   19  C   UNL     1       4.828  25.559  53.754  1.00  0.00     0.017 A 
HETATM   20  C   UNL     1       5.764  27.281  51.732  1.00  0.00     0.072 A 
HETATM   21  N   UNL     1       6.109  28.871  53.632  1.00  0.00    -0.365 N 
HETATM   22  C   UNL     1       5.303  26.006  51.428  1.00  0.00     0.118 A 
HETATM   23  C   UNL     1       4.826  25.156  52.411  1.00  0.00     0.043 A 
HETATM   24  F   UNL     1       5.309  25.595  50.154  1.00  0.00    -0.206 F 
HETATM   25  C   UNL     1       5.997  28.806  54.990  1.00  0.00     0.096 A 
HETATM   26  H   UNL     1       6.395  29.687  53.104  1.00  0.00     0.165 HD
ENDBRANCH  12  16
ENDBRANCH   8   9
ENDBRANCH   1   8
TORSDOF 3
ENDMDL
MODEL 4
REMARK VINA RESULT:      -9.1      1.562      2.162
REMARK  3 active torsions:
REMARK  status: ('A' for Active; 'I' for Inactive)
REMARK    1  A    between atoms: C_7  and  C_8 
REMARK    2  A    between atoms: N_11  and  C_13 
REMARK    3  A    between atoms: C_13  and  C_14 
ROOT
HETATM    1  C   UNL     1       8.991  29.717  58.208  1.00  0.00     0.080 A 
HETATM    2  O   UNL     1       8.388  29.708  59.433  1.00  0.00    -0.302 OA
HETATM    3  C   UNL     1       8.780  30.849  60.070  1.00  0.00     0.155 A 
HETATM    4  C   UNL     1       8.275  31.077  61.376  1.00  0.00     0.125 C 
HETATM    5  N   UNL     1       7.841  31.257  62.436  1.00  0.00    -0.189 NA
HETATM    6  C   UNL     1       9.617  31.590  59.267  1.00  0.00     0.051 A 
HETATM    7  C   UNL     1       9.755  30.857  58.061  1.00  0.00     0.038 A 
ENDROOT
BRANCH   1   8
HETATM    8  C   UNL     1       8.707  28.564  57.320  1.00  0.00     0.299 C 
BRANCH   8   9
HETATM    9  N   UNL     1       7.234  28.376  56.979  1.00  0.00    -0.065 N 
HETATM   10  C   UNL     1       6.907  28.863  55.585  1.00  0.00     0.236 C 
HETATM   11  C   UNL     1       5.446  28.585  55.264  1.00  0.00     0.037 C 
HETATM   12  C   UNL     1       5.141  27.075  55.333  1.00  0.00     0.024 C 
HETATM   13  C   UNL     1       5.421  26.644  56.773  1.00  0.00     0.037 C 
HETATM   14  C   UNL     1       6.845  26.940  57.224  1.00  0.00     0.236 C 
HETATM   15  H   UNL     1       6.720  28.978  57.636  1.00  0.00     0.280 HD
BRANCH  12  16
HETATM   16  C   UNL     1       5.866  26.317  54.228  1.00  0.00    -0.026 A 
HETATM   17  C   UNL     1       6.560  25.049  54.222  1.00  0.00    -0.001 A 
HETATM   18  C   UNL     1       7.162  24.912  52.965  1.00  0.00     0.045 A 
HETATM   19  C   UNL     1       6.769  23.998  55.150  1.00  0.00     0.017 A 
HETATM   20  C   UNL     1       8.003  23.845  52.624  1.00  0.00     0.072 A 
HETATM   21  N   UNL     1       6.748  25.965  52.191  1.00  0.00    -0.365 N 
HETATM   22  C   UNL     1       8.221  22.867  53.586  1.00  0.00     0.118 A 
HETATM   23  C   UNL     1       7.608  22.924  54.827  1.00  0.00     0.043 A 
HETATM   24  F   UNL     1       9.034  21.841  53.304  1.00  0.00    -0.206 F 
HETATM   25  C   UNL     1       5.965  26.802  52.931  1.00  0.00     0.096 A 
HETATM   26  H   UNL     1       6.983  26.089  51.213  1.00  0.00     0.165 HD
ENDBRANCH  12  16
ENDBRANCH   8   9
ENDBRANCH   1   8
TORSDOF 3
ENDMDL
MODEL 5
REMARK VINA RESULT:      -9.1      2.944      4.801
REMARK  3 active torsions:
REMARK  status: ('A' for Active; 'I' for Inactive)
REMARK    1  A    between atoms: C_7  and  C_8 
REMARK    2  A    between atoms: N_11  and  C_13 
REMARK    3  A    between atoms: C_13  and  C_14 
ROOT
HETATM    1  C   UNL     1       4.467  28.433  54.464  1.00  0.00     0.080 A 
HETATM    2  O   UNL     1       4.599  27.327  53.674  1.00  0.00    -0.302 OA
HETATM    3  C   UNL     1       4.829  27.777  52.407  1.00  0.00     0.155 A 
HETATM    4  C   UNL     1       5.009  26.805  51.389  1.00  0.00     0.125 C 
HETATM    5  N   UNL     1       5.171  25.999  50.571  1.00  0.00    -0.189 NA
HETATM    6  C   UNL     1       4.853  29.152  52.377  1.00  0.00     0.051 A 
HETATM    7  C   UNL     1       4.618  29.578  53.709  1.00  0.00     0.038 A 
ENDROOT
BRANCH   1   8
HETATM    8  C   UNL     1       4.213  28.192  55.906  1.00  0.00     0.299 C 
BRANCH   8   9
HETATM    9  N   UNL     1       5.356  27.507  56.643  1.00  0.00    -0.065 N 
HETATM   10  C   UNL     1       5.176  26.008  56.704  1.00  0.00     0.236 C 
HETATM   11  C   UNL     1       6.377  25.364  57.381  1.00  0.00     0.037 C 
HETATM   12  C   UNL     1       7.676  25.663  56.606  1.00  0.00     0.024 C 
HETATM   13  C   UNL     1       7.851  27.183  56.630  1.00  0.00     0.037 C 
HETATM   14  C   UNL     1       6.668  27.934  56.034  1.00  0.00     0.236 C 
HETATM   15  H   UNL     1       5.309  27.856  57.610  1.00  0.00     0.280 HD
BRANCH  12  16
HETATM   16  C   UNL     1       7.671  24.986  55.242  1.00  0.00    -0.026 A 
HETATM   17  C   UNL     1       7.696  23.593  54.856  1.00  0.00    -0.001 A 
HETATM   18  C   UNL     1       7.824  23.552  53.461  1.00  0.00     0.045 A 
HETATM   19  C   UNL     1       7.647  22.348  55.531  1.00  0.00     0.017 A 
HETATM   20  C   UNL     1       7.978  22.364  52.735  1.00  0.00     0.072 A 
HETATM   21  N   UNL     1       7.739  24.840  53.000  1.00  0.00    -0.365 N 
HETATM   22  C   UNL     1       7.978  21.171  53.448  1.00  0.00     0.118 A 
HETATM   23  C   UNL     1       7.801  21.150  54.821  1.00  0.00     0.043 A 
HETATM   24  F   UNL     1       8.142  20.017  52.790  1.00  0.00    -0.206 F 
HETATM   25  C   UNL     1       7.635  25.702  54.052  1.00  0.00     0.096 A 
HETATM   26  H   UNL     1       7.741  25.103  52.022  1.00  0.00     0.165 HD
ENDBRANCH  12  16
ENDBRANCH   8   9
ENDBRANCH   1   8
TORSDOF 3
ENDMDL
MODEL 6
REMARK VINA RESULT:      -8.9      3.998      6.872
REMARK  3 active torsions:
REMARK  status: ('A' for Active; 'I' for Inactive)
REMARK    1  A    between atoms: C_7  and  C_8 
REMARK    2  A    between atoms: N_11  and  C_13 
REMARK    3  A    between atoms: C_13  and  C_14 
ROOT
HETATM    1  C   UNL     1       5.005  26.249  50.653  1.00  0.00     0.080 A 
HETATM    2  O   UNL     1       4.294  25.594  49.689  1.00  0.00    -0.302 OA
HETATM    3  C   UNL     1       4.101  26.484  48.672  1.00  0.00     0.155 A 
HETATM    4  C   UNL     1       3.383  26.034  47.535  1.00  0.00     0.125 C 
HETATM    5  N   UNL     1       2.809  25.647  46.604  1.00  0.00    -0.189 NA
HETATM    6  C   UNL     1       4.686  27.693  48.970  1.00  0.00     0.051 A 
HETATM    7  C   UNL     1       5.271  27.543  50.252  1.00  0.00     0.038 A 
ENDROOT
BRANCH   1   8
HETATM    8  C   UNL     1       5.344  25.472  51.870  1.00  0.00     0.299 C 
BRANCH   8   9
HETATM    9  N   UNL     1       5.850  26.312  53.035  1.00  0.00    -0.065 N 
HETATM   10  C   UNL     1       5.262  25.866  54.355  1.00  0.00     0.236 C 
HETATM   11  C   UNL     1       5.855  26.683  55.494  1.00  0.00     0.037 C 
HETATM   12  C   UNL     1       7.385  26.508  55.562  1.00  0.00     0.024 C 
HETATM   13  C   UNL     1       7.939  27.034  54.237  1.00  0.00     0.037 C 
HETATM   14  C   UNL     1       7.357  26.327  53.020  1.00  0.00     0.236 C 
HETATM   15  H   UNL     1       5.505  27.265  52.858  1.00  0.00     0.280 HD
BRANCH  12  16
HETATM   16  C   UNL     1       7.759  25.085  55.956  1.00  0.00    -0.026 A 
HETATM   17  C   UNL     1       7.963  23.889  55.170  1.00  0.00    -0.001 A 
HETATM   18  C   UNL     1       8.148  22.830  56.068  1.00  0.00     0.045 A 
HETATM   19  C   UNL     1       7.993  23.570  53.789  1.00  0.00     0.017 A 
HETATM   20  C   UNL     1       8.281  21.493  55.669  1.00  0.00     0.072 A 
HETATM   21  N   UNL     1       8.198  23.362  57.331  1.00  0.00    -0.365 N 
HETATM   22  C   UNL     1       8.249  21.224  54.307  1.00  0.00     0.118 A 
HETATM   23  C   UNL     1       8.123  22.238  53.372  1.00  0.00     0.043 A 
HETATM   24  F   UNL     1       8.354  19.957  53.887  1.00  0.00    -0.206 F 
HETATM   25  C   UNL     1       7.979  24.707  57.274  1.00  0.00     0.096 A 
HETATM   26  H   UNL     1       8.382  22.831  58.173  1.00  0.00     0.165 HD
ENDBRANCH  12  16
ENDBRANCH   8   9
ENDBRANCH   1   8
TORSDOF 3
ENDMDL
MODEL 7
REMARK VINA RESULT:      -8.5      3.173      3.984
REMARK  3 active torsions:
REMARK  status: ('A' for Active; 'I' for Inactive)
REMARK    1  A    between atoms: C_7  and  C_8 
REMARK    2  A    between atoms: N_11  and  C_13 
REMARK    3  A    between atoms: C_13  and  C_14 
ROOT
HETATM    1  C   UNL     1       6.251  28.595  54.955  1.00  0.00     0.080 A 
HETATM    2  O   UNL     1       5.179  29.428  55.100  1.00  0.00    -0.302 OA
HETATM    3  C   UNL     1       4.842  29.406  56.422  1.00  0.00     0.155 A 
HETATM    4  C   UNL     1       3.746  30.208  56.832  1.00  0.00     0.125 C 
HETATM    5  N   UNL     1       2.858  30.881  57.156  1.00  0.00    -0.189 NA
HETATM    6  C   UNL     1       5.687  28.578  57.124  1.00  0.00     0.051 A 
HETATM    7  C   UNL     1       6.600  28.052  56.175  1.00  0.00     0.038 A 
ENDROOT
BRANCH   1   8
HETATM    8  C   UNL     1       6.806  28.459  53.586  1.00  0.00     0.299 C 
BRANCH   8   9
HETATM    9  N   UNL     1       6.430  27.165  52.878  1.00  0.00    -0.065 N 
HETATM   10  C   UNL     1       7.623  26.258  52.680  1.00  0.00     0.236 C 
HETATM   11  C   UNL     1       7.184  24.949  52.040  1.00  0.00     0.037 C 
HETATM   12  C   UNL     1       6.160  24.214  52.927  1.00  0.00     0.024 C 
HETATM   13  C   UNL     1       4.947  25.139  53.041  1.00  0.00     0.037 C 
HETATM   14  C   UNL     1       5.288  26.509  53.611  1.00  0.00     0.236 C 
HETATM   15  H   UNL     1       6.107  27.446  51.942  1.00  0.00     0.280 HD
BRANCH  12  16
HETATM   16  C   UNL     1       6.798  23.741  54.227  1.00  0.00    -0.026 A 
HETATM   17  C   UNL     1       7.661  22.620  54.527  1.00  0.00    -0.001 A 
HETATM   18  C   UNL     1       7.826  22.585  55.918  1.00  0.00     0.045 A 
HETATM   19  C   UNL     1       8.311  21.607  53.779  1.00  0.00     0.017 A 
HETATM   20  C   UNL     1       8.525  21.573  56.587  1.00  0.00     0.072 A 
HETATM   21  N   UNL     1       7.219  23.701  56.434  1.00  0.00    -0.365 N 
HETATM   22  C   UNL     1       9.100  20.571  55.814  1.00  0.00     0.118 A 
HETATM   23  C   UNL     1       9.014  20.585  54.432  1.00  0.00     0.043 A 
HETATM   24  F   UNL     1       9.761  19.576  56.418  1.00  0.00    -0.206 F 
HETATM   25  C   UNL     1       6.614  24.403  55.433  1.00  0.00     0.096 A 
HETATM   26  H   UNL     1       7.234  23.963  57.412  1.00  0.00     0.165 HD
ENDBRANCH  12  16
ENDBRANCH   8   9
ENDBRANCH   1   8
TORSDOF 3
ENDMDL
MODEL 8
REMARK VINA RESULT:      -8.4      2.742      3.436
REMARK  3 active torsions:
REMARK  status: ('A' for Active; 'I' for Inactive)
REMARK    1  A    between atoms: C_7  and  C_8 
REMARK    2  A    between atoms: N_11  and  C_13 
REMARK    3  A    between atoms: C_13  and  C_14 
ROOT
HETATM    1  C   UNL     1       4.813  29.984  55.735  1.00  0.00     0.080 A 
HETATM    2  O   UNL     1       4.570  29.921  57.077  1.00  0.00    -0.302 OA
HETATM    3  C   UNL     1       3.787  30.994  57.385  1.00  0.00     0.155 A 
HETATM    4  C   UNL     1       3.387  31.149  58.737  1.00  0.00     0.125 C 
HETATM    5  N   UNL     1       3.055  31.252  59.844  1.00  0.00    -0.189 NA
HETATM    6  C   UNL     1       3.520  31.738  56.259  1.00  0.00     0.051 A 
HETATM    7  C   UNL     1       4.185  31.086  55.190  1.00  0.00     0.038 A 
ENDROOT
BRANCH   1   8
HETATM    8  C   UNL     1       5.651  28.903  55.161  1.00  0.00     0.299 C 
BRANCH   8   9
HETATM    9  N   UNL     1       6.081  27.838  56.160  1.00  0.00    -0.065 N 
HETATM   10  C   UNL     1       5.308  26.551  55.987  1.00  0.00     0.236 C 
HETATM   11  C   UNL     1       5.825  25.496  56.954  1.00  0.00     0.037 C 
HETATM   12  C   UNL     1       7.318  25.201  56.706  1.00  0.00     0.024 C 
HETATM   13  C   UNL     1       8.064  26.511  56.959  1.00  0.00     0.037 C 
HETATM   14  C   UNL     1       7.576  27.659  56.085  1.00  0.00     0.236 C 
HETATM   15  H   UNL     1       5.836  28.214  57.087  1.00  0.00     0.280 HD
BRANCH  12  16
HETATM   16  C   UNL     1       7.528  24.531  55.353  1.00  0.00    -0.026 A 
HETATM   17  C   UNL     1       7.667  23.143  54.975  1.00  0.00    -0.001 A 
HETATM   18  C   UNL     1       7.984  23.115  53.610  1.00  0.00     0.045 A 
HETATM   19  C   UNL     1       7.581  21.893  55.638  1.00  0.00     0.017 A 
HETATM   20  C   UNL     1       8.288  21.940  52.912  1.00  0.00     0.072 A 
HETATM   21  N   UNL     1       7.906  24.402  53.141  1.00  0.00    -0.365 N 
HETATM   22  C   UNL     1       8.244  20.744  53.618  1.00  0.00     0.118 A 
HETATM   23  C   UNL     1       7.883  20.707  54.955  1.00  0.00     0.043 A 
HETATM   24  F   UNL     1       8.546  19.602  52.990  1.00  0.00    -0.206 F 
HETATM   25  C   UNL     1       7.622  25.252  54.170  1.00  0.00     0.096 A 
HETATM   26  H   UNL     1       8.029  24.670  52.173  1.00  0.00     0.165 HD
ENDBRANCH  12  16
ENDBRANCH   8   9
ENDBRANCH   1   8
TORSDOF 3
ENDMDL
MODEL 9
REMARK VINA RESULT:      -8.4      3.622      5.535
REMARK  3 active torsions:
REMARK  status: ('A' for Active; 'I' for Inactive)
REMARK    1  A    between atoms: C_7  and  C_8 
REMARK    2  A    between atoms: N_11  and  C_13 
REMARK    3  A    between atoms: C_13  and  C_14 
ROOT
HETATM    1  C   UNL     1       4.931  27.232  51.482  1.00  0.00     0.080 A 
HETATM    2  O   UNL     1       5.356  28.530  51.481  1.00  0.00    -0.302 OA
HETATM    3  C   UNL     1       5.469  28.904  50.174  1.00  0.00     0.155 A 
HETATM    4  C   UNL     1       5.894  30.231  49.907  1.00  0.00     0.125 C 
HETATM    5  N   UNL     1       6.227  31.323  49.704  1.00  0.00    -0.189 NA
HETATM    6  C   UNL     1       5.115  27.868  49.341  1.00  0.00     0.051 A 
HETATM    7  C   UNL     1       4.767  26.785  50.186  1.00  0.00     0.038 A 
ENDROOT
BRANCH   1   8
HETATM    8  C   UNL     1       4.729  26.601  52.808  1.00  0.00     0.299 C 
BRANCH   8   9
HETATM    9  N   UNL     1       5.596  27.176  53.921  1.00  0.00    -0.065 N 
HETATM   10  C   UNL     1       5.239  26.603  55.273  1.00  0.00     0.236 C 
HETATM   11  C   UNL     1       6.181  27.148  56.337  1.00  0.00     0.037 C 
HETATM   12  C   UNL     1       7.644  26.777  56.025  1.00  0.00     0.024 C 
HETATM   13  C   UNL     1       7.978  27.434  54.685  1.00  0.00     0.037 C 
HETATM   14  C   UNL     1       7.049  27.007  53.557  1.00  0.00     0.236 C 
HETATM   15  H   UNL     1       5.374  28.181  53.952  1.00  0.00     0.280 HD
BRANCH  12  16
HETATM   16  C   UNL     1       7.865  25.274  56.136  1.00  0.00    -0.026 A 
HETATM   17  C   UNL     1       7.902  24.227  55.140  1.00  0.00    -0.001 A 
HETATM   18  C   UNL     1       7.996  23.008  55.823  1.00  0.00     0.045 A 
HETATM   19  C   UNL     1       7.843  24.166  53.725  1.00  0.00     0.017 A 
HETATM   20  C   UNL     1       7.959  21.761  55.186  1.00  0.00     0.072 A 
HETATM   21  N   UNL     1       8.153  23.291  57.155  1.00  0.00    -0.365 N 
HETATM   22  C   UNL     1       7.846  21.751  53.801  1.00  0.00     0.118 A 
HETATM   23  C   UNL     1       7.804  22.927  53.071  1.00  0.00     0.043 A 
HETATM   24  F   UNL     1       7.789  20.579  53.157  1.00  0.00    -0.206 F 
HETATM   25  C   UNL     1       8.089  24.640  57.351  1.00  0.00     0.096 A 
HETATM   26  H   UNL     1       8.305  22.598  57.877  1.00  0.00     0.165 HD
ENDBRANCH  12  16
ENDBRANCH   8   9
ENDBRANCH   1   8
TORSDOF 3
ENDMDL
MODEL 10
REMARK VINA RESULT:      -8.2      3.881      6.294
REMARK  3 active torsions:
REMARK  status: ('A' for Active; 'I' for Inactive)
REMARK    1  A    between atoms: C_7  and  C_8 
REMARK    2  A    between atoms: N_11  and  C_13 
REMARK    3  A    between atoms: C_13  and  C_14 
ROOT
HETATM    1  C   UNL     1       5.089  27.940  50.861  1.00  0.00     0.080 A 
HETATM    2  O   UNL     1       3.907  28.357  50.318  1.00  0.00    -0.302 OA
HETATM    3  C   UNL     1       3.514  27.388  49.443  1.00  0.00     0.155 A 
HETATM    4  C   UNL     1       2.294  27.588  48.748  1.00  0.00     0.125 C 
HETATM    5  N   UNL     1       1.286  27.757  48.199  1.00  0.00    -0.189 NA
HETATM    6  C   UNL     1       4.423  26.355  49.424  1.00  0.00     0.051 A 
HETATM    7  C   UNL     1       5.444  26.712  50.341  1.00  0.00     0.038 A 
ENDROOT
BRANCH   1   8
HETATM    8  C   UNL     1       5.715  28.841  51.859  1.00  0.00     0.299 C 
BRANCH   8   9
HETATM    9  N   UNL     1       5.819  28.255  53.261  1.00  0.00    -0.065 N 
HETATM   10  C   UNL     1       5.030  26.974  53.402  1.00  0.00     0.236 C 
HETATM   11  C   UNL     1       5.227  26.389  54.793  1.00  0.00     0.037 C 
HETATM   12  C   UNL     1       6.712  26.074  55.056  1.00  0.00     0.024 C 
HETATM   13  C   UNL     1       7.457  27.407  54.971  1.00  0.00     0.037 C 
HETATM   14  C   UNL     1       7.272  28.114  53.635  1.00  0.00     0.236 C 
HETATM   15  H   UNL     1       5.381  28.949  53.882  1.00  0.00     0.280 HD
BRANCH  12  16
HETATM   16  C   UNL     1       7.202  24.945  54.158  1.00  0.00    -0.026 A 
HETATM   17  C   UNL     1       7.480  23.551  54.424  1.00  0.00    -0.001 A 
HETATM   18  C   UNL     1       8.044  23.012  53.260  1.00  0.00     0.045 A 
HETATM   19  C   UNL     1       7.337  22.678  55.531  1.00  0.00     0.017 A 
HETATM   20  C   UNL     1       8.532  21.702  53.174  1.00  0.00     0.072 A 
HETATM   21  N   UNL     1       7.988  23.977  52.288  1.00  0.00    -0.365 N 
HETATM   22  C   UNL     1       8.419  20.900  54.304  1.00  0.00     0.118 A 
HETATM   23  C   UNL     1       7.821  21.364  55.463  1.00  0.00     0.043 A 
HETATM   24  F   UNL     1       8.890  19.648  54.266  1.00  0.00    -0.206 F 
HETATM   25  C   UNL     1       7.476  25.129  52.809  1.00  0.00     0.096 A 
HETATM   26  H   UNL     1       8.274  23.842  51.326  1.00  0.00     0.165 HD
ENDBRANCH  12  16
ENDBRANCH   8   9
ENDBRANCH   1   8
TORSDOF 3
ENDMDL
