MODEL 1
REMARK VINA RESULT:      -8.5      0.000      0.000
REMARK  6 active torsions:
REMARK  status: ('A' for Active; 'I' for Inactive)
REMARK    1  A    between atoms: C_2  and  N_3 
REMARK    2  A    between atoms: C_2  and  C_16 
REMARK    3  A    between atoms: N_3  and  C_6 
REMARK    4  A    between atoms: C_16  and  C_17 
REMARK       I    between atoms: C_17  and  N_18 
REMARK    5  A    between atoms: N_18  and  C_19 
REMARK    6  A    between atoms: C_21  and  O_22 
ROOT
HETATM    1  C   UNL     1       5.944  28.718  54.607  1.00  0.00     0.040 C 
HETATM    2  C   UNL     1       6.938  28.093  55.579  1.00  0.00     0.191 C 
ENDROOT
BRANCH   2   3
HETATM    3  N   UNL     1       7.482  26.800  55.017  1.00  0.00    -0.063 N 
HETATM    4  H   UNL     1       7.797  27.015  54.046  1.00  0.00     0.278 HD
HETATM    5  H   UNL     1       8.360  26.603  55.515  1.00  0.00     0.278 HD
BRANCH   3   6
HETATM    6  C   UNL     1       6.653  25.543  54.981  1.00  0.00     0.221 C 
HETATM    7  C   UNL     1       7.420  24.312  54.579  1.00  0.00    -0.011 A 
HETATM    8  C   UNL     1       8.349  23.745  55.464  1.00  0.00     0.009 A 
HETATM    9  C   UNL     1       7.211  23.711  53.324  1.00  0.00     0.011 A 
HETATM   10  C   UNL     1       9.099  22.634  55.069  1.00  0.00     0.019 A 
HETATM   11  S   UNL     1       8.640  24.444  57.075  1.00  0.00    -0.129 SA
HETATM   12  C   UNL     1       8.902  22.060  53.814  1.00  0.00     0.001 A 
HETATM   13  C   UNL     1       7.953  22.592  52.945  1.00  0.00     0.001 A 
HETATM   14  C   UNL     1       6.995  25.098  57.509  1.00  0.00     0.082 C 
HETATM   15  C   UNL     1       6.016  25.307  56.355  1.00  0.00     0.048 C 
ENDBRANCH   3   6
ENDBRANCH   2   3
BRANCH   2  16
HETATM   16  C   UNL     1       8.028  29.081  56.012  1.00  0.00     0.135 C 
BRANCH  16  17
HETATM   17  C   UNL     1       8.041  29.251  57.514  1.00  0.00     0.224 C 
HETATM   18  N   UNL     1       8.201  30.561  57.907  1.00  0.00    -0.327 N 
HETATM   19  H   UNL     1       8.469  31.237  57.200  1.00  0.00     0.169 HD
HETATM   20  O   UNL     1       7.964  28.260  58.235  1.00  0.00    -0.273 OA
BRANCH  18  21
HETATM   21  C   UNL     1       8.177  31.058  59.228  1.00  0.00     0.037 A 
HETATM   22  C   UNL     1       7.039  31.605  59.830  1.00  0.00     0.066 A 
HETATM   23  C   UNL     1       7.108  32.113  61.132  1.00  0.00     0.070 A 
HETATM   24  C   UNL     1       8.299  32.027  61.851  1.00  0.00     0.037 A 
HETATM   25  C   UNL     1       9.438  31.487  61.259  1.00  0.00     0.005 A 
HETATM   26  C   UNL     1       9.380  31.019  59.945  1.00  0.00     0.029 A 
BRANCH  23  27
HETATM   27  O   UNL     1       6.063  32.688  61.804  1.00  0.00    -0.356 OA
HETATM   28  C   UNL     1       5.613  31.979  62.954  1.00  0.00     0.210 C 
ENDBRANCH  23  27
ENDBRANCH  18  21
ENDBRANCH  16  17
ENDBRANCH   2  16
TORSDOF 6
ENDMDL
MODEL 2
REMARK VINA RESULT:      -8.2      4.394      8.250
REMARK  6 active torsions:
REMARK  status: ('A' for Active; 'I' for Inactive)
REMARK    1  A    between atoms: C_2  and  N_3 
REMARK    2  A    between atoms: C_2  and  C_16 
REMARK    3  A    between atoms: N_3  and  C_6 
REMARK    4  A    between atoms: C_16  and  C_17 
REMARK       I    between atoms: C_17  and  N_18 
REMARK    5  A    between atoms: N_18  and  C_19 
REMARK    6  A    between atoms: C_21  and  O_22 
ROOT
HETATM    1  C   UNL     1       6.680  28.826  55.521  1.00  0.00     0.040 C 
HETATM    2  C   UNL     1       6.408  27.844  54.388  1.00  0.00     0.191 C 
ENDROOT
BRANCH   2   3
HETATM    3  N   UNL     1       7.165  26.555  54.615  1.00  0.00    -0.063 N 
HETATM    4  H   UNL     1       7.868  26.493  53.847  1.00  0.00     0.278 HD
HETATM    5  H   UNL     1       7.742  26.690  55.455  1.00  0.00     0.278 HD
BRANCH   3   6
HETATM    6  C   UNL     1       6.457  25.230  54.721  1.00  0.00     0.221 C 
HETATM    7  C   UNL     1       7.330  24.041  54.425  1.00  0.00    -0.011 A 
HETATM    8  C   UNL     1       8.319  23.652  55.341  1.00  0.00     0.009 A 
HETATM    9  C   UNL     1       7.163  23.301  53.240  1.00  0.00     0.011 A 
HETATM   10  C   UNL     1       9.165  22.581  55.041  1.00  0.00     0.019 A 
HETATM   11  S   UNL     1       8.564  24.532  56.869  1.00  0.00    -0.129 SA
HETATM   12  C   UNL     1       9.006  21.869  53.853  1.00  0.00     0.001 A 
HETATM   13  C   UNL     1       8.001  22.222  52.957  1.00  0.00     0.001 A 
HETATM   14  C   UNL     1       6.871  25.073  57.272  1.00  0.00     0.082 C 
HETATM   15  C   UNL     1       5.862  25.075  56.125  1.00  0.00     0.048 C 
ENDBRANCH   3   6
ENDBRANCH   2   3
BRANCH   2  16
HETATM   16  C   UNL     1       4.909  27.638  54.142  1.00  0.00     0.135 C 
BRANCH  16  17
HETATM   17  C   UNL     1       4.522  28.079  52.747  1.00  0.00     0.224 C 
HETATM   18  N   UNL     1       5.267  27.469  51.764  1.00  0.00    -0.327 N 
HETATM   19  H   UNL     1       6.090  26.948  52.047  1.00  0.00     0.169 HD
HETATM   20  O   UNL     1       3.656  28.938  52.605  1.00  0.00    -0.273 OA
BRANCH  18  21
HETATM   21  C   UNL     1       5.101  27.606  50.368  1.00  0.00     0.037 A 
HETATM   22  C   UNL     1       4.676  26.568  49.532  1.00  0.00     0.066 A 
HETATM   23  C   UNL     1       4.574  26.773  48.152  1.00  0.00     0.070 A 
HETATM   24  C   UNL     1       4.846  28.031  47.613  1.00  0.00     0.037 A 
HETATM   25  C   UNL     1       5.273  29.069  48.437  1.00  0.00     0.005 A 
HETATM   26  C   UNL     1       5.415  28.851  49.808  1.00  0.00     0.029 A 
BRANCH  23  27
HETATM   27  O   UNL     1       4.191  25.822  47.245  1.00  0.00    -0.356 OA
HETATM   28  C   UNL     1       2.840  25.385  47.354  1.00  0.00     0.210 C 
ENDBRANCH  23  27
ENDBRANCH  18  21
ENDBRANCH  16  17
ENDBRANCH   2  16
TORSDOF 6
ENDMDL
MODEL 3
REMARK VINA RESULT:      -8.1      2.133      3.253
REMARK  6 active torsions:
REMARK  status: ('A' for Active; 'I' for Inactive)
REMARK    1  A    between atoms: C_2  and  N_3 
REMARK    2  A    between atoms: C_2  and  C_16 
REMARK    3  A    between atoms: N_3  and  C_6 
REMARK    4  A    between atoms: C_16  and  C_17 
REMARK       I    between atoms: C_17  and  N_18 
REMARK    5  A    between atoms: N_18  and  C_19 
REMARK    6  A    between atoms: C_21  and  O_22 
ROOT
HETATM    1  C   UNL     1       4.992  30.471  56.819  1.00  0.00     0.040 C 
HETATM    2  C   UNL     1       5.953  29.664  57.683  1.00  0.00     0.191 C 
ENDROOT
BRANCH   2   3
HETATM    3  N   UNL     1       6.203  28.306  57.067  1.00  0.00    -0.063 N 
HETATM    4  H   UNL     1       5.838  27.607  57.750  1.00  0.00     0.278 HD
HETATM    5  H   UNL     1       5.562  28.216  56.269  1.00  0.00     0.278 HD
BRANCH   3   6
HETATM    6  C   UNL     1       7.580  27.874  56.635  1.00  0.00     0.221 C 
HETATM    7  C   UNL     1       7.740  26.385  56.492  1.00  0.00    -0.011 A 
HETATM    8  C   UNL     1       7.129  25.714  55.422  1.00  0.00     0.009 A 
HETATM    9  C   UNL     1       8.508  25.652  57.414  1.00  0.00     0.011 A 
HETATM   10  C   UNL     1       7.235  24.325  55.320  1.00  0.00     0.019 A 
HETATM   11  S   UNL     1       6.166  26.589  54.208  1.00  0.00    -0.129 SA
HETATM   12  C   UNL     1       7.978  23.603  56.253  1.00  0.00     0.001 A 
HETATM   13  C   UNL     1       8.622  24.266  57.294  1.00  0.00     0.001 A 
HETATM   14  C   UNL     1       7.025  28.195  54.126  1.00  0.00     0.082 C 
HETATM   15  C   UNL     1       7.934  28.545  55.302  1.00  0.00     0.048 C 
ENDBRANCH   3   6
ENDBRANCH   2   3
BRANCH   2  16
HETATM   16  C   UNL     1       7.239  30.436  58.003  1.00  0.00     0.135 C 
BRANCH  16  17
HETATM   17  C   UNL     1       7.011  31.429  59.122  1.00  0.00     0.224 C 
HETATM   18  N   UNL     1       7.189  30.882  60.372  1.00  0.00    -0.327 N 
HETATM   19  H   UNL     1       7.269  29.874  60.440  1.00  0.00     0.169 HD
HETATM   20  O   UNL     1       6.654  32.573  58.850  1.00  0.00    -0.273 OA
BRANCH  18  21
HETATM   21  C   UNL     1       7.127  31.560  61.610  1.00  0.00     0.037 A 
HETATM   22  C   UNL     1       5.949  31.732  62.342  1.00  0.00     0.066 A 
HETATM   23  C   UNL     1       5.965  32.452  63.542  1.00  0.00     0.070 A 
HETATM   24  C   UNL     1       7.169  32.954  64.036  1.00  0.00     0.037 A 
HETATM   25  C   UNL     1       8.346  32.790  63.312  1.00  0.00     0.005 A 
HETATM   26  C   UNL     1       8.322  32.109  62.094  1.00  0.00     0.029 A 
BRANCH  23  27
HETATM   27  O   UNL     1       4.868  32.697  64.323  1.00  0.00    -0.356 OA
HETATM   28  C   UNL     1       5.055  33.664  65.351  1.00  0.00     0.210 C 
ENDBRANCH  23  27
ENDBRANCH  18  21
ENDBRANCH  16  17
ENDBRANCH   2  16
TORSDOF 6
ENDMDL
MODEL 4
REMARK VINA RESULT:      -8.0      2.679      4.449
REMARK  6 active torsions:
REMARK  status: ('A' for Active; 'I' for Inactive)
REMARK    1  A    between atoms: C_2  and  N_3 
REMARK    2  A    between atoms: C_2  and  C_16 
REMARK    3  A    between atoms: N_3  and  C_6 
REMARK    4  A    between atoms: C_16  and  C_17 
REMARK       I    between atoms: C_17  and  N_18 
REMARK    5  A    between atoms: N_18  and  C_19 
REMARK    6  A    between atoms: C_21  and  O_22 
ROOT
HETATM    1  C   UNL     1       9.990  30.438  57.868  1.00  0.00     0.040 C 
HETATM    2  C   UNL     1       8.720  30.448  58.710  1.00  0.00     0.191 C 
ENDROOT
BRANCH   2   3
HETATM    3  N   UNL     1       7.808  29.314  58.303  1.00  0.00    -0.063 N 
HETATM    4  H   UNL     1       7.820  28.634  59.094  1.00  0.00     0.278 HD
HETATM    5  H   UNL     1       6.848  29.680  58.319  1.00  0.00     0.278 HD
BRANCH   3   6
HETATM    6  C   UNL     1       8.016  28.553  57.019  1.00  0.00     0.221 C 
HETATM    7  C   UNL     1       7.346  27.206  56.987  1.00  0.00    -0.011 A 
HETATM    8  C   UNL     1       5.949  27.121  56.880  1.00  0.00     0.009 A 
HETATM    9  C   UNL     1       8.103  26.023  57.051  1.00  0.00     0.011 A 
HETATM   10  C   UNL     1       5.324  25.872  56.905  1.00  0.00     0.019 A 
HETATM   11  S   UNL     1       4.937  28.581  56.770  1.00  0.00    -0.129 SA
HETATM   12  C   UNL     1       6.083  24.705  56.993  1.00  0.00     0.001 A 
HETATM   13  C   UNL     1       7.471  24.780  57.057  1.00  0.00     0.001 A 
HETATM   14  C   UNL     1       6.021  29.727  55.858  1.00  0.00     0.082 C 
HETATM   15  C   UNL     1       7.511  29.390  55.838  1.00  0.00     0.048 C 
ENDBRANCH   3   6
ENDBRANCH   2   3
BRANCH   2  16
HETATM   16  C   UNL     1       9.019  30.485  60.214  1.00  0.00     0.135 C 
BRANCH  16  17
HETATM   17  C   UNL     1       8.261  31.606  60.891  1.00  0.00     0.224 C 
HETATM   18  N   UNL     1       7.814  31.271  62.149  1.00  0.00    -0.327 N 
HETATM   19  H   UNL     1       7.865  30.297  62.425  1.00  0.00     0.169 HD
HETATM   20  O   UNL     1       8.066  32.655  60.283  1.00  0.00    -0.273 OA
BRANCH  18  21
HETATM   21  C   UNL     1       7.148  32.117  63.064  1.00  0.00     0.037 A 
HETATM   22  C   UNL     1       5.757  32.241  63.133  1.00  0.00     0.066 A 
HETATM   23  C   UNL     1       5.175  33.132  64.042  1.00  0.00     0.070 A 
HETATM   24  C   UNL     1       5.982  33.858  64.918  1.00  0.00     0.037 A 
HETATM   25  C   UNL     1       7.368  33.743  64.853  1.00  0.00     0.005 A 
HETATM   26  C   UNL     1       7.949  32.886  63.918  1.00  0.00     0.029 A 
BRANCH  23  27
HETATM   27  O   UNL     1       3.830  33.346  64.176  1.00  0.00    -0.356 OA
HETATM   28  C   UNL     1       3.469  34.492  64.941  1.00  0.00     0.210 C 
ENDBRANCH  23  27
ENDBRANCH  18  21
ENDBRANCH  16  17
ENDBRANCH   2  16
TORSDOF 6
ENDMDL
MODEL 5
REMARK VINA RESULT:      -8.0      6.236      9.075
REMARK  6 active torsions:
REMARK  status: ('A' for Active; 'I' for Inactive)
REMARK    1  A    between atoms: C_2  and  N_3 
REMARK    2  A    between atoms: C_2  and  C_16 
REMARK    3  A    between atoms: N_3  and  C_6 
REMARK    4  A    between atoms: C_16  and  C_17 
REMARK       I    between atoms: C_17  and  N_18 
REMARK    5  A    between atoms: N_18  and  C_19 
REMARK    6  A    between atoms: C_21  and  O_22 
ROOT
HETATM    1  C   UNL     1       3.869  28.879  53.970  1.00  0.00     0.040 C 
HETATM    2  C   UNL     1       4.040  27.780  52.928  1.00  0.00     0.191 C 
ENDROOT
BRANCH   2   3
HETATM    3  N   UNL     1       3.405  28.191  51.620  1.00  0.00    -0.063 N 
HETATM    4  H   UNL     1       2.596  27.548  51.476  1.00  0.00     0.278 HD
HETATM    5  H   UNL     1       2.959  29.104  51.776  1.00  0.00     0.278 HD
BRANCH   3   6
HETATM    6  C   UNL     1       4.198  28.252  50.340  1.00  0.00     0.221 C 
HETATM    7  C   UNL     1       3.583  27.488  49.199  1.00  0.00    -0.011 A 
HETATM    8  C   UNL     1       2.425  27.974  48.574  1.00  0.00     0.009 A 
HETATM    9  C   UNL     1       4.161  26.291  48.739  1.00  0.00     0.011 A 
HETATM   10  C   UNL     1       1.825  27.237  47.550  1.00  0.00     0.019 A 
HETATM   11  S   UNL     1       1.661  29.495  49.093  1.00  0.00    -0.129 SA
HETATM   12  C   UNL     1       2.392  26.039  47.117  1.00  0.00     0.001 A 
HETATM   13  C   UNL     1       3.564  25.570  47.704  1.00  0.00     0.001 A 
HETATM   14  C   UNL     1       3.098  30.483  49.621  1.00  0.00     0.082 C 
HETATM   15  C   UNL     1       4.384  29.714  49.919  1.00  0.00     0.048 C 
ENDBRANCH   3   6
ENDBRANCH   2   3
BRANCH   2  16
HETATM   16  C   UNL     1       5.500  27.333  52.787  1.00  0.00     0.135 C 
BRANCH  16  17
HETATM   17  C   UNL     1       5.657  25.871  53.139  1.00  0.00     0.224 C 
HETATM   18  N   UNL     1       6.970  25.495  53.311  1.00  0.00    -0.327 N 
HETATM   19  H   UNL     1       7.690  26.148  53.022  1.00  0.00     0.169 HD
HETATM   20  O   UNL     1       4.662  25.152  53.190  1.00  0.00    -0.273 OA
BRANCH  18  21
HETATM   21  C   UNL     1       7.443  24.228  53.718  1.00  0.00     0.037 A 
HETATM   22  C   UNL     1       7.730  23.898  55.046  1.00  0.00     0.066 A 
HETATM   23  C   UNL     1       8.233  22.631  55.363  1.00  0.00     0.070 A 
HETATM   24  C   UNL     1       8.398  21.677  54.359  1.00  0.00     0.037 A 
HETATM   25  C   UNL     1       8.118  21.999  53.033  1.00  0.00     0.005 A 
HETATM   26  C   UNL     1       7.656  23.276  52.713  1.00  0.00     0.029 A 
BRANCH  23  27
HETATM   27  O   UNL     1       8.568  22.213  56.622  1.00  0.00    -0.356 OA
HETATM   28  C   UNL     1       8.401  20.821  56.868  1.00  0.00     0.210 C 
ENDBRANCH  23  27
ENDBRANCH  18  21
ENDBRANCH  16  17
ENDBRANCH   2  16
TORSDOF 6
ENDMDL
MODEL 6
REMARK VINA RESULT:      -8.0      4.491      7.444
REMARK  6 active torsions:
REMARK  status: ('A' for Active; 'I' for Inactive)
REMARK    1  A    between atoms: C_2  and  N_3 
REMARK    2  A    between atoms: C_2  and  C_16 
REMARK    3  A    between atoms: N_3  and  C_6 
REMARK    4  A    between atoms: C_16  and  C_17 
REMARK       I    between atoms: C_17  and  N_18 
REMARK    5  A    between atoms: N_18  and  C_19 
REMARK    6  A    between atoms: C_21  and  O_22 
ROOT
HETATM    1  C   UNL     1       8.125  30.988  62.703  1.00  0.00     0.040 C 
HETATM    2  C   UNL     1       7.257  31.649  61.640  1.00  0.00     0.191 C 
ENDROOT
BRANCH   2   3
HETATM    3  N   UNL     1       7.320  30.868  60.348  1.00  0.00    -0.063 N 
HETATM    4  H   UNL     1       7.968  30.069  60.523  1.00  0.00     0.278 HD
HETATM    5  H   UNL     1       6.406  30.412  60.228  1.00  0.00     0.278 HD
BRANCH   3   6
HETATM    6  C   UNL     1       7.710  31.520  59.047  1.00  0.00     0.221 C 
HETATM    7  C   UNL     1       8.784  30.787  58.289  1.00  0.00    -0.011 A 
HETATM    8  C   UNL     1       8.488  29.569  57.658  1.00  0.00     0.009 A 
HETATM    9  C   UNL     1      10.085  31.312  58.194  1.00  0.00     0.011 A 
HETATM   10  C   UNL     1       9.498  28.862  57.001  1.00  0.00     0.019 A 
HETATM   11  S   UNL     1       6.855  28.865  57.721  1.00  0.00    -0.129 SA
HETATM   12  C   UNL     1      10.791  29.380  56.932  1.00  0.00     0.001 A 
HETATM   13  C   UNL     1      11.083  30.607  57.521  1.00  0.00     0.001 A 
HETATM   14  C   UNL     1       5.800  30.352  57.746  1.00  0.00     0.082 C 
HETATM   15  C   UNL     1       6.475  31.661  58.151  1.00  0.00     0.048 C 
ENDBRANCH   3   6
ENDBRANCH   2   3
BRANCH   2  16
HETATM   16  C   UNL     1       5.828  31.907  62.132  1.00  0.00     0.135 C 
BRANCH  16  17
HETATM   17  C   UNL     1       5.772  33.128  63.023  1.00  0.00     0.224 C 
HETATM   18  N   UNL     1       5.079  32.910  64.192  1.00  0.00    -0.327 N 
HETATM   19  H   UNL     1       4.537  32.057  64.269  1.00  0.00     0.169 HD
HETATM   20  O   UNL     1       6.275  34.180  62.637  1.00  0.00    -0.273 OA
BRANCH  18  21
HETATM   21  C   UNL     1       4.914  33.818  65.261  1.00  0.00     0.037 A 
HETATM   22  C   UNL     1       5.834  33.962  66.305  1.00  0.00     0.066 A 
HETATM   23  C   UNL     1       5.578  34.858  67.349  1.00  0.00     0.070 A 
HETATM   24  C   UNL     1       4.429  35.648  67.323  1.00  0.00     0.037 A 
HETATM   25  C   UNL     1       3.506  35.508  66.289  1.00  0.00     0.005 A 
HETATM   26  C   UNL     1       3.741  34.585  65.270  1.00  0.00     0.029 A 
BRANCH  23  27
HETATM   27  O   UNL     1       6.398  35.059  68.427  1.00  0.00    -0.356 OA
HETATM   28  C   UNL     1       5.823  34.761  69.695  1.00  0.00     0.210 C 
ENDBRANCH  23  27
ENDBRANCH  18  21
ENDBRANCH  16  17
ENDBRANCH   2  16
TORSDOF 6
ENDMDL
MODEL 7
REMARK VINA RESULT:      -7.7      2.580      9.400
REMARK  6 active torsions:
REMARK  status: ('A' for Active; 'I' for Inactive)
REMARK    1  A    between atoms: C_2  and  N_3 
REMARK    2  A    between atoms: C_2  and  C_16 
REMARK    3  A    between atoms: N_3  and  C_6 
REMARK    4  A    between atoms: C_16  and  C_17 
REMARK       I    between atoms: C_17  and  N_18 
REMARK    5  A    between atoms: N_18  and  C_19 
REMARK    6  A    between atoms: C_21  and  O_22 
ROOT
HETATM    1  C   UNL     1       5.660  29.935  57.377  1.00  0.00     0.040 C 
HETATM    2  C   UNL     1       7.002  30.108  58.077  1.00  0.00     0.191 C 
ENDROOT
BRANCH   2   3
HETATM    3  N   UNL     1       6.816  30.797  59.410  1.00  0.00    -0.063 N 
HETATM    4  H   UNL     1       5.786  30.876  59.554  1.00  0.00     0.278 HD
HETATM    5  H   UNL     1       7.108  30.131  60.136  1.00  0.00     0.278 HD
BRANCH   3   6
HETATM    6  C   UNL     1       7.441  32.137  59.702  1.00  0.00     0.221 C 
HETATM    7  C   UNL     1       7.334  32.564  61.140  1.00  0.00    -0.011 A 
HETATM    8  C   UNL     1       8.106  31.924  62.121  1.00  0.00     0.009 A 
HETATM    9  C   UNL     1       6.474  33.611  61.518  1.00  0.00     0.011 A 
HETATM   10  C   UNL     1       7.967  32.286  63.463  1.00  0.00     0.019 A 
HETATM   11  S   UNL     1       9.232  30.610  61.703  1.00  0.00    -0.129 SA
HETATM   12  C   UNL     1       7.093  33.309  63.831  1.00  0.00     0.001 A 
HETATM   13  C   UNL     1       6.354  33.977  62.859  1.00  0.00     0.001 A 
HETATM   14  C   UNL     1       9.791  31.104  60.040  1.00  0.00     0.082 C 
HETATM   15  C   UNL     1       8.919  32.113  59.297  1.00  0.00     0.048 C 
ENDBRANCH   3   6
ENDBRANCH   2   3
BRANCH   2  16
HETATM   16  C   UNL     1       7.785  28.793  58.172  1.00  0.00     0.135 C 
BRANCH  16  17
HETATM   17  C   UNL     1       7.779  28.061  56.848  1.00  0.00     0.224 C 
HETATM   18  N   UNL     1       7.242  26.797  56.933  1.00  0.00    -0.327 N 
HETATM   19  H   UNL     1       7.077  26.414  57.858  1.00  0.00     0.169 HD
HETATM   20  O   UNL     1       8.274  28.598  55.860  1.00  0.00    -0.273 OA
BRANCH  18  21
HETATM   21  C   UNL     1       7.023  25.895  55.868  1.00  0.00     0.037 A 
HETATM   22  C   UNL     1       7.902  24.860  55.535  1.00  0.00     0.066 A 
HETATM   23  C   UNL     1       7.633  24.034  54.439  1.00  0.00     0.070 A 
HETATM   24  C   UNL     1       6.458  24.209  53.708  1.00  0.00     0.037 A 
HETATM   25  C   UNL     1       5.579  25.239  54.030  1.00  0.00     0.005 A 
HETATM   26  C   UNL     1       5.869  26.090  55.097  1.00  0.00     0.029 A 
BRANCH  23  27
HETATM   27  O   UNL     1       8.435  23.009  54.015  1.00  0.00    -0.356 OA
HETATM   28  C   UNL     1       7.856  22.143  53.044  1.00  0.00     0.210 C 
ENDBRANCH  23  27
ENDBRANCH  18  21
ENDBRANCH  16  17
ENDBRANCH   2  16
TORSDOF 6
ENDMDL
MODEL 8
REMARK VINA RESULT:      -7.7      3.567      8.259
REMARK  6 active torsions:
REMARK  status: ('A' for Active; 'I' for Inactive)
REMARK    1  A    between atoms: C_2  and  N_3 
REMARK    2  A    between atoms: C_2  and  C_16 
REMARK    3  A    between atoms: N_3  and  C_6 
REMARK    4  A    between atoms: C_16  and  C_17 
REMARK       I    between atoms: C_17  and  N_18 
REMARK    5  A    between atoms: N_18  and  C_19 
REMARK    6  A    between atoms: C_21  and  O_22 
ROOT
HETATM    1  C   UNL     1       3.319  30.081  52.788  1.00  0.00     0.040 C 
HETATM    2  C   UNL     1       4.541  29.346  53.324  1.00  0.00     0.191 C 
ENDROOT
BRANCH   2   3
HETATM    3  N   UNL     1       5.020  29.985  54.607  1.00  0.00    -0.063 N 
HETATM    4  H   UNL     1       6.048  30.125  54.495  1.00  0.00     0.278 HD
HETATM    5  H   UNL     1       4.649  30.943  54.622  1.00  0.00     0.278 HD
BRANCH   3   6
HETATM    6  C   UNL     1       4.771  29.347  55.950  1.00  0.00     0.221 C 
HETATM    7  C   UNL     1       5.917  29.481  56.915  1.00  0.00    -0.011 A 
HETATM    8  C   UNL     1       6.204  30.727  57.494  1.00  0.00     0.009 A 
HETATM    9  C   UNL     1       6.704  28.367  57.258  1.00  0.00     0.011 A 
HETATM   10  C   UNL     1       7.301  30.862  58.349  1.00  0.00     0.019 A 
HETATM   11  S   UNL     1       5.230  32.169  57.120  1.00  0.00    -0.129 SA
HETATM   12  C   UNL     1       8.090  29.756  58.664  1.00  0.00     0.001 A 
HETATM   13  C   UNL     1       7.787  28.508  58.127  1.00  0.00     0.001 A 
HETATM   14  C   UNL     1       3.574  31.453  56.864  1.00  0.00     0.082 C 
HETATM   15  C   UNL     1       3.513  29.954  56.581  1.00  0.00     0.048 C 
ENDBRANCH   3   6
ENDBRANCH   2   3
BRANCH   2  16
HETATM   16  C   UNL     1       4.306  27.835  53.443  1.00  0.00     0.135 C 
BRANCH  16  17
HETATM   17  C   UNL     1       5.616  27.090  53.571  1.00  0.00     0.224 C 
HETATM   18  N   UNL     1       5.473  25.838  54.123  1.00  0.00    -0.327 N 
HETATM   19  H   UNL     1       4.580  25.606  54.546  1.00  0.00     0.169 HD
HETATM   20  O   UNL     1       6.661  27.645  53.239  1.00  0.00    -0.273 OA
BRANCH  18  21
HETATM   21  C   UNL     1       6.486  24.870  54.303  1.00  0.00     0.037 A 
HETATM   22  C   UNL     1       6.785  23.877  53.365  1.00  0.00     0.066 A 
HETATM   23  C   UNL     1       7.778  22.929  53.637  1.00  0.00     0.070 A 
HETATM   24  C   UNL     1       8.508  23.007  54.822  1.00  0.00     0.037 A 
HETATM   25  C   UNL     1       8.215  23.990  55.763  1.00  0.00     0.005 A 
HETATM   26  C   UNL     1       7.196  24.909  55.511  1.00  0.00     0.029 A 
BRANCH  23  27
HETATM   27  O   UNL     1       8.133  21.906  52.800  1.00  0.00    -0.356 OA
HETATM   28  C   UNL     1       7.841  20.597  53.279  1.00  0.00     0.210 C 
ENDBRANCH  23  27
ENDBRANCH  18  21
ENDBRANCH  16  17
ENDBRANCH   2  16
TORSDOF 6
ENDMDL
MODEL 9
REMARK VINA RESULT:      -7.5      4.561     10.426
REMARK  6 active torsions:
REMARK  status: ('A' for Active; 'I' for Inactive)
REMARK    1  A    between atoms: C_2  and  N_3 
REMARK    2  A    between atoms: C_2  and  C_16 
REMARK    3  A    between atoms: N_3  and  C_6 
REMARK    4  A    between atoms: C_16  and  C_17 
REMARK       I    between atoms: C_17  and  N_18 
REMARK    5  A    between atoms: N_18  and  C_19 
REMARK    6  A    between atoms: C_21  and  O_22 
ROOT
HETATM    1  C   UNL     1       7.965  32.750  63.845  1.00  0.00     0.040 C 
HETATM    2  C   UNL     1       7.613  32.557  62.375  1.00  0.00     0.191 C 
ENDROOT
BRANCH   2   3
HETATM    3  N   UNL     1       6.563  33.557  61.949  1.00  0.00    -0.063 N 
HETATM    4  H   UNL     1       6.909  34.491  62.261  1.00  0.00     0.278 HD
HETATM    5  H   UNL     1       6.604  33.618  60.924  1.00  0.00     0.278 HD
BRANCH   3   6
HETATM    6  C   UNL     1       5.122  33.419  62.369  1.00  0.00     0.221 C 
HETATM    7  C   UNL     1       4.747  34.257  63.561  1.00  0.00    -0.011 A 
HETATM    8  C   UNL     1       4.638  35.650  63.433  1.00  0.00     0.009 A 
HETATM    9  C   UNL     1       4.491  33.659  64.809  1.00  0.00     0.011 A 
HETATM   10  C   UNL     1       4.342  36.431  64.553  1.00  0.00     0.019 A 
HETATM   11  S   UNL     1       4.925  36.462  61.876  1.00  0.00    -0.129 SA
HETATM   12  C   UNL     1       4.114  35.831  65.791  1.00  0.00     0.001 A 
HETATM   13  C   UNL     1       4.179  34.446  65.918  1.00  0.00     0.001 A 
HETATM   14  C   UNL     1       4.331  35.219  60.683  1.00  0.00     0.082 C 
HETATM   15  C   UNL     1       4.207  33.785  61.195  1.00  0.00     0.048 C 
ENDBRANCH   3   6
ENDBRANCH   2   3
BRANCH   2  16
HETATM   16  C   UNL     1       8.854  32.550  61.475  1.00  0.00     0.135 C 
BRANCH  16  17
HETATM   17  C   UNL     1       8.520  32.034  60.093  1.00  0.00     0.224 C 
HETATM   18  N   UNL     1       9.414  31.092  59.638  1.00  0.00    -0.327 N 
HETATM   19  H   UNL     1      10.275  30.968  60.158  1.00  0.00     0.169 HD
HETATM   20  O   UNL     1       7.558  32.505  59.489  1.00  0.00    -0.273 OA
BRANCH  18  21
HETATM   21  C   UNL     1       9.339  30.366  58.429  1.00  0.00     0.037 A 
HETATM   22  C   UNL     1       8.303  29.479  58.121  1.00  0.00     0.066 A 
HETATM   23  C   UNL     1       8.322  28.767  56.916  1.00  0.00     0.070 A 
HETATM   24  C   UNL     1       9.348  28.982  55.997  1.00  0.00     0.037 A 
HETATM   25  C   UNL     1      10.385  29.861  56.297  1.00  0.00     0.005 A 
HETATM   26  C   UNL     1      10.388  30.539  57.516  1.00  0.00     0.029 A 
BRANCH  23  27
HETATM   27  O   UNL     1       7.373  27.860  56.527  1.00  0.00    -0.356 OA
HETATM   28  C   UNL     1       6.110  27.985  57.173  1.00  0.00     0.210 C 
ENDBRANCH  23  27
ENDBRANCH  18  21
ENDBRANCH  16  17
ENDBRANCH   2  16
TORSDOF 6
ENDMDL
MODEL 10
REMARK VINA RESULT:      -7.3      1.654      2.007
REMARK  6 active torsions:
REMARK  status: ('A' for Active; 'I' for Inactive)
REMARK    1  A    between atoms: C_2  and  N_3 
REMARK    2  A    between atoms: C_2  and  C_16 
REMARK    3  A    between atoms: N_3  and  C_6 
REMARK    4  A    between atoms: C_16  and  C_17 
REMARK       I    between atoms: C_17  and  N_18 
REMARK    5  A    between atoms: N_18  and  C_19 
REMARK    6  A    between atoms: C_21  and  O_22 
ROOT
HETATM    1  C   UNL     1       4.918  28.541  57.069  1.00  0.00     0.040 C 
HETATM    2  C   UNL     1       6.441  28.498  57.085  1.00  0.00     0.191 C 
ENDROOT
BRANCH   2   3
HETATM    3  N   UNL     1       6.944  27.351  56.238  1.00  0.00    -0.063 N 
HETATM    4  H   UNL     1       7.552  27.777  55.505  1.00  0.00     0.278 HD
HETATM    5  H   UNL     1       7.605  26.818  56.817  1.00  0.00     0.278 HD
BRANCH   3   6
HETATM    6  C   UNL     1       5.998  26.387  55.570  1.00  0.00     0.221 C 
HETATM    7  C   UNL     1       6.505  25.834  54.265  1.00  0.00    -0.011 A 
HETATM    8  C   UNL     1       7.554  24.901  54.260  1.00  0.00     0.009 A 
HETATM    9  C   UNL     1       5.932  26.231  53.044  1.00  0.00     0.011 A 
HETATM   10  C   UNL     1       8.059  24.429  53.046  1.00  0.00     0.019 A 
HETATM   11  S   UNL     1       8.303  24.340  55.773  1.00  0.00    -0.129 SA
HETATM   12  C   UNL     1       7.500  24.847  51.838  1.00  0.00     0.001 A 
HETATM   13  C   UNL     1       6.432  25.741  51.837  1.00  0.00     0.001 A 
HETATM   14  C   UNL     1       6.895  24.374  56.930  1.00  0.00     0.082 C 
HETATM   15  C   UNL     1       5.694  25.223  56.520  1.00  0.00     0.048 C 
ENDBRANCH   3   6
ENDBRANCH   2   3
BRANCH   2  16
HETATM   16  C   UNL     1       7.066  29.849  56.719  1.00  0.00     0.135 C 
BRANCH  16  17
HETATM   17  C   UNL     1       7.045  30.794  57.900  1.00  0.00     0.224 C 
HETATM   18  N   UNL     1       7.696  30.292  59.004  1.00  0.00    -0.327 N 
HETATM   19  H   UNL     1       7.958  29.313  58.994  1.00  0.00     0.169 HD
HETATM   20  O   UNL     1       6.438  31.858  57.811  1.00  0.00    -0.273 OA
BRANCH  18  21
HETATM   21  C   UNL     1       7.919  30.956  60.231  1.00  0.00     0.037 A 
HETATM   22  C   UNL     1       6.905  31.556  60.983  1.00  0.00     0.066 A 
HETATM   23  C   UNL     1       7.215  32.230  62.170  1.00  0.00     0.070 A 
HETATM   24  C   UNL     1       8.530  32.257  62.632  1.00  0.00     0.037 A 
HETATM   25  C   UNL     1       9.547  31.665  61.887  1.00  0.00     0.005 A 
HETATM   26  C   UNL     1       9.244  31.030  60.682  1.00  0.00     0.029 A 
BRANCH  23  27
HETATM   27  O   UNL     1       6.305  32.869  62.968  1.00  0.00    -0.356 OA
HETATM   28  C   UNL     1       6.829  33.417  64.173  1.00  0.00     0.210 C 
ENDBRANCH  23  27
ENDBRANCH  18  21
ENDBRANCH  16  17
ENDBRANCH   2  16
TORSDOF 6
ENDMDL
