MODEL 1
REMARK VINA RESULT:     -10.3      0.000      0.000
REMARK  3 active torsions:
REMARK  status: ('A' for Active; 'I' for Inactive)
REMARK    1  A    between atoms: O_2  and  C_3 
REMARK    2  A    between atoms: C_6  and  C_7 
REMARK       I    between atoms: C_7  and  N_8 
REMARK    3  A    between atoms: C_11  and  C_12 
ROOT
HETATM    1  C   UNL     1       7.002  28.860  56.298  1.00  0.00     0.274 C 
HETATM    2  N   UNL     1       7.148  27.467  56.385  1.00  0.00    -0.343 N 
HETATM    3  C   UNL     1       6.290  26.696  55.492  1.00  0.00     0.154 C 
HETATM    4  C   UNL     1       6.667  25.249  55.436  1.00  0.00     0.001 C 
HETATM    5  C   UNL     1       7.611  24.665  56.194  1.00  0.00    -0.046 C 
HETATM    6  C   UNL     1       8.378  25.476  57.210  1.00  0.00     0.059 C 
HETATM    7  C   UNL     1       7.628  26.759  57.578  1.00  0.00     0.131 C 
HETATM    8  O   UNL     1       6.200  29.373  55.511  1.00  0.00    -0.266 OA
ENDROOT
BRANCH   1   9
HETATM    9  C   UNL     1       7.795  29.789  57.149  1.00  0.00     0.147 A 
HETATM   10  N   UNL     1       7.142  30.647  57.966  1.00  0.00    -0.142 NA
HETATM   11  N   UNL     1       7.860  31.484  58.785  1.00  0.00    -0.124 NA
HETATM   12  C   UNL     1       9.210  31.421  58.789  1.00  0.00     0.185 A 
HETATM   13  C   UNL     1       9.906  30.538  57.987  1.00  0.00     0.062 A 
HETATM   14  C   UNL     1       9.181  29.698  57.148  1.00  0.00     0.043 A 
BRANCH  12  15
HETATM   15  O   UNL     1       9.961  32.243  59.603  1.00  0.00    -0.338 OA
HETATM   16  C   UNL     1       9.659  32.086  60.986  1.00  0.00     0.211 C 
ENDBRANCH  12  15
ENDBRANCH   1   9
BRANCH   5  17
HETATM   17  C   UNL     1       7.944  23.275  56.125  1.00  0.00    -0.002 A 
HETATM   18  C   UNL     1       8.031  22.442  54.963  1.00  0.00     0.003 A 
HETATM   19  C   UNL     1       8.425  21.174  55.395  1.00  0.00     0.043 A 
HETATM   20  C   UNL     1       7.808  22.635  53.581  1.00  0.00     0.014 A 
HETATM   21  C   UNL     1       8.624  20.099  54.518  1.00  0.00     0.030 A 
HETATM   22  N   UNL     1       8.558  21.235  56.763  1.00  0.00    -0.364 N 
HETATM   23  C   UNL     1       8.408  20.324  53.155  1.00  0.00     0.002 A 
HETATM   24  C   UNL     1       8.002  21.572  52.691  1.00  0.00     0.001 A 
HETATM   25  H   UNL     1       8.837  20.458  57.345  1.00  0.00     0.165 HD
HETATM   26  C   UNL     1       8.264  22.494  57.216  1.00  0.00     0.101 A 
ENDBRANCH   5  17
TORSDOF 3
ENDMDL
MODEL 2
REMARK VINA RESULT:      -9.5      2.411      4.052
REMARK  3 active torsions:
REMARK  status: ('A' for Active; 'I' for Inactive)
REMARK    1  A    between atoms: O_2  and  C_3 
REMARK    2  A    between atoms: C_6  and  C_7 
REMARK       I    between atoms: C_7  and  N_8 
REMARK    3  A    between atoms: C_11  and  C_12 
ROOT
HETATM    1  C   UNL     1       9.410  31.399  58.885  1.00  0.00     0.274 C 
HETATM    2  N   UNL     1       8.955  30.243  58.232  1.00  0.00    -0.343 N 
HETATM    3  C   UNL     1       9.747  29.830  57.079  1.00  0.00     0.154 C 
HETATM    4  C   UNL     1       9.380  28.465  56.585  1.00  0.00     0.001 C 
HETATM    5  C   UNL     1       8.365  27.719  57.055  1.00  0.00    -0.046 C 
HETATM    6  C   UNL     1       7.480  28.249  58.156  1.00  0.00     0.059 C 
HETATM    7  C   UNL     1       7.565  29.775  58.253  1.00  0.00     0.131 C 
HETATM    8  O   UNL     1      10.413  32.004  58.493  1.00  0.00    -0.266 OA
ENDROOT
BRANCH   1   9
HETATM    9  C   UNL     1       8.708  31.960  60.072  1.00  0.00     0.147 A 
HETATM   10  N   UNL     1       7.530  32.599  59.894  1.00  0.00    -0.142 NA
HETATM   11  N   UNL     1       6.851  33.089  60.984  1.00  0.00    -0.124 NA
HETATM   12  C   UNL     1       7.353  32.901  62.224  1.00  0.00     0.185 A 
HETATM   13  C   UNL     1       8.540  32.229  62.443  1.00  0.00     0.062 A 
HETATM   14  C   UNL     1       9.234  31.743  61.340  1.00  0.00     0.043 A 
BRANCH  12  15
HETATM   15  O   UNL     1       6.695  33.375  63.340  1.00  0.00    -0.338 OA
HETATM   16  C   UNL     1       7.457  33.248  64.535  1.00  0.00     0.211 C 
ENDBRANCH  12  15
ENDBRANCH   1   9
BRANCH   5  17
HETATM   17  C   UNL     1       8.032  26.420  56.556  1.00  0.00    -0.002 A 
HETATM   18  C   UNL     1       7.625  26.058  55.231  1.00  0.00     0.003 A 
HETATM   19  C   UNL     1       7.449  24.673  55.220  1.00  0.00     0.043 A 
HETATM   20  C   UNL     1       7.382  26.770  54.035  1.00  0.00     0.014 A 
HETATM   21  C   UNL     1       7.061  23.965  54.075  1.00  0.00     0.030 A 
HETATM   22  N   UNL     1       7.725  24.218  56.489  1.00  0.00    -0.364 N 
HETATM   23  C   UNL     1       6.840  24.695  52.903  1.00  0.00     0.002 A 
HETATM   24  C   UNL     1       6.994  26.078  52.881  1.00  0.00     0.001 A 
HETATM   25  H   UNL     1       7.680  23.250  56.771  1.00  0.00     0.165 HD
HETATM   26  C   UNL     1       8.070  25.262  57.305  1.00  0.00     0.101 A 
ENDBRANCH   5  17
TORSDOF 3
ENDMDL
MODEL 3
REMARK VINA RESULT:      -9.5      2.369      4.371
REMARK  3 active torsions:
REMARK  status: ('A' for Active; 'I' for Inactive)
REMARK    1  A    between atoms: O_2  and  C_3 
REMARK    2  A    between atoms: C_6  and  C_7 
REMARK       I    between atoms: C_7  and  N_8 
REMARK    3  A    between atoms: C_11  and  C_12 
ROOT
HETATM    1  C   UNL     1       9.438  31.386  59.015  1.00  0.00     0.274 C 
HETATM    2  N   UNL     1       8.870  30.412  58.179  1.00  0.00    -0.343 N 
HETATM    3  C   UNL     1       9.577  30.184  56.923  1.00  0.00     0.154 C 
HETATM    4  C   UNL     1       9.089  28.970  56.198  1.00  0.00     0.001 C 
HETATM    5  C   UNL     1       8.044  28.212  56.573  1.00  0.00    -0.046 C 
HETATM    6  C   UNL     1       7.250  28.570  57.805  1.00  0.00     0.059 C 
HETATM    7  C   UNL     1       7.451  30.039  58.189  1.00  0.00     0.131 C 
HETATM    8  O   UNL     1      10.464  31.991  58.690  1.00  0.00    -0.266 OA
ENDROOT
BRANCH   1   9
HETATM    9  C   UNL     1       8.833  31.746  60.326  1.00  0.00     0.147 A 
HETATM   10  N   UNL     1       7.954  32.773  60.382  1.00  0.00    -0.142 NA
HETATM   11  N   UNL     1       7.358  33.093  61.578  1.00  0.00    -0.124 NA
HETATM   12  C   UNL     1       7.633  32.360  62.680  1.00  0.00     0.185 A 
HETATM   13  C   UNL     1       8.504  31.289  62.652  1.00  0.00     0.062 A 
HETATM   14  C   UNL     1       9.117  30.970  61.444  1.00  0.00     0.043 A 
BRANCH  12  15
HETATM   15  O   UNL     1       7.048  32.651  63.895  1.00  0.00    -0.338 OA
HETATM   16  C   UNL     1       5.629  32.738  63.825  1.00  0.00     0.211 C 
ENDBRANCH  12  15
ENDBRANCH   1   9
BRANCH   5  17
HETATM   17  C   UNL     1       7.594  27.060  55.853  1.00  0.00    -0.002 A 
HETATM   18  C   UNL     1       7.833  25.680  56.153  1.00  0.00     0.003 A 
HETATM   19  C   UNL     1       7.159  24.928  55.188  1.00  0.00     0.043 A 
HETATM   20  C   UNL     1       8.561  24.988  57.147  1.00  0.00     0.014 A 
HETATM   21  C   UNL     1       7.162  23.527  55.178  1.00  0.00     0.030 A 
HETATM   22  N   UNL     1       6.549  25.817  54.333  1.00  0.00    -0.364 N 
HETATM   23  C   UNL     1       7.881  22.870  56.181  1.00  0.00     0.002 A 
HETATM   24  C   UNL     1       8.575  23.589  57.151  1.00  0.00     0.001 A 
HETATM   25  H   UNL     1       5.987  25.550  53.538  1.00  0.00     0.165 HD
HETATM   26  C   UNL     1       6.809  27.105  54.719  1.00  0.00     0.101 A 
ENDBRANCH   5  17
TORSDOF 3
ENDMDL
MODEL 4
REMARK VINA RESULT:      -9.1      4.777      5.740
REMARK  3 active torsions:
REMARK  status: ('A' for Active; 'I' for Inactive)
REMARK    1  A    between atoms: O_2  and  C_3 
REMARK    2  A    between atoms: C_6  and  C_7 
REMARK       I    between atoms: C_7  and  N_8 
REMARK    3  A    between atoms: C_11  and  C_12 
ROOT
HETATM    1  C   UNL     1       4.851  27.827  50.757  1.00  0.00     0.274 C 
HETATM    2  N   UNL     1       5.400  26.992  51.742  1.00  0.00    -0.343 N 
HETATM    3  C   UNL     1       4.981  25.597  51.677  1.00  0.00     0.154 C 
HETATM    4  C   UNL     1       5.787  24.709  52.572  1.00  0.00     0.001 C 
HETATM    5  C   UNL     1       6.726  25.130  53.437  1.00  0.00    -0.046 C 
HETATM    6  C   UNL     1       7.028  26.602  53.574  1.00  0.00     0.059 C 
HETATM    7  C   UNL     1       5.870  27.458  53.052  1.00  0.00     0.131 C 
HETATM    8  O   UNL     1       4.071  27.387  49.905  1.00  0.00    -0.266 OA
ENDROOT
BRANCH   1   9
HETATM    9  C   UNL     1       5.168  29.280  50.690  1.00  0.00     0.147 A 
HETATM   10  N   UNL     1       6.190  29.692  49.907  1.00  0.00    -0.142 NA
HETATM   11  N   UNL     1       6.471  31.033  49.806  1.00  0.00    -0.124 NA
HETATM   12  C   UNL     1       5.705  31.929  50.467  1.00  0.00     0.185 A 
HETATM   13  C   UNL     1       4.637  31.544  51.253  1.00  0.00     0.062 A 
HETATM   14  C   UNL     1       4.359  30.185  51.366  1.00  0.00     0.043 A 
BRANCH  12  15
HETATM   15  O   UNL     1       5.957  33.283  50.382  1.00  0.00    -0.338 OA
HETATM   16  C   UNL     1       5.683  33.979  51.594  1.00  0.00     0.211 C 
ENDBRANCH  12  15
ENDBRANCH   1   9
BRANCH   5  17
HETATM   17  C   UNL     1       7.476  24.257  54.289  1.00  0.00    -0.002 A 
HETATM   18  C   UNL     1       7.861  22.899  54.045  1.00  0.00     0.003 A 
HETATM   19  C   UNL     1       8.612  22.482  55.146  1.00  0.00     0.043 A 
HETATM   20  C   UNL     1       7.643  21.974  53.000  1.00  0.00     0.014 A 
HETATM   21  C   UNL     1       9.168  21.200  55.246  1.00  0.00     0.030 A 
HETATM   22  N   UNL     1       8.667  23.540  56.024  1.00  0.00    -0.364 N 
HETATM   23  C   UNL     1       8.945  20.310  54.190  1.00  0.00     0.002 A 
HETATM   24  C   UNL     1       8.191  20.689  53.084  1.00  0.00     0.001 A 
HETATM   25  H   UNL     1       9.152  23.522  56.910  1.00  0.00     0.165 HD
HETATM   26  C   UNL     1       7.981  24.614  55.522  1.00  0.00     0.101 A 
ENDBRANCH   5  17
TORSDOF 3
ENDMDL
MODEL 5
REMARK VINA RESULT:      -9.1      4.159      6.267
REMARK  3 active torsions:
REMARK  status: ('A' for Active; 'I' for Inactive)
REMARK    1  A    between atoms: O_2  and  C_3 
REMARK    2  A    between atoms: C_6  and  C_7 
REMARK       I    between atoms: C_7  and  N_8 
REMARK    3  A    between atoms: C_11  and  C_12 
ROOT
HETATM    1  C   UNL     1       5.036  28.202  52.916  1.00  0.00     0.274 C 
HETATM    2  N   UNL     1       5.794  27.184  53.517  1.00  0.00    -0.343 N 
HETATM    3  C   UNL     1       5.657  27.083  54.965  1.00  0.00     0.154 C 
HETATM    4  C   UNL     1       6.270  25.835  55.518  1.00  0.00     0.001 C 
HETATM    5  C   UNL     1       6.973  24.937  54.805  1.00  0.00    -0.046 C 
HETATM    6  C   UNL     1       7.211  25.157  53.332  1.00  0.00     0.059 C 
HETATM    7  C   UNL     1       7.028  26.629  52.951  1.00  0.00     0.131 C 
HETATM    8  O   UNL     1       4.313  28.945  53.587  1.00  0.00    -0.266 OA
ENDROOT
BRANCH   1   9
HETATM    9  C   UNL     1       5.072  28.446  51.448  1.00  0.00     0.147 A 
HETATM   10  N   UNL     1       5.771  29.503  50.976  1.00  0.00    -0.142 NA
HETATM   11  N   UNL     1       5.844  29.720  49.621  1.00  0.00    -0.124 NA
HETATM   12  C   UNL     1       5.242  28.857  48.772  1.00  0.00     0.185 A 
HETATM   13  C   UNL     1       4.543  27.754  49.220  1.00  0.00     0.062 A 
HETATM   14  C   UNL     1       4.458  27.540  50.592  1.00  0.00     0.043 A 
BRANCH  12  15
HETATM   15  O   UNL     1       5.300  29.043  47.407  1.00  0.00    -0.338 OA
HETATM   16  C   UNL     1       4.495  30.126  46.955  1.00  0.00     0.211 C 
ENDBRANCH  12  15
ENDBRANCH   1   9
BRANCH   5  17
HETATM   17  C   UNL     1       7.556  23.755  55.363  1.00  0.00    -0.002 A 
HETATM   18  C   UNL     1       7.871  22.526  54.698  1.00  0.00     0.003 A 
HETATM   19  C   UNL     1       8.458  21.686  55.646  1.00  0.00     0.043 A 
HETATM   20  C   UNL     1       7.711  22.036  53.383  1.00  0.00     0.014 A 
HETATM   21  C   UNL     1       8.908  20.394  55.343  1.00  0.00     0.030 A 
HETATM   22  N   UNL     1       8.486  22.374  56.837  1.00  0.00    -0.364 N 
HETATM   23  C   UNL     1       8.747  19.941  54.030  1.00  0.00     0.002 A 
HETATM   24  C   UNL     1       8.154  20.747  53.062  1.00  0.00     0.001 A 
HETATM   25  H   UNL     1       8.862  22.008  57.700  1.00  0.00     0.165 HD
HETATM   26  C   UNL     1       7.939  23.620  56.681  1.00  0.00     0.101 A 
ENDBRANCH   5  17
TORSDOF 3
ENDMDL
MODEL 6
REMARK VINA RESULT:      -8.9      2.758      4.008
REMARK  3 active torsions:
REMARK  status: ('A' for Active; 'I' for Inactive)
REMARK    1  A    between atoms: O_2  and  C_3 
REMARK    2  A    between atoms: C_6  and  C_7 
REMARK       I    between atoms: C_7  and  N_8 
REMARK    3  A    between atoms: C_11  and  C_12 
ROOT
HETATM    1  C   UNL     1       6.434  29.772  57.134  1.00  0.00     0.274 C 
HETATM    2  N   UNL     1       6.835  28.475  56.778  1.00  0.00    -0.343 N 
HETATM    3  C   UNL     1       8.140  28.068  57.286  1.00  0.00     0.154 C 
HETATM    4  C   UNL     1       8.401  26.606  57.103  1.00  0.00     0.001 C 
HETATM    5  C   UNL     1       7.595  25.752  56.449  1.00  0.00    -0.046 C 
HETATM    6  C   UNL     1       6.319  26.247  55.814  1.00  0.00     0.059 C 
HETATM    7  C   UNL     1       6.362  27.761  55.587  1.00  0.00     0.131 C 
HETATM    8  O   UNL     1       7.152  30.497  57.830  1.00  0.00    -0.266 OA
ENDROOT
BRANCH   1   9
HETATM    9  C   UNL     1       5.134  30.344  56.687  1.00  0.00     0.147 A 
HETATM   10  N   UNL     1       4.037  30.153  57.455  1.00  0.00    -0.142 NA
HETATM   11  N   UNL     1       2.838  30.706  57.075  1.00  0.00    -0.124 NA
HETATM   12  C   UNL     1       2.774  31.460  55.955  1.00  0.00     0.185 A 
HETATM   13  C   UNL     1       3.880  31.697  55.164  1.00  0.00     0.062 A 
HETATM   14  C   UNL     1       5.093  31.127  55.541  1.00  0.00     0.043 A 
BRANCH  12  15
HETATM   15  O   UNL     1       1.587  32.034  55.549  1.00  0.00    -0.338 OA
HETATM   16  C   UNL     1       1.719  33.410  55.210  1.00  0.00     0.211 C 
ENDBRANCH  12  15
ENDBRANCH   1   9
BRANCH   5  17
HETATM   17  C   UNL     1       7.875  24.358  56.282  1.00  0.00    -0.002 A 
HETATM   18  C   UNL     1       7.874  23.595  55.070  1.00  0.00     0.003 A 
HETATM   19  C   UNL     1       8.245  22.291  55.405  1.00  0.00     0.043 A 
HETATM   20  C   UNL     1       7.587  23.877  53.715  1.00  0.00     0.014 A 
HETATM   21  C   UNL     1       8.362  21.266  54.458  1.00  0.00     0.030 A 
HETATM   22  N   UNL     1       8.451  22.265  56.766  1.00  0.00    -0.364 N 
HETATM   23  C   UNL     1       8.084  21.578  53.123  1.00  0.00     0.002 A 
HETATM   24  C   UNL     1       7.699  22.864  52.755  1.00  0.00     0.001 A 
HETATM   25  H   UNL     1       8.733  21.446  57.285  1.00  0.00     0.165 HD
HETATM   26  C   UNL     1       8.224  23.503  57.306  1.00  0.00     0.101 A 
ENDBRANCH   5  17
TORSDOF 3
ENDMDL
MODEL 7
REMARK VINA RESULT:      -8.8      2.871      3.102
REMARK  3 active torsions:
REMARK  status: ('A' for Active; 'I' for Inactive)
REMARK    1  A    between atoms: O_2  and  C_3 
REMARK    2  A    between atoms: C_6  and  C_7 
REMARK       I    between atoms: C_7  and  N_8 
REMARK    3  A    between atoms: C_11  and  C_12 
ROOT
HETATM    1  C   UNL     1       5.324  28.692  54.878  1.00  0.00     0.274 C 
HETATM    2  N   UNL     1       5.730  27.365  55.088  1.00  0.00    -0.343 N 
HETATM    3  C   UNL     1       6.240  26.679  53.906  1.00  0.00     0.154 C 
HETATM    4  C   UNL     1       6.896  25.374  54.234  1.00  0.00     0.001 C 
HETATM    5  C   UNL     1       6.932  24.811  55.454  1.00  0.00    -0.046 C 
HETATM    6  C   UNL     1       6.265  25.492  56.624  1.00  0.00     0.059 C 
HETATM    7  C   UNL     1       5.213  26.501  56.155  1.00  0.00     0.131 C 
HETATM    8  O   UNL     1       5.404  29.219  53.764  1.00  0.00    -0.266 OA
ENDROOT
BRANCH   1   9
HETATM    9  C   UNL     1       4.769  29.528  55.978  1.00  0.00     0.147 A 
HETATM   10  N   UNL     1       3.435  29.741  56.029  1.00  0.00    -0.142 NA
HETATM   11  N   UNL     1       2.904  30.479  57.059  1.00  0.00    -0.124 NA
HETATM   12  C   UNL     1       3.717  30.959  58.027  1.00  0.00     0.185 A 
HETATM   13  C   UNL     1       5.079  30.737  58.019  1.00  0.00     0.062 A 
HETATM   14  C   UNL     1       5.620  30.000  56.970  1.00  0.00     0.043 A 
BRANCH  12  15
HETATM   15  O   UNL     1       3.215  31.699  59.078  1.00  0.00    -0.338 OA
HETATM   16  C   UNL     1       3.891  32.938  59.263  1.00  0.00     0.211 C 
ENDBRANCH  12  15
ENDBRANCH   1   9
BRANCH   5  17
HETATM   17  C   UNL     1       7.559  23.556  55.737  1.00  0.00    -0.002 A 
HETATM   18  C   UNL     1       7.836  22.482  54.831  1.00  0.00     0.003 A 
HETATM   19  C   UNL     1       8.492  21.489  55.561  1.00  0.00     0.043 A 
HETATM   20  C   UNL     1       7.590  22.247  53.459  1.00  0.00     0.014 A 
HETATM   21  C   UNL     1       8.928  20.286  54.988  1.00  0.00     0.030 A 
HETATM   22  N   UNL     1       8.596  21.939  56.857  1.00  0.00    -0.364 N 
HETATM   23  C   UNL     1       8.681  20.088  53.626  1.00  0.00     0.002 A 
HETATM   24  C   UNL     1       8.019  21.052  52.871  1.00  0.00     0.001 A 
HETATM   25  H   UNL     1       9.032  21.423  57.608  1.00  0.00     0.165 HD
HETATM   26  C   UNL     1       8.031  23.181  56.977  1.00  0.00     0.101 A 
ENDBRANCH   5  17
TORSDOF 3
ENDMDL
MODEL 8
REMARK VINA RESULT:      -8.8      2.788      8.771
REMARK  3 active torsions:
REMARK  status: ('A' for Active; 'I' for Inactive)
REMARK    1  A    between atoms: O_2  and  C_3 
REMARK    2  A    between atoms: C_6  and  C_7 
REMARK       I    between atoms: C_7  and  N_8 
REMARK    3  A    between atoms: C_11  and  C_12 
ROOT
HETATM    1  C   UNL     1       6.050  26.073  53.736  1.00  0.00     0.274 C 
HETATM    2  N   UNL     1       6.259  27.121  54.647  1.00  0.00    -0.343 N 
HETATM    3  C   UNL     1       5.528  28.349  54.357  1.00  0.00     0.154 C 
HETATM    4  C   UNL     1       5.578  29.331  55.485  1.00  0.00     0.001 C 
HETATM    5  C   UNL     1       6.298  29.181  56.610  1.00  0.00    -0.046 C 
HETATM    6  C   UNL     1       7.155  27.954  56.805  1.00  0.00     0.059 C 
HETATM    7  C   UNL     1       7.465  27.274  55.468  1.00  0.00     0.131 C 
HETATM    8  O   UNL     1       5.295  26.206  52.768  1.00  0.00    -0.266 OA
ENDROOT
BRANCH   1   9
HETATM    9  C   UNL     1       6.730  24.757  53.882  1.00  0.00     0.147 A 
HETATM   10  N   UNL     1       6.637  24.099  55.060  1.00  0.00    -0.142 NA
HETATM   11  N   UNL     1       7.227  22.866  55.198  1.00  0.00    -0.124 NA
HETATM   12  C   UNL     1       7.869  22.310  54.146  1.00  0.00     0.185 A 
HETATM   13  C   UNL     1       7.958  22.942  52.922  1.00  0.00     0.062 A 
HETATM   14  C   UNL     1       7.371  24.196  52.784  1.00  0.00     0.043 A 
BRANCH  12  15
HETATM   15  O   UNL     1       8.467  21.071  54.250  1.00  0.00    -0.338 OA
HETATM   16  C   UNL     1       8.547  20.383  53.006  1.00  0.00     0.211 C 
ENDBRANCH  12  15
ENDBRANCH   1   9
BRANCH   5  17
HETATM   17  C   UNL     1       6.335  30.142  57.670  1.00  0.00    -0.002 A 
HETATM   18  C   UNL     1       7.483  30.697  58.322  1.00  0.00     0.003 A 
HETATM   19  C   UNL     1       7.016  31.619  59.261  1.00  0.00     0.043 A 
HETATM   20  C   UNL     1       8.879  30.506  58.214  1.00  0.00     0.014 A 
HETATM   21  C   UNL     1       7.870  32.369  60.080  1.00  0.00     0.030 A 
HETATM   22  N   UNL     1       5.642  31.612  59.188  1.00  0.00    -0.364 N 
HETATM   23  C   UNL     1       9.247  32.167  59.942  1.00  0.00     0.002 A 
HETATM   24  C   UNL     1       9.747  31.246  59.025  1.00  0.00     0.001 A 
HETATM   25  H   UNL     1       5.037  32.188  59.756  1.00  0.00     0.165 HD
HETATM   26  C   UNL     1       5.219  30.721  58.238  1.00  0.00     0.101 A 
ENDBRANCH   5  17
TORSDOF 3
ENDMDL
MODEL 9
REMARK VINA RESULT:      -8.7      5.440      8.833
REMARK  3 active torsions:
REMARK  status: ('A' for Active; 'I' for Inactive)
REMARK    1  A    between atoms: O_2  and  C_3 
REMARK    2  A    between atoms: C_6  and  C_7 
REMARK       I    between atoms: C_7  and  N_8 
REMARK    3  A    between atoms: C_11  and  C_12 
ROOT
HETATM    1  C   UNL     1       4.912  33.544  63.122  1.00  0.00     0.274 C 
HETATM    2  N   UNL     1       5.792  32.871  62.260  1.00  0.00    -0.343 N 
HETATM    3  C   UNL     1       5.324  32.725  60.887  1.00  0.00     0.154 C 
HETATM    4  C   UNL     1       6.394  32.241  59.960  1.00  0.00     0.001 C 
HETATM    5  C   UNL     1       7.630  31.865  60.333  1.00  0.00    -0.046 C 
HETATM    6  C   UNL     1       8.025  31.898  61.789  1.00  0.00     0.059 C 
HETATM    7  C   UNL     1       6.794  31.894  62.700  1.00  0.00     0.131 C 
HETATM    8  O   UNL     1       3.826  33.975  62.722  1.00  0.00    -0.266 OA
ENDROOT
BRANCH   1   9
HETATM    9  C   UNL     1       5.235  33.766  64.558  1.00  0.00     0.147 A 
HETATM   10  N   UNL     1       4.241  33.688  65.472  1.00  0.00    -0.142 NA
HETATM   11  N   UNL     1       4.530  33.853  66.805  1.00  0.00    -0.124 NA
HETATM   12  C   UNL     1       5.807  34.063  67.193  1.00  0.00     0.185 A 
HETATM   13  C   UNL     1       6.849  34.121  66.288  1.00  0.00     0.062 A 
HETATM   14  C   UNL     1       6.557  33.966  64.937  1.00  0.00     0.043 A 
BRANCH  12  15
HETATM   15  O   UNL     1       6.132  34.227  68.524  1.00  0.00    -0.338 OA
HETATM   16  C   UNL     1       7.456  34.711  68.720  1.00  0.00     0.211 C 
ENDBRANCH  12  15
ENDBRANCH   1   9
BRANCH   5  17
HETATM   17  C   UNL     1       8.631  31.397  59.425  1.00  0.00    -0.002 A 
HETATM   18  C   UNL     1       8.596  30.231  58.593  1.00  0.00     0.003 A 
HETATM   19  C   UNL     1       9.782  30.216  57.857  1.00  0.00     0.043 A 
HETATM   20  C   UNL     1       7.676  29.178  58.394  1.00  0.00     0.014 A 
HETATM   21  C   UNL     1      10.085  29.216  56.923  1.00  0.00     0.030 A 
HETATM   22  N   UNL     1      10.510  31.321  58.237  1.00  0.00    -0.364 N 
HETATM   23  C   UNL     1       9.150  28.194  56.738  1.00  0.00     0.002 A 
HETATM   24  C   UNL     1       7.963  28.170  57.465  1.00  0.00     0.001 A 
HETATM   25  H   UNL     1      11.415  31.565  57.862  1.00  0.00     0.165 HD
HETATM   26  C   UNL     1       9.830  32.036  59.186  1.00  0.00     0.101 A 
ENDBRANCH   5  17
TORSDOF 3
ENDMDL
MODEL 10
REMARK VINA RESULT:      -8.7      4.002      4.438
REMARK  3 active torsions:
REMARK  status: ('A' for Active; 'I' for Inactive)
REMARK    1  A    between atoms: O_2  and  C_3 
REMARK    2  A    between atoms: C_6  and  C_7 
REMARK       I    between atoms: C_7  and  N_8 
REMARK    3  A    between atoms: C_11  and  C_12 
ROOT
HETATM    1  C   UNL     1       5.604  28.575  53.007  1.00  0.00     0.274 C 
HETATM    2  N   UNL     1       5.975  27.311  53.490  1.00  0.00    -0.343 N 
HETATM    3  C   UNL     1       6.897  26.568  52.638  1.00  0.00     0.154 C 
HETATM    4  C   UNL     1       7.460  25.357  53.313  1.00  0.00     0.001 C 
HETATM    5  C   UNL     1       7.095  24.908  54.527  1.00  0.00    -0.046 C 
HETATM    6  C   UNL     1       6.031  25.631  55.315  1.00  0.00     0.059 C 
HETATM    7  C   UNL     1       5.161  26.503  54.405  1.00  0.00     0.131 C 
HETATM    8  O   UNL     1       6.042  29.007  51.936  1.00  0.00    -0.266 OA
ENDROOT
BRANCH   1   9
HETATM    9  C   UNL     1       4.661  29.455  53.751  1.00  0.00     0.147 A 
HETATM   10  N   UNL     1       4.687  29.447  55.104  1.00  0.00    -0.142 NA
HETATM   11  N   UNL     1       3.850  30.281  55.804  1.00  0.00    -0.124 NA
HETATM   12  C   UNL     1       3.030  31.123  55.135  1.00  0.00     0.185 A 
HETATM   13  C   UNL     1       2.998  31.175  53.756  1.00  0.00     0.062 A 
HETATM   14  C   UNL     1       3.837  30.322  53.044  1.00  0.00     0.043 A 
BRANCH  12  15
HETATM   15  O   UNL     1       2.181  31.977  55.808  1.00  0.00    -0.338 OA
HETATM   16  C   UNL     1       1.465  32.850  54.941  1.00  0.00     0.211 C 
ENDBRANCH  12  15
ENDBRANCH   1   9
BRANCH   5  17
HETATM   17  C   UNL     1       7.645  23.740  55.144  1.00  0.00    -0.002 A 
HETATM   18  C   UNL     1       7.945  22.477  54.538  1.00  0.00     0.003 A 
HETATM   19  C   UNL     1       8.499  21.667  55.532  1.00  0.00     0.043 A 
HETATM   20  C   UNL     1       7.798  21.934  53.242  1.00  0.00     0.014 A 
HETATM   21  C   UNL     1       8.927  20.355  55.292  1.00  0.00     0.030 A 
HETATM   22  N   UNL     1       8.520  22.406  56.693  1.00  0.00    -0.364 N 
HETATM   23  C   UNL     1       8.780  19.849  53.997  1.00  0.00     0.002 A 
HETATM   24  C   UNL     1       8.220  20.625  52.985  1.00  0.00     0.001 A 
HETATM   25  H   UNL     1       8.874  22.069  57.577  1.00  0.00     0.165 HD
HETATM   26  C   UNL     1       8.002  23.654  56.474  1.00  0.00     0.101 A 
ENDBRANCH   5  17
TORSDOF 3
ENDMDL
