MODEL 1
REMARK VINA RESULT:      -8.5      0.000      0.000
REMARK  5 active torsions:
REMARK  status: ('A' for Active; 'I' for Inactive)
REMARK    1  A    between atoms: C_3  and  N_4 
REMARK       I    between atoms: N_4  and  C_5 
REMARK       I    between atoms: C_5  and  N_6 
REMARK    2  A    between atoms: N_6  and  C_7 
REMARK    3  A    between atoms: C_7  and  C_8 
REMARK    4  A    between atoms: C_8  and  O_9 
REMARK    5  A    between atoms: O_9  and  C_10 
ROOT
HETATM    1  N   UNL     1       8.416  27.992  56.664  1.00  0.00    -0.307 N 
HETATM    2  C   UNL     1       8.037  26.770  57.133  1.00  0.00     0.320 C 
HETATM    3  N   UNL     1       7.774  25.838  56.171  1.00  0.00    -0.340 N 
HETATM    4  O   UNL     1       7.970  26.431  58.308  1.00  0.00    -0.247 OA
HETATM    5  H   UNL     1       9.047  27.887  55.878  1.00  0.00     0.170 HD
HETATM    6  H   UNL     1       7.531  24.963  56.620  1.00  0.00     0.164 HD
ENDROOT
BRANCH   3   7
HETATM    7  C   UNL     1       7.170  26.036  54.852  1.00  0.00     0.156 C 
BRANCH   7   8
HETATM    8  C   UNL     1       6.815  24.786  54.019  1.00  0.00     0.142 C 
HETATM    9  C   UNL     1       5.397  24.936  53.464  1.00  0.00     0.042 C 
BRANCH   8  10
HETATM   10  O   UNL     1       6.883  23.647  54.885  1.00  0.00    -0.343 OA
BRANCH  10  11
HETATM   11  C   UNL     1       7.518  22.504  54.484  1.00  0.00     0.091 A 
HETATM   12  C   UNL     1       8.197  21.783  55.481  1.00  0.00     0.067 A 
HETATM   13 CL   UNL     1       8.200  22.313  57.128  1.00  0.00    -0.081 Cl
HETATM   14  C   UNL     1       8.885  20.606  55.173  1.00  0.00     0.026 A 
HETATM   15  C   UNL     1       8.909  20.140  53.861  1.00  0.00     0.002 A 
HETATM   16  C   UNL     1       8.249  20.852  52.863  1.00  0.00     0.003 A 
HETATM   17  C   UNL     1       7.557  22.029  53.170  1.00  0.00     0.038 A 
ENDBRANCH  10  11
ENDBRANCH   8  10
ENDBRANCH   7   8
ENDBRANCH   3   7
BRANCH   1  18
HETATM   18  C   UNL     1       8.575  29.178  57.418  1.00  0.00     0.059 A 
HETATM   19  C   UNL     1       9.765  29.905  57.576  1.00  0.00    -0.032 A 
HETATM   20  C   UNL     1      11.091  29.521  56.984  1.00  0.00     0.050 C 
HETATM   21  C   UNL     1       9.727  31.078  58.352  1.00  0.00     0.028 A 
HETATM   22  C   UNL     1       8.550  31.445  58.985  1.00  0.00     0.117 A 
HETATM   23  N   UNL     1       7.411  30.737  58.904  1.00  0.00    -0.271 NA
HETATM   24  C   UNL     1       7.454  29.631  58.124  1.00  0.00     0.146 A 
ENDBRANCH   1  18
TORSDOF 5
ENDMDL
MODEL 2
REMARK VINA RESULT:      -8.5      3.275      5.214
REMARK  5 active torsions:
REMARK  status: ('A' for Active; 'I' for Inactive)
REMARK    1  A    between atoms: C_3  and  N_4 
REMARK       I    between atoms: N_4  and  C_5 
REMARK       I    between atoms: C_5  and  N_6 
REMARK    2  A    between atoms: N_6  and  C_7 
REMARK    3  A    between atoms: C_7  and  C_8 
REMARK    4  A    between atoms: C_8  and  O_9 
REMARK    5  A    between atoms: O_9  and  C_10 
ROOT
HETATM    1  N   UNL     1       5.944  26.685  54.511  1.00  0.00    -0.307 N 
HETATM    2  C   UNL     1       5.287  27.114  55.625  1.00  0.00     0.320 C 
HETATM    3  N   UNL     1       5.603  26.449  56.775  1.00  0.00    -0.340 N 
HETATM    4  O   UNL     1       4.503  28.053  55.692  1.00  0.00    -0.247 OA
HETATM    5  H   UNL     1       6.913  26.489  54.729  1.00  0.00     0.170 HD
HETATM    6  H   UNL     1       5.087  26.860  57.544  1.00  0.00     0.164 HD
ENDROOT
BRANCH   3   7
HETATM    7  C   UNL     1       5.932  25.032  56.946  1.00  0.00     0.156 C 
BRANCH   7   8
HETATM    8  C   UNL     1       7.410  24.607  56.810  1.00  0.00     0.142 C 
HETATM    9  C   UNL     1       8.308  25.732  57.327  1.00  0.00     0.042 C 
BRANCH   8  10
HETATM   10  O   UNL     1       7.672  24.370  55.422  1.00  0.00    -0.343 OA
BRANCH  10  11
HETATM   11  C   UNL     1       7.777  23.094  54.940  1.00  0.00     0.091 A 
HETATM   12  C   UNL     1       7.997  22.965  53.557  1.00  0.00     0.067 A 
HETATM   13 CL   UNL     1       8.151  24.354  52.538  1.00  0.00    -0.081 Cl
HETATM   14  C   UNL     1       8.110  21.704  52.964  1.00  0.00     0.026 A 
HETATM   15  C   UNL     1       7.993  20.557  53.745  1.00  0.00     0.002 A 
HETATM   16  C   UNL     1       7.764  20.674  55.114  1.00  0.00     0.003 A 
HETATM   17  C   UNL     1       7.655  21.935  55.710  1.00  0.00     0.038 A 
ENDBRANCH  10  11
ENDBRANCH   8  10
ENDBRANCH   7   8
ENDBRANCH   3   7
BRANCH   1  18
HETATM   18  C   UNL     1       5.684  27.066  53.175  1.00  0.00     0.059 A 
HETATM   19  C   UNL     1       5.129  26.253  52.175  1.00  0.00    -0.032 A 
HETATM   20  C   UNL     1       4.739  24.814  52.357  1.00  0.00     0.050 C 
HETATM   21  C   UNL     1       4.925  26.813  50.901  1.00  0.00     0.028 A 
HETATM   22  C   UNL     1       5.332  28.114  50.649  1.00  0.00     0.117 A 
HETATM   23  N   UNL     1       5.924  28.897  51.567  1.00  0.00    -0.271 NA
HETATM   24  C   UNL     1       6.079  28.356  52.798  1.00  0.00     0.146 A 
ENDBRANCH   1  18
TORSDOF 5
ENDMDL
MODEL 3
REMARK VINA RESULT:      -8.5      2.470      8.112
REMARK  5 active torsions:
REMARK  status: ('A' for Active; 'I' for Inactive)
REMARK    1  A    between atoms: C_3  and  N_4 
REMARK       I    between atoms: N_4  and  C_5 
REMARK       I    between atoms: C_5  and  N_6 
REMARK    2  A    between atoms: N_6  and  C_7 
REMARK    3  A    between atoms: C_7  and  C_8 
REMARK    4  A    between atoms: C_8  and  O_9 
REMARK    5  A    between atoms: O_9  and  C_10 
ROOT
HETATM    1  N   UNL     1       7.214  24.020  56.033  1.00  0.00    -0.307 N 
HETATM    2  C   UNL     1       8.071  24.628  56.900  1.00  0.00     0.320 C 
HETATM    3  N   UNL     1       7.579  25.743  57.514  1.00  0.00    -0.340 N 
HETATM    4  O   UNL     1       9.191  24.239  57.209  1.00  0.00    -0.247 OA
HETATM    5  H   UNL     1       6.276  24.012  56.414  1.00  0.00     0.170 HD
HETATM    6  H   UNL     1       8.277  26.100  58.156  1.00  0.00     0.164 HD
ENDROOT
BRANCH   3   7
HETATM    7  C   UNL     1       6.673  26.756  56.970  1.00  0.00     0.156 C 
BRANCH   7   8
HETATM    8  C   UNL     1       7.288  28.056  56.407  1.00  0.00     0.142 C 
HETATM    9  C   UNL     1       7.599  27.863  54.921  1.00  0.00     0.042 C 
BRANCH   8  10
HETATM   10  O   UNL     1       8.496  28.319  57.130  1.00  0.00    -0.343 OA
BRANCH  10  11
HETATM   11  C   UNL     1       8.643  29.476  57.843  1.00  0.00     0.091 A 
HETATM   12  C   UNL     1       9.889  30.119  57.741  1.00  0.00     0.067 A 
HETATM   13 CL   UNL     1      11.150  29.481  56.743  1.00  0.00    -0.081 Cl
HETATM   14  C   UNL     1      10.144  31.303  58.438  1.00  0.00     0.026 A 
HETATM   15  C   UNL     1       9.159  31.855  59.253  1.00  0.00     0.002 A 
HETATM   16  C   UNL     1       7.925  31.221  59.370  1.00  0.00     0.003 A 
HETATM   17  C   UNL     1       7.666  30.037  58.670  1.00  0.00     0.038 A 
ENDBRANCH  10  11
ENDBRANCH   8  10
ENDBRANCH   7   8
ENDBRANCH   3   7
BRANCH   1  18
HETATM   18  C   UNL     1       7.517  22.968  55.138  1.00  0.00     0.059 A 
HETATM   19  C   UNL     1       7.691  23.086  53.751  1.00  0.00    -0.032 A 
HETATM   20  C   UNL     1       7.554  24.364  52.974  1.00  0.00     0.050 C 
HETATM   21  C   UNL     1       8.009  21.926  53.021  1.00  0.00     0.028 A 
HETATM   22  C   UNL     1       8.077  20.703  53.669  1.00  0.00     0.117 A 
HETATM   23  N   UNL     1       7.854  20.547  54.986  1.00  0.00    -0.271 NA
HETATM   24  C   UNL     1       7.586  21.678  55.680  1.00  0.00     0.146 A 
ENDBRANCH   1  18
TORSDOF 5
ENDMDL
MODEL 4
REMARK VINA RESULT:      -8.4      1.515      1.656
REMARK  5 active torsions:
REMARK  status: ('A' for Active; 'I' for Inactive)
REMARK    1  A    between atoms: C_3  and  N_4 
REMARK       I    between atoms: N_4  and  C_5 
REMARK       I    between atoms: C_5  and  N_6 
REMARK    2  A    between atoms: N_6  and  C_7 
REMARK    3  A    between atoms: C_7  and  C_8 
REMARK    4  A    between atoms: C_8  and  O_9 
REMARK    5  A    between atoms: O_9  and  C_10 
ROOT
HETATM    1  N   UNL     1       7.800  28.609  57.203  1.00  0.00    -0.307 N 
HETATM    2  C   UNL     1       6.916  28.702  56.170  1.00  0.00     0.320 C 
HETATM    3  N   UNL     1       6.566  27.513  55.599  1.00  0.00    -0.340 N 
HETATM    4  O   UNL     1       6.383  29.725  55.759  1.00  0.00    -0.247 OA
HETATM    5  H   UNL     1       7.571  27.817  57.791  1.00  0.00     0.170 HD
HETATM    6  H   UNL     1       5.888  27.687  54.867  1.00  0.00     0.164 HD
ENDROOT
BRANCH   3   7
HETATM    7  C   UNL     1       7.394  26.322  55.396  1.00  0.00     0.156 C 
BRANCH   7   8
HETATM    8  C   UNL     1       6.780  24.944  55.728  1.00  0.00     0.142 C 
HETATM    9  C   UNL     1       6.033  25.034  57.060  1.00  0.00     0.042 C 
BRANCH   8  10
HETATM   10  O   UNL     1       7.852  24.000  55.830  1.00  0.00    -0.343 OA
BRANCH  10  11
HETATM   11  C   UNL     1       7.902  22.910  55.005  1.00  0.00     0.091 A 
HETATM   12  C   UNL     1       8.108  21.665  55.626  1.00  0.00     0.067 A 
HETATM   13 CL   UNL     1       8.264  21.533  57.344  1.00  0.00    -0.081 Cl
HETATM   14  C   UNL     1       8.184  20.492  54.871  1.00  0.00     0.026 A 
HETATM   15  C   UNL     1       8.063  20.549  53.485  1.00  0.00     0.002 A 
HETATM   16  C   UNL     1       7.869  21.778  52.859  1.00  0.00     0.003 A 
HETATM   17  C   UNL     1       7.790  22.954  53.613  1.00  0.00     0.038 A 
ENDBRANCH  10  11
ENDBRANCH   8  10
ENDBRANCH   7   8
ENDBRANCH   3   7
BRANCH   1  18
HETATM   18  C   UNL     1       8.463  29.677  57.851  1.00  0.00     0.059 A 
HETATM   19  C   UNL     1       9.745  30.161  57.547  1.00  0.00    -0.032 A 
HETATM   20  C   UNL     1      10.647  29.596  56.487  1.00  0.00     0.050 C 
HETATM   21  C   UNL     1      10.236  31.249  58.291  1.00  0.00     0.028 A 
HETATM   22  C   UNL     1       9.482  31.767  59.332  1.00  0.00     0.117 A 
HETATM   23  N   UNL     1       8.278  31.285  59.688  1.00  0.00    -0.271 NA
HETATM   24  C   UNL     1       7.803  30.262  58.938  1.00  0.00     0.146 A 
ENDBRANCH   1  18
TORSDOF 5
ENDMDL
MODEL 5
REMARK VINA RESULT:      -8.1      2.371      3.074
REMARK  5 active torsions:
REMARK  status: ('A' for Active; 'I' for Inactive)
REMARK    1  A    between atoms: C_3  and  N_4 
REMARK       I    between atoms: N_4  and  C_5 
REMARK       I    between atoms: C_5  and  N_6 
REMARK    2  A    between atoms: N_6  and  C_7 
REMARK    3  A    between atoms: C_7  and  C_8 
REMARK    4  A    between atoms: C_8  and  O_9 
REMARK    5  A    between atoms: O_9  and  C_10 
ROOT
HETATM    1  N   UNL     1       5.802  27.086  55.334  1.00  0.00    -0.307 N 
HETATM    2  C   UNL     1       5.677  27.292  53.993  1.00  0.00     0.320 C 
HETATM    3  N   UNL     1       5.307  26.194  53.271  1.00  0.00    -0.340 N 
HETATM    4  O   UNL     1       5.808  28.359  53.406  1.00  0.00    -0.247 OA
HETATM    5  H   UNL     1       5.054  26.491  55.669  1.00  0.00     0.170 HD
HETATM    6  H   UNL     1       5.214  26.458  52.297  1.00  0.00     0.164 HD
ENDROOT
BRANCH   3   7
HETATM    7  C   UNL     1       5.673  24.794  53.493  1.00  0.00     0.156 C 
BRANCH   7   8
HETATM    8  C   UNL     1       7.166  24.409  53.409  1.00  0.00     0.142 C 
HETATM    9  C   UNL     1       7.764  24.988  52.126  1.00  0.00     0.042 C 
BRANCH   8  10
HETATM   10  O   UNL     1       7.250  22.980  53.387  1.00  0.00    -0.343 OA
BRANCH  10  11
HETATM   11  C   UNL     1       7.744  22.294  54.463  1.00  0.00     0.091 A 
HETATM   12  C   UNL     1       8.238  21.002  54.207  1.00  0.00     0.067 A 
HETATM   13 CL   UNL     1       8.238  20.340  52.609  1.00  0.00    -0.081 Cl
HETATM   14  C   UNL     1       8.756  20.216  55.240  1.00  0.00     0.026 A 
HETATM   15  C   UNL     1       8.777  20.707  56.543  1.00  0.00     0.002 A 
HETATM   16  C   UNL     1       8.280  21.980  56.809  1.00  0.00     0.003 A 
HETATM   17  C   UNL     1       7.764  22.771  55.776  1.00  0.00     0.038 A 
ENDBRANCH  10  11
ENDBRANCH   8  10
ENDBRANCH   7   8
ENDBRANCH   3   7
BRANCH   1  18
HETATM   18  C   UNL     1       6.336  27.986  56.284  1.00  0.00     0.059 A 
HETATM   19  C   UNL     1       7.441  27.750  57.118  1.00  0.00    -0.032 A 
HETATM   20  C   UNL     1       8.229  26.472  57.157  1.00  0.00     0.050 C 
HETATM   21  C   UNL     1       7.843  28.776  57.993  1.00  0.00     0.028 A 
HETATM   22  C   UNL     1       7.111  29.951  58.056  1.00  0.00     0.117 A 
HETATM   23  N   UNL     1       6.012  30.182  57.317  1.00  0.00    -0.271 NA
HETATM   24  C   UNL     1       5.660  29.201  56.453  1.00  0.00     0.146 A 
ENDBRANCH   1  18
TORSDOF 5
ENDMDL
MODEL 6
REMARK VINA RESULT:      -8.1      3.299      6.915
REMARK  5 active torsions:
REMARK  status: ('A' for Active; 'I' for Inactive)
REMARK    1  A    between atoms: C_3  and  N_4 
REMARK       I    between atoms: N_4  and  C_5 
REMARK       I    between atoms: C_5  and  N_6 
REMARK    2  A    between atoms: N_6  and  C_7 
REMARK    3  A    between atoms: C_7  and  C_8 
REMARK    4  A    between atoms: C_8  and  O_9 
REMARK    5  A    between atoms: O_9  and  C_10 
ROOT
HETATM    1  N   UNL     1       7.154  23.428  56.078  1.00  0.00    -0.307 N 
HETATM    2  C   UNL     1       7.838  24.247  56.926  1.00  0.00     0.320 C 
HETATM    3  N   UNL     1       7.095  25.236  57.501  1.00  0.00    -0.340 N 
HETATM    4  O   UNL     1       9.015  24.139  57.249  1.00  0.00    -0.247 OA
HETATM    5  H   UNL     1       6.240  23.214  56.458  1.00  0.00     0.170 HD
HETATM    6  H   UNL     1       7.685  25.766  58.131  1.00  0.00     0.164 HD
ENDROOT
BRANCH   3   7
HETATM    7  C   UNL     1       5.983  25.993  56.922  1.00  0.00     0.156 C 
BRANCH   7   8
HETATM    8  C   UNL     1       6.284  26.934  55.735  1.00  0.00     0.142 C 
HETATM    9  C   UNL     1       6.671  28.313  56.272  1.00  0.00     0.042 C 
BRANCH   8  10
HETATM   10  O   UNL     1       5.095  27.033  54.942  1.00  0.00    -0.343 OA
BRANCH  10  11
HETATM   11  C   UNL     1       5.057  26.515  53.677  1.00  0.00     0.091 A 
HETATM   12  C   UNL     1       5.182  27.435  52.621  1.00  0.00     0.067 A 
HETATM   13 CL   UNL     1       5.398  29.125  52.922  1.00  0.00    -0.081 Cl
HETATM   14  C   UNL     1       5.145  27.009  51.290  1.00  0.00     0.026 A 
HETATM   15  C   UNL     1       4.974  25.658  50.999  1.00  0.00     0.002 A 
HETATM   16  C   UNL     1       4.838  24.739  52.037  1.00  0.00     0.003 A 
HETATM   17  C   UNL     1       4.878  25.164  53.370  1.00  0.00     0.038 A 
ENDBRANCH  10  11
ENDBRANCH   8  10
ENDBRANCH   7   8
ENDBRANCH   3   7
BRANCH   1  18
HETATM   18  C   UNL     1       7.702  22.447  55.220  1.00  0.00     0.059 A 
HETATM   19  C   UNL     1       8.150  22.654  53.906  1.00  0.00    -0.032 A 
HETATM   20  C   UNL     1       8.093  23.966  53.176  1.00  0.00     0.050 C 
HETATM   21  C   UNL     1       8.685  21.557  53.207  1.00  0.00     0.028 A 
HETATM   22  C   UNL     1       8.696  20.304  53.799  1.00  0.00     0.117 A 
HETATM   23  N   UNL     1       8.218  20.061  55.032  1.00  0.00    -0.271 NA
HETATM   24  C   UNL     1       7.740  21.134  55.705  1.00  0.00     0.146 A 
ENDBRANCH   1  18
TORSDOF 5
ENDMDL
MODEL 7
REMARK VINA RESULT:      -8.0      3.115      4.978
REMARK  5 active torsions:
REMARK  status: ('A' for Active; 'I' for Inactive)
REMARK    1  A    between atoms: C_3  and  N_4 
REMARK       I    between atoms: N_4  and  C_5 
REMARK       I    between atoms: C_5  and  N_6 
REMARK    2  A    between atoms: N_6  and  C_7 
REMARK    3  A    between atoms: C_7  and  C_8 
REMARK    4  A    between atoms: C_8  and  O_9 
REMARK    5  A    between atoms: O_9  and  C_10 
ROOT
HETATM    1  N   UNL     1       7.319  31.336  60.067  1.00  0.00    -0.307 N 
HETATM    2  C   UNL     1       8.265  31.468  59.095  1.00  0.00     0.320 C 
HETATM    3  N   UNL     1       8.181  30.560  58.079  1.00  0.00    -0.340 N 
HETATM    4  O   UNL     1       9.122  32.340  59.028  1.00  0.00    -0.247 OA
HETATM    5  H   UNL     1       6.419  31.123  59.655  1.00  0.00     0.170 HD
HETATM    6  H   UNL     1       8.904  30.760  57.399  1.00  0.00     0.164 HD
ENDROOT
BRANCH   3   7
HETATM    7  C   UNL     1       7.778  29.153  58.146  1.00  0.00     0.156 C 
BRANCH   7   8
HETATM    8  C   UNL     1       8.304  28.193  57.058  1.00  0.00     0.142 C 
HETATM    9  C   UNL     1       8.563  28.981  55.773  1.00  0.00     0.042 C 
BRANCH   8  10
HETATM   10  O   UNL     1       7.300  27.198  56.828  1.00  0.00    -0.343 OA
BRANCH  10  11
HETATM   11  C   UNL     1       7.650  25.919  56.491  1.00  0.00     0.091 A 
HETATM   12  C   UNL     1       7.098  25.413  55.301  1.00  0.00     0.067 A 
HETATM   13 CL   UNL     1       6.054  26.377  54.315  1.00  0.00    -0.081 Cl
HETATM   14  C   UNL     1       7.385  24.114  54.873  1.00  0.00     0.026 A 
HETATM   15  C   UNL     1       8.222  23.302  55.635  1.00  0.00     0.002 A 
HETATM   16  C   UNL     1       8.765  23.789  56.821  1.00  0.00     0.003 A 
HETATM   17  C   UNL     1       8.481  25.091  57.249  1.00  0.00     0.038 A 
ENDBRANCH  10  11
ENDBRANCH   8  10
ENDBRANCH   7   8
ENDBRANCH   3   7
BRANCH   1  18
HETATM   18  C   UNL     1       7.277  32.015  61.306  1.00  0.00     0.059 A 
HETATM   19  C   UNL     1       7.995  31.673  62.462  1.00  0.00    -0.032 A 
HETATM   20  C   UNL     1       8.920  30.495  62.582  1.00  0.00     0.050 C 
HETATM   21  C   UNL     1       7.839  32.481  63.603  1.00  0.00     0.028 A 
HETATM   22  C   UNL     1       6.944  33.539  63.579  1.00  0.00     0.117 A 
HETATM   23  N   UNL     1       6.195  33.854  62.508  1.00  0.00    -0.271 NA
HETATM   24  C   UNL     1       6.385  33.090  61.407  1.00  0.00     0.146 A 
ENDBRANCH   1  18
TORSDOF 5
ENDMDL
MODEL 8
REMARK VINA RESULT:      -7.9      4.098      6.505
REMARK  5 active torsions:
REMARK  status: ('A' for Active; 'I' for Inactive)
REMARK    1  A    between atoms: C_3  and  N_4 
REMARK       I    between atoms: N_4  and  C_5 
REMARK       I    between atoms: C_5  and  N_6 
REMARK    2  A    between atoms: N_6  and  C_7 
REMARK    3  A    between atoms: C_7  and  C_8 
REMARK    4  A    between atoms: C_8  and  O_9 
REMARK    5  A    between atoms: O_9  and  C_10 
ROOT
HETATM    1  N   UNL     1       5.293  27.215  51.995  1.00  0.00    -0.307 N 
HETATM    2  C   UNL     1       4.388  27.497  52.974  1.00  0.00     0.320 C 
HETATM    3  N   UNL     1       4.700  27.006  54.208  1.00  0.00    -0.340 N 
HETATM    4  O   UNL     1       3.378  28.179  52.856  1.00  0.00    -0.247 OA
HETATM    5  H   UNL     1       6.236  27.311  52.350  1.00  0.00     0.170 HD
HETATM    6  H   UNL     1       3.985  27.293  54.866  1.00  0.00     0.164 HD
ENDROOT
BRANCH   3   7
HETATM    7  C   UNL     1       5.373  25.750  54.545  1.00  0.00     0.156 C 
BRANCH   7   8
HETATM    8  C   UNL     1       6.588  25.808  55.496  1.00  0.00     0.142 C 
HETATM    9  C   UNL     1       6.879  27.267  55.854  1.00  0.00     0.042 C 
BRANCH   8  10
HETATM   10  O   UNL     1       7.709  25.239  54.811  1.00  0.00    -0.343 OA
BRANCH  10  11
HETATM   11  C   UNL     1       7.784  23.891  54.595  1.00  0.00     0.091 A 
HETATM   12  C   UNL     1       7.842  23.474  53.253  1.00  0.00     0.067 A 
HETATM   13 CL   UNL     1       7.843  24.619  51.957  1.00  0.00    -0.081 Cl
HETATM   14  C   UNL     1       7.910  22.117  52.926  1.00  0.00     0.026 A 
HETATM   15  C   UNL     1       7.912  21.159  53.936  1.00  0.00     0.002 A 
HETATM   16  C   UNL     1       7.844  21.559  55.268  1.00  0.00     0.003 A 
HETATM   17  C   UNL     1       7.779  22.918  55.598  1.00  0.00     0.038 A 
ENDBRANCH  10  11
ENDBRANCH   8  10
ENDBRANCH   7   8
ENDBRANCH   3   7
BRANCH   1  18
HETATM   18  C   UNL     1       5.139  27.441  50.607  1.00  0.00     0.059 A 
HETATM   19  C   UNL     1       5.295  28.669  49.946  1.00  0.00    -0.032 A 
HETATM   20  C   UNL     1       5.627  29.970  50.619  1.00  0.00     0.050 C 
HETATM   21  C   UNL     1       5.119  28.698  48.550  1.00  0.00     0.028 A 
HETATM   22  C   UNL     1       4.739  27.546  47.882  1.00  0.00     0.117 A 
HETATM   23  N   UNL     1       4.521  26.369  48.494  1.00  0.00    -0.271 NA
HETATM   24  C   UNL     1       4.730  26.349  49.832  1.00  0.00     0.146 A 
ENDBRANCH   1  18
TORSDOF 5
ENDMDL
MODEL 9
REMARK VINA RESULT:      -7.6      5.493      8.370
REMARK  5 active torsions:
REMARK  status: ('A' for Active; 'I' for Inactive)
REMARK    1  A    between atoms: C_3  and  N_4 
REMARK       I    between atoms: N_4  and  C_5 
REMARK       I    between atoms: C_5  and  N_6 
REMARK    2  A    between atoms: N_6  and  C_7 
REMARK    3  A    between atoms: C_7  and  C_8 
REMARK    4  A    between atoms: C_8  and  O_9 
REMARK    5  A    between atoms: O_9  and  C_10 
ROOT
HETATM    1  N   UNL     1       3.682  26.490  49.296  1.00  0.00    -0.307 N 
HETATM    2  C   UNL     1       4.934  26.986  49.500  1.00  0.00     0.320 C 
HETATM    3  N   UNL     1       5.696  26.286  50.390  1.00  0.00    -0.340 N 
HETATM    4  O   UNL     1       5.438  27.945  48.928  1.00  0.00    -0.247 OA
HETATM    5  H   UNL     1       3.708  25.479  49.250  1.00  0.00     0.170 HD
HETATM    6  H   UNL     1       6.612  26.716  50.447  1.00  0.00     0.164 HD
ENDROOT
BRANCH   3   7
HETATM    7  C   UNL     1       5.268  25.592  51.606  1.00  0.00     0.156 C 
BRANCH   7   8
HETATM    8  C   UNL     1       6.249  25.540  52.797  1.00  0.00     0.142 C 
HETATM    9  C   UNL     1       7.684  25.620  52.272  1.00  0.00     0.042 C 
BRANCH   8  10
HETATM   10  O   UNL     1       6.046  24.298  53.480  1.00  0.00    -0.343 OA
BRANCH  10  11
HETATM   11  C   UNL     1       6.784  23.982  54.587  1.00  0.00     0.091 A 
HETATM   12  C   UNL     1       7.591  22.834  54.493  1.00  0.00     0.067 A 
HETATM   13 CL   UNL     1       7.655  21.897  53.040  1.00  0.00    -0.081 Cl
HETATM   14  C   UNL     1       8.377  22.420  55.572  1.00  0.00     0.026 A 
HETATM   15  C   UNL     1       8.359  23.143  56.762  1.00  0.00     0.002 A 
HETATM   16  C   UNL     1       7.555  24.275  56.869  1.00  0.00     0.003 A 
HETATM   17  C   UNL     1       6.770  24.693  55.789  1.00  0.00     0.038 A 
ENDBRANCH  10  11
ENDBRANCH   8  10
ENDBRANCH   7   8
ENDBRANCH   3   7
BRANCH   1  18
HETATM   18  C   UNL     1       2.632  27.106  48.576  1.00  0.00     0.059 A 
HETATM   19  C   UNL     1       1.938  28.266  48.954  1.00  0.00    -0.032 A 
HETATM   20  C   UNL     1       2.183  29.038  50.219  1.00  0.00     0.050 C 
HETATM   21  C   UNL     1       0.931  28.745  48.097  1.00  0.00     0.028 A 
HETATM   22  C   UNL     1       0.608  28.035  46.952  1.00  0.00     0.117 A 
HETATM   23  N   UNL     1       1.210  26.888  46.595  1.00  0.00    -0.271 NA
HETATM   24  C   UNL     1       2.203  26.460  47.410  1.00  0.00     0.146 A 
ENDBRANCH   1  18
TORSDOF 5
ENDMDL
MODEL 10
REMARK VINA RESULT:      -7.6      6.137     11.442
REMARK  5 active torsions:
REMARK  status: ('A' for Active; 'I' for Inactive)
REMARK    1  A    between atoms: C_3  and  N_4 
REMARK       I    between atoms: N_4  and  C_5 
REMARK       I    between atoms: C_5  and  N_6 
REMARK    2  A    between atoms: N_6  and  C_7 
REMARK    3  A    between atoms: C_7  and  C_8 
REMARK    4  A    between atoms: C_8  and  O_9 
REMARK    5  A    between atoms: O_9  and  C_10 
ROOT
HETATM    1  N   UNL     1       8.003  30.539  60.057  1.00  0.00    -0.307 N 
HETATM    2  C   UNL     1       8.421  30.462  61.352  1.00  0.00     0.320 C 
HETATM    3  N   UNL     1       7.501  30.851  62.281  1.00  0.00    -0.340 N 
HETATM    4  O   UNL     1       9.500  30.033  61.743  1.00  0.00    -0.247 OA
HETATM    5  H   UNL     1       7.044  30.224  59.979  1.00  0.00     0.170 HD
HETATM    6  H   UNL     1       7.896  30.729  63.206  1.00  0.00     0.164 HD
ENDROOT
BRANCH   3   7
HETATM    7  C   UNL     1       6.498  31.913  62.180  1.00  0.00     0.156 C 
BRANCH   7   8
HETATM    8  C   UNL     1       6.828  33.287  62.803  1.00  0.00     0.142 C 
HETATM    9  C   UNL     1       7.638  33.078  64.083  1.00  0.00     0.042 C 
BRANCH   8  10
HETATM   10  O   UNL     1       5.590  33.939  63.108  1.00  0.00    -0.343 OA
BRANCH  10  11
HETATM   11  C   UNL     1       5.420  35.271  62.845  1.00  0.00     0.091 A 
HETATM   12  C   UNL     1       4.836  35.595  61.608  1.00  0.00     0.067 A 
HETATM   13 CL   UNL     1       4.341  34.363  60.498  1.00  0.00    -0.081 Cl
HETATM   14  C   UNL     1       4.628  36.927  61.240  1.00  0.00     0.026 A 
HETATM   15  C   UNL     1       5.010  37.952  62.101  1.00  0.00     0.002 A 
HETATM   16  C   UNL     1       5.600  37.643  63.324  1.00  0.00     0.003 A 
HETATM   17  C   UNL     1       5.806  36.310  63.696  1.00  0.00     0.038 A 
ENDBRANCH  10  11
ENDBRANCH   8  10
ENDBRANCH   7   8
ENDBRANCH   3   7
BRANCH   1  18
HETATM   18  C   UNL     1       8.796  30.374  58.898  1.00  0.00     0.059 A 
HETATM   19  C   UNL     1       8.648  29.367  57.932  1.00  0.00    -0.032 A 
HETATM   20  C   UNL     1       7.626  28.268  57.986  1.00  0.00     0.050 C 
HETATM   21  C   UNL     1       9.523  29.372  56.830  1.00  0.00     0.028 A 
HETATM   22  C   UNL     1      10.535  30.316  56.760  1.00  0.00     0.117 A 
HETATM   23  N   UNL     1      10.741  31.255  57.701  1.00  0.00    -0.271 NA
HETATM   24  C   UNL     1       9.868  31.259  58.736  1.00  0.00     0.146 A 
ENDBRANCH   1  18
TORSDOF 5
ENDMDL
