MODEL 1
REMARK VINA RESULT:     -10.4      0.000      0.000
REMARK  6 active torsions:
REMARK  status: ('A' for Active; 'I' for Inactive)
REMARK    1  A    between atoms: C_11  and  N_12 
REMARK    2  A    between atoms: N_12  and  C_13 
REMARK    3  A    between atoms: C_13  and  C_14 
REMARK    4  A    between atoms: C_14  and  N_15 
REMARK       I    between atoms: N_15  and  C_16 
REMARK    5  A    between atoms: C_16  and  C_17 
REMARK    6  A    between atoms: C_20  and  O_21 
ROOT
HETATM    1  N   UNL     1       7.550  27.642  56.569  1.00  0.00    -0.277 NA
HETATM    2  H   UNL     1       7.020  28.438  56.215  1.00  0.00     0.129 HD
ENDROOT
BRANCH   1   3
HETATM    3  C   UNL     1       7.550  26.570  55.677  1.00  0.00     0.086 C 
HETATM    4  N   UNL     1       7.547  25.316  56.158  1.00  0.00    -0.346 N 
HETATM    5  C   UNL     1       7.638  24.208  55.406  1.00  0.00     0.044 A 
HETATM    6  H   UNL     1       7.415  25.208  57.170  1.00  0.00     0.167 HD
HETATM    7  C   UNL     1       7.731  22.945  55.999  1.00  0.00     0.037 A 
HETATM    8  C   UNL     1       7.658  24.337  54.008  1.00  0.00    -0.008 A 
HETATM    9  C   UNL     1       7.880  21.792  55.210  1.00  0.00    -0.054 A 
HETATM   10  C   UNL     1       7.939  21.917  53.807  1.00  0.00    -0.055 A 
HETATM   11  C   UNL     1       8.032  20.452  55.884  1.00  0.00     0.049 C 
HETATM   12  C   UNL     1       8.118  20.716  52.914  1.00  0.00     0.049 C 
HETATM   13  C   UNL     1       7.802  23.186  53.219  1.00  0.00     0.021 A 
HETATM   14  C   UNL     1       7.529  25.615  53.457  1.00  0.00     0.023 C 
HETATM   15  C   UNL     1       7.443  26.742  54.285  1.00  0.00    -0.023 C 
HETATM   16  C   UNL     1       7.312  28.098  53.646  1.00  0.00     0.052 C 
ENDBRANCH   1   3
BRANCH   1  17
HETATM   17  C   UNL     1       8.857  28.098  57.079  1.00  0.00     0.113 C 
BRANCH  17  18
HETATM   18  C   UNL     1       8.920  29.630  57.189  1.00  0.00     0.137 C 
BRANCH  18  19
HETATM   19  N   UNL     1       8.576  30.203  58.482  1.00  0.00    -0.356 N 
HETATM   20  C   UNL     1       9.052  31.396  58.974  1.00  0.00     0.251 C 
HETATM   21  O   UNL     1       9.977  32.020  58.455  1.00  0.00    -0.268 OA
HETATM   22  H   UNL     1       7.884  29.697  59.024  1.00  0.00     0.162 HD
BRANCH  20  23
HETATM   23  C   UNL     1       8.436  31.855  60.251  1.00  0.00     0.032 A 
HETATM   24  C   UNL     1       7.138  32.373  60.228  1.00  0.00     0.020 A 
HETATM   25  C   UNL     1       6.560  32.852  61.408  1.00  0.00     0.038 A 
HETATM   26  C   UNL     1       7.260  32.811  62.617  1.00  0.00     0.068 A 
HETATM   27  C   UNL     1       8.543  32.265  62.645  1.00  0.00     0.038 A 
HETATM   28  C   UNL     1       9.128  31.784  61.466  1.00  0.00     0.020 A 
BRANCH  26  29
HETATM   29  O   UNL     1       6.584  33.326  63.686  1.00  0.00    -0.356 OA
HETATM   30  C   UNL     1       7.350  33.670  64.836  1.00  0.00     0.210 C 
ENDBRANCH  26  29
ENDBRANCH  20  23
ENDBRANCH  18  19
ENDBRANCH  17  18
ENDBRANCH   1  17
TORSDOF 6
ENDMDL
MODEL 2
REMARK VINA RESULT:     -10.1      2.510      4.384
REMARK  6 active torsions:
REMARK  status: ('A' for Active; 'I' for Inactive)
REMARK    1  A    between atoms: C_11  and  N_12 
REMARK    2  A    between atoms: N_12  and  C_13 
REMARK    3  A    between atoms: C_13  and  C_14 
REMARK    4  A    between atoms: C_14  and  N_15 
REMARK       I    between atoms: N_15  and  C_16 
REMARK    5  A    between atoms: C_16  and  C_17 
REMARK    6  A    between atoms: C_20  and  O_21 
ROOT
HETATM    1  N   UNL     1       4.657  26.421  53.767  1.00  0.00    -0.277 NA
HETATM    2  H   UNL     1       3.713  26.066  53.624  1.00  0.00     0.129 HD
ENDROOT
BRANCH   1   3
HETATM    3  C   UNL     1       5.486  25.485  54.386  1.00  0.00     0.086 C 
HETATM    4  N   UNL     1       6.138  24.585  53.633  1.00  0.00    -0.346 N 
HETATM    5  C   UNL     1       6.887  23.583  54.116  1.00  0.00     0.044 A 
HETATM    6  H   UNL     1       6.093  24.713  52.615  1.00  0.00     0.167 HD
HETATM    7  C   UNL     1       7.448  22.629  53.261  1.00  0.00     0.037 A 
HETATM    8  C   UNL     1       7.086  23.493  55.504  1.00  0.00    -0.008 A 
HETATM    9  C   UNL     1       8.187  21.551  53.775  1.00  0.00    -0.054 A 
HETATM   10  C   UNL     1       8.360  21.433  55.169  1.00  0.00    -0.055 A 
HETATM   11  C   UNL     1       8.732  20.512  52.828  1.00  0.00     0.049 C 
HETATM   12  C   UNL     1       9.127  20.286  55.775  1.00  0.00     0.049 C 
HETATM   13  C   UNL     1       7.829  22.419  56.018  1.00  0.00     0.021 A 
HETATM   14  C   UNL     1       6.537  24.485  56.319  1.00  0.00     0.023 C 
HETATM   15  C   UNL     1       5.756  25.509  55.767  1.00  0.00    -0.023 C 
HETATM   16  C   UNL     1       5.179  26.552  56.686  1.00  0.00     0.052 C 
ENDBRANCH   1   3
BRANCH   1  17
HETATM   17  C   UNL     1       5.150  27.046  52.526  1.00  0.00     0.113 C 
BRANCH  17  18
HETATM   18  C   UNL     1       5.584  28.502  52.758  1.00  0.00     0.137 C 
BRANCH  18  19
HETATM   19  N   UNL     1       6.105  28.822  54.080  1.00  0.00    -0.356 N 
HETATM   20  C   UNL     1       7.394  28.598  54.503  1.00  0.00     0.251 C 
HETATM   21  O   UNL     1       8.204  27.919  53.871  1.00  0.00    -0.268 OA
HETATM   22  H   UNL     1       5.467  29.303  54.705  1.00  0.00     0.162 HD
BRANCH  20  23
HETATM   23  C   UNL     1       7.737  29.154  55.842  1.00  0.00     0.032 A 
HETATM   24  C   UNL     1       9.045  29.020  56.314  1.00  0.00     0.020 A 
HETATM   25  C   UNL     1       9.376  29.494  57.587  1.00  0.00     0.038 A 
HETATM   26  C   UNL     1       8.416  30.111  58.394  1.00  0.00     0.068 A 
HETATM   27  C   UNL     1       7.118  30.272  57.910  1.00  0.00     0.038 A 
HETATM   28  C   UNL     1       6.780  29.799  56.635  1.00  0.00     0.020 A 
BRANCH  26  29
HETATM   29  O   UNL     1       8.870  30.512  59.619  1.00  0.00    -0.356 OA
HETATM   30  C   UNL     1       9.040  31.910  59.823  1.00  0.00     0.210 C 
ENDBRANCH  26  29
ENDBRANCH  20  23
ENDBRANCH  18  19
ENDBRANCH  17  18
ENDBRANCH   1  17
TORSDOF 6
ENDMDL
MODEL 3
REMARK VINA RESULT:      -9.7      2.441      3.954
REMARK  6 active torsions:
REMARK  status: ('A' for Active; 'I' for Inactive)
REMARK    1  A    between atoms: C_11  and  N_12 
REMARK    2  A    between atoms: N_12  and  C_13 
REMARK    3  A    between atoms: C_13  and  C_14 
REMARK    4  A    between atoms: C_14  and  N_15 
REMARK       I    between atoms: N_15  and  C_16 
REMARK    5  A    between atoms: C_16  and  C_17 
REMARK    6  A    between atoms: C_20  and  O_21 
ROOT
HETATM    1  N   UNL     1       3.873  27.077  53.329  1.00  0.00    -0.277 NA
HETATM    2  H   UNL     1       3.484  27.373  52.434  1.00  0.00     0.129 HD
ENDROOT
BRANCH   1   3
HETATM    3  C   UNL     1       4.858  26.101  53.179  1.00  0.00     0.086 C 
HETATM    4  N   UNL     1       5.260  25.404  54.254  1.00  0.00    -0.346 N 
HETATM    5  C   UNL     1       6.259  24.508  54.254  1.00  0.00     0.044 A 
HETATM    6  H   UNL     1       4.725  25.537  55.120  1.00  0.00     0.167 HD
HETATM    7  C   UNL     1       6.680  23.903  55.443  1.00  0.00     0.037 A 
HETATM    8  C   UNL     1       6.895  24.200  53.040  1.00  0.00    -0.008 A 
HETATM    9  C   UNL     1       7.761  23.006  55.447  1.00  0.00    -0.054 A 
HETATM   10  C   UNL     1       8.428  22.721  54.239  1.00  0.00    -0.055 A 
HETATM   11  C   UNL     1       8.221  22.413  56.755  1.00  0.00     0.049 C 
HETATM   12  C   UNL     1       9.606  21.782  54.190  1.00  0.00     0.049 C 
HETATM   13  C   UNL     1       7.972  23.301  53.043  1.00  0.00     0.021 A 
HETATM   14  C   UNL     1       6.422  24.803  51.872  1.00  0.00     0.023 C 
HETATM   15  C   UNL     1       5.378  25.737  51.924  1.00  0.00    -0.023 C 
HETATM   16  C   UNL     1       4.908  26.365  50.640  1.00  0.00     0.052 C 
ENDBRANCH   1   3
BRANCH   1  17
HETATM   17  C   UNL     1       4.207  28.258  54.146  1.00  0.00     0.113 C 
BRANCH  17  18
HETATM   18  C   UNL     1       5.588  28.826  53.782  1.00  0.00     0.137 C 
BRANCH  18  19
HETATM   19  N   UNL     1       6.373  29.377  54.878  1.00  0.00    -0.356 N 
HETATM   20  C   UNL     1       7.208  28.656  55.699  1.00  0.00     0.251 C 
HETATM   21  O   UNL     1       7.235  27.425  55.723  1.00  0.00    -0.268 OA
HETATM   22  H   UNL     1       6.334  30.384  54.991  1.00  0.00     0.162 HD
BRANCH  20  23
HETATM   23  C   UNL     1       8.029  29.460  56.647  1.00  0.00     0.032 A 
HETATM   24  C   UNL     1       7.394  30.109  57.709  1.00  0.00     0.020 A 
HETATM   25  C   UNL     1       8.140  30.907  58.582  1.00  0.00     0.038 A 
HETATM   26  C   UNL     1       9.519  31.057  58.414  1.00  0.00     0.068 A 
HETATM   27  C   UNL     1      10.157  30.384  57.373  1.00  0.00     0.038 A 
HETATM   28  C   UNL     1       9.416  29.584  56.494  1.00  0.00     0.020 A 
BRANCH  26  29
HETATM   29  O   UNL     1      10.120  31.876  59.328  1.00  0.00    -0.356 OA
HETATM   30  C   UNL     1       9.368  32.219  60.487  1.00  0.00     0.210 C 
ENDBRANCH  26  29
ENDBRANCH  20  23
ENDBRANCH  18  19
ENDBRANCH  17  18
ENDBRANCH   1  17
TORSDOF 6
ENDMDL
MODEL 4
REMARK VINA RESULT:      -9.7      1.581      1.907
REMARK  6 active torsions:
REMARK  status: ('A' for Active; 'I' for Inactive)
REMARK    1  A    between atoms: C_11  and  N_12 
REMARK    2  A    between atoms: N_12  and  C_13 
REMARK    3  A    between atoms: C_13  and  C_14 
REMARK    4  A    between atoms: C_14  and  N_15 
REMARK       I    between atoms: N_15  and  C_16 
REMARK    5  A    between atoms: C_16  and  C_17 
REMARK    6  A    between atoms: C_20  and  O_21 
ROOT
HETATM    1  N   UNL     1       6.172  28.654  57.622  1.00  0.00    -0.277 NA
HETATM    2  H   UNL     1       5.247  29.059  57.758  1.00  0.00     0.129 HD
ENDROOT
BRANCH   1   3
HETATM    3  C   UNL     1       6.170  27.643  56.661  1.00  0.00     0.086 C 
HETATM    4  N   UNL     1       6.980  26.584  56.819  1.00  0.00    -0.346 N 
HETATM    5  C   UNL     1       7.134  25.598  55.922  1.00  0.00     0.044 A 
HETATM    6  H   UNL     1       7.475  26.509  57.715  1.00  0.00     0.167 HD
HETATM    7  C   UNL     1       8.077  24.585  56.123  1.00  0.00     0.037 A 
HETATM    8  C   UNL     1       6.343  25.608  54.761  1.00  0.00    -0.008 A 
HETATM    9  C   UNL     1       8.273  23.585  55.157  1.00  0.00    -0.054 A 
HETATM   10  C   UNL     1       7.509  23.609  53.972  1.00  0.00    -0.055 A 
HETATM   11  C   UNL     1       9.335  22.540  55.383  1.00  0.00     0.049 C 
HETATM   12  C   UNL     1       7.692  22.572  52.894  1.00  0.00     0.049 C 
HETATM   13  C   UNL     1       6.534  24.606  53.798  1.00  0.00     0.021 A 
HETATM   14  C   UNL     1       5.390  26.619  54.615  1.00  0.00     0.023 C 
HETATM   15  C   UNL     1       5.271  27.630  55.578  1.00  0.00    -0.023 C 
HETATM   16  C   UNL     1       4.235  28.702  55.374  1.00  0.00     0.052 C 
ENDBRANCH   1   3
BRANCH   1  17
HETATM   17  C   UNL     1       7.173  29.727  57.474  1.00  0.00     0.113 C 
BRANCH  17  18
HETATM   18  C   UNL     1       8.246  29.655  58.571  1.00  0.00     0.137 C 
BRANCH  18  19
HETATM   19  N   UNL     1       7.973  30.393  59.796  1.00  0.00    -0.356 N 
HETATM   20  C   UNL     1       8.304  31.708  60.023  1.00  0.00     0.251 C 
HETATM   21  O   UNL     1       9.046  32.355  59.284  1.00  0.00    -0.268 OA
HETATM   22  H   UNL     1       7.443  29.898  60.505  1.00  0.00     0.162 HD
BRANCH  20  23
HETATM   23  C   UNL     1       7.781  32.293  61.290  1.00  0.00     0.032 A 
HETATM   24  C   UNL     1       6.588  33.020  61.257  1.00  0.00     0.020 A 
HETATM   25  C   UNL     1       6.105  33.616  62.426  1.00  0.00     0.038 A 
HETATM   26  C   UNL     1       6.795  33.486  63.635  1.00  0.00     0.068 A 
HETATM   27  C   UNL     1       7.969  32.735  63.673  1.00  0.00     0.038 A 
HETATM   28  C   UNL     1       8.459  32.136  62.505  1.00  0.00     0.020 A 
BRANCH  26  29
HETATM   29  O   UNL     1       6.220  34.131  64.692  1.00  0.00    -0.356 OA
HETATM   30  C   UNL     1       4.988  33.610  65.180  1.00  0.00     0.210 C 
ENDBRANCH  26  29
ENDBRANCH  20  23
ENDBRANCH  18  19
ENDBRANCH  17  18
ENDBRANCH   1  17
TORSDOF 6
ENDMDL
MODEL 5
REMARK VINA RESULT:      -9.2      6.987     10.979
REMARK  6 active torsions:
REMARK  status: ('A' for Active; 'I' for Inactive)
REMARK    1  A    between atoms: C_11  and  N_12 
REMARK    2  A    between atoms: N_12  and  C_13 
REMARK    3  A    between atoms: C_13  and  C_14 
REMARK    4  A    between atoms: C_14  and  N_15 
REMARK       I    between atoms: N_15  and  C_16 
REMARK    5  A    between atoms: C_16  and  C_17 
REMARK    6  A    between atoms: C_20  and  O_21 
ROOT
HETATM    1  N   UNL     1       5.116  26.564  52.430  1.00  0.00    -0.277 NA
HETATM    2  H   UNL     1       4.197  26.848  52.766  1.00  0.00     0.129 HD
ENDROOT
BRANCH   1   3
HETATM    3  C   UNL     1       5.752  25.687  53.308  1.00  0.00     0.086 C 
HETATM    4  N   UNL     1       6.426  24.636  52.814  1.00  0.00    -0.346 N 
HETATM    5  C   UNL     1       6.998  23.677  53.557  1.00  0.00     0.044 A 
HETATM    6  H   UNL     1       6.547  24.601  51.796  1.00  0.00     0.167 HD
HETATM    7  C   UNL     1       7.592  22.562  52.956  1.00  0.00     0.037 A 
HETATM    8  C   UNL     1       6.975  23.798  54.957  1.00  0.00    -0.008 A 
HETATM    9  C   UNL     1       8.143  21.533  53.739  1.00  0.00    -0.054 A 
HETATM   10  C   UNL     1       8.090  21.630  55.144  1.00  0.00    -0.055 A 
HETATM   11  C   UNL     1       8.727  20.322  53.058  1.00  0.00     0.049 C 
HETATM   12  C   UNL     1       8.648  20.547  56.031  1.00  0.00     0.049 C 
HETATM   13  C   UNL     1       7.529  22.774  55.739  1.00  0.00     0.021 A 
HETATM   14  C   UNL     1       6.401  24.943  55.514  1.00  0.00     0.023 C 
HETATM   15  C   UNL     1       5.810  25.915  54.695  1.00  0.00    -0.023 C 
HETATM   16  C   UNL     1       5.198  27.127  55.342  1.00  0.00     0.052 C 
ENDBRANCH   1   3
BRANCH   1  17
HETATM   17  C   UNL     1       5.028  26.160  51.014  1.00  0.00     0.113 C 
BRANCH  17  18
HETATM   18  C   UNL     1       5.304  27.341  50.070  1.00  0.00     0.137 C 
BRANCH  18  19
HETATM   19  N   UNL     1       4.201  27.763  49.219  1.00  0.00    -0.356 N 
HETATM   20  C   UNL     1       3.994  27.353  47.923  1.00  0.00     0.251 C 
HETATM   21  O   UNL     1       4.831  26.731  47.269  1.00  0.00    -0.268 OA
HETATM   22  H   UNL     1       3.507  28.361  49.655  1.00  0.00     0.162 HD
BRANCH  20  23
HETATM   23  C   UNL     1       2.711  27.794  47.307  1.00  0.00     0.032 A 
HETATM   24  C   UNL     1       2.518  29.153  47.045  1.00  0.00     0.020 A 
HETATM   25  C   UNL     1       1.303  29.593  46.510  1.00  0.00     0.038 A 
HETATM   26  C   UNL     1       0.278  28.688  46.222  1.00  0.00     0.068 A 
HETATM   27  C   UNL     1       0.483  27.328  46.453  1.00  0.00     0.038 A 
HETATM   28  C   UNL     1       1.697  26.881  46.990  1.00  0.00     0.020 A 
BRANCH  26  29
HETATM   29  O   UNL     1      -0.859  29.254  45.718  1.00  0.00    -0.356 OA
HETATM   30  C   UNL     1      -1.238  28.885  44.397  1.00  0.00     0.210 C 
ENDBRANCH  26  29
ENDBRANCH  20  23
ENDBRANCH  18  19
ENDBRANCH  17  18
ENDBRANCH   1  17
TORSDOF 6
ENDMDL
MODEL 6
REMARK VINA RESULT:      -9.2      2.900     10.819
REMARK  6 active torsions:
REMARK  status: ('A' for Active; 'I' for Inactive)
REMARK    1  A    between atoms: C_11  and  N_12 
REMARK    2  A    between atoms: N_12  and  C_13 
REMARK    3  A    between atoms: C_13  and  C_14 
REMARK    4  A    between atoms: C_14  and  N_15 
REMARK       I    between atoms: N_15  and  C_16 
REMARK    5  A    between atoms: C_16  and  C_17 
REMARK    6  A    between atoms: C_20  and  O_21 
ROOT
HETATM    1  N   UNL     1       7.057  30.893  57.960  1.00  0.00    -0.277 NA
HETATM    2  H   UNL     1       6.205  31.347  57.634  1.00  0.00     0.129 HD
ENDROOT
BRANCH   1   3
HETATM    3  C   UNL     1       7.413  31.299  59.247  1.00  0.00     0.086 C 
HETATM    4  N   UNL     1       6.449  31.539  60.150  1.00  0.00    -0.346 N 
HETATM    5  C   UNL     1       6.661  32.019  61.385  1.00  0.00     0.044 A 
HETATM    6  H   UNL     1       5.491  31.285  59.884  1.00  0.00     0.167 HD
HETATM    7  C   UNL     1       5.589  32.337  62.225  1.00  0.00     0.037 A 
HETATM    8  C   UNL     1       7.982  32.220  61.817  1.00  0.00    -0.008 A 
HETATM    9  C   UNL     1       5.814  32.890  63.497  1.00  0.00    -0.054 A 
HETATM   10  C   UNL     1       7.136  33.129  63.923  1.00  0.00    -0.055 A 
HETATM   11  C   UNL     1       4.633  33.269  64.354  1.00  0.00     0.049 C 
HETATM   12  C   UNL     1       7.433  33.739  65.269  1.00  0.00     0.049 C 
HETATM   13  C   UNL     1       8.208  32.768  63.089  1.00  0.00     0.021 A 
HETATM   14  C   UNL     1       9.024  31.859  60.959  1.00  0.00     0.023 C 
HETATM   15  C   UNL     1       8.751  31.365  59.676  1.00  0.00    -0.023 C 
HETATM   16  C   UNL     1       9.906  30.997  58.785  1.00  0.00     0.052 C 
ENDBRANCH   1   3
BRANCH   1  17
HETATM   17  C   UNL     1       6.980  29.442  57.705  1.00  0.00     0.113 C 
BRANCH  17  18
HETATM   18  C   UNL     1       7.524  29.082  56.314  1.00  0.00     0.137 C 
BRANCH  18  19
HETATM   19  N   UNL     1       7.772  27.671  56.058  1.00  0.00    -0.356 N 
HETATM   20  C   UNL     1       6.948  26.835  55.341  1.00  0.00     0.251 C 
HETATM   21  O   UNL     1       5.807  27.144  54.998  1.00  0.00    -0.268 OA
HETATM   22  H   UNL     1       8.657  27.307  56.394  1.00  0.00     0.162 HD
BRANCH  20  23
HETATM   23  C   UNL     1       7.488  25.472  55.076  1.00  0.00     0.032 A 
HETATM   24  C   UNL     1       7.434  24.964  53.776  1.00  0.00     0.020 A 
HETATM   25  C   UNL     1       7.893  23.669  53.516  1.00  0.00     0.038 A 
HETATM   26  C   UNL     1       8.417  22.875  54.540  1.00  0.00     0.068 A 
HETATM   27  C   UNL     1       8.500  23.394  55.831  1.00  0.00     0.038 A 
HETATM   28  C   UNL     1       8.041  24.691  56.099  1.00  0.00     0.020 A 
BRANCH  26  29
HETATM   29  O   UNL     1       8.813  21.627  54.150  1.00  0.00    -0.356 OA
HETATM   30  C   UNL     1       8.075  21.009  53.102  1.00  0.00     0.210 C 
ENDBRANCH  26  29
ENDBRANCH  20  23
ENDBRANCH  18  19
ENDBRANCH  17  18
ENDBRANCH   1  17
TORSDOF 6
ENDMDL
MODEL 7
REMARK VINA RESULT:      -8.9      3.195     11.332
REMARK  6 active torsions:
REMARK  status: ('A' for Active; 'I' for Inactive)
REMARK    1  A    between atoms: C_11  and  N_12 
REMARK    2  A    between atoms: N_12  and  C_13 
REMARK    3  A    between atoms: C_13  and  C_14 
REMARK    4  A    between atoms: C_14  and  N_15 
REMARK       I    between atoms: N_15  and  C_16 
REMARK    5  A    between atoms: C_16  and  C_17 
REMARK    6  A    between atoms: C_20  and  O_21 
ROOT
HETATM    1  N   UNL     1       6.201  31.938  60.900  1.00  0.00    -0.277 NA
HETATM    2  H   UNL     1       7.048  31.906  60.333  1.00  0.00     0.129 HD
ENDROOT
BRANCH   1   3
HETATM    3  C   UNL     1       6.454  32.363  62.204  1.00  0.00     0.086 C 
HETATM    4  N   UNL     1       5.425  32.718  62.990  1.00  0.00    -0.346 N 
HETATM    5  C   UNL     1       5.547  33.227  64.225  1.00  0.00     0.044 A 
HETATM    6  H   UNL     1       4.482  32.536  62.630  1.00  0.00     0.167 HD
HETATM    7  C   UNL     1       4.424  33.666  64.935  1.00  0.00     0.037 A 
HETATM    8  C   UNL     1       6.828  33.333  64.792  1.00  0.00    -0.008 A 
HETATM    9  C   UNL     1       4.562  34.249  66.206  1.00  0.00    -0.054 A 
HETATM   10  C   UNL     1       5.847  34.392  66.766  1.00  0.00    -0.055 A 
HETATM   11  C   UNL     1       3.335  34.759  66.919  1.00  0.00     0.049 C 
HETATM   12  C   UNL     1       6.053  35.027  68.117  1.00  0.00     0.049 C 
HETATM   13  C   UNL     1       6.966  33.910  66.064  1.00  0.00     0.021 A 
HETATM   14  C   UNL     1       7.919  32.852  64.063  1.00  0.00     0.023 C 
HETATM   15  C   UNL     1       7.740  32.334  62.773  1.00  0.00    -0.023 C 
HETATM   16  C   UNL     1       8.945  31.835  62.024  1.00  0.00     0.052 C 
ENDBRANCH   1   3
BRANCH   1  17
HETATM   17  C   UNL     1       5.128  32.627  60.159  1.00  0.00     0.113 C 
BRANCH  17  18
HETATM   18  C   UNL     1       5.485  32.799  58.674  1.00  0.00     0.137 C 
BRANCH  18  19
HETATM   19  N   UNL     1       5.867  31.592  57.954  1.00  0.00    -0.356 N 
HETATM   20  C   UNL     1       7.103  30.993  58.006  1.00  0.00     0.251 C 
HETATM   21  O   UNL     1       8.090  31.522  58.519  1.00  0.00    -0.268 OA
HETATM   22  H   UNL     1       5.131  31.139  57.423  1.00  0.00     0.162 HD
BRANCH  20  23
HETATM   23  C   UNL     1       7.211  29.679  57.311  1.00  0.00     0.032 A 
HETATM   24  C   UNL     1       6.547  29.502  56.094  1.00  0.00     0.020 A 
HETATM   25  C   UNL     1       6.598  28.262  55.449  1.00  0.00     0.038 A 
HETATM   26  C   UNL     1       7.313  27.196  56.001  1.00  0.00     0.068 A 
HETATM   27  C   UNL     1       8.001  27.383  57.199  1.00  0.00     0.038 A 
HETATM   28  C   UNL     1       7.954  28.622  57.851  1.00  0.00     0.020 A 
BRANCH  26  29
HETATM   29  O   UNL     1       7.265  26.040  55.275  1.00  0.00    -0.356 OA
HETATM   30  C   UNL     1       7.480  26.144  53.872  1.00  0.00     0.210 C 
ENDBRANCH  26  29
ENDBRANCH  20  23
ENDBRANCH  18  19
ENDBRANCH  17  18
ENDBRANCH   1  17
TORSDOF 6
ENDMDL
MODEL 8
REMARK VINA RESULT:      -8.6      3.752      9.214
REMARK  6 active torsions:
REMARK  status: ('A' for Active; 'I' for Inactive)
REMARK    1  A    between atoms: C_11  and  N_12 
REMARK    2  A    between atoms: N_12  and  C_13 
REMARK    3  A    between atoms: C_13  and  C_14 
REMARK    4  A    between atoms: C_14  and  N_15 
REMARK       I    between atoms: N_15  and  C_16 
REMARK    5  A    between atoms: C_16  and  C_17 
REMARK    6  A    between atoms: C_20  and  O_21 
ROOT
HETATM    1  N   UNL     1       4.790  27.611  54.472  1.00  0.00    -0.277 NA
HETATM    2  H   UNL     1       4.978  26.623  54.636  1.00  0.00     0.129 HD
ENDROOT
BRANCH   1   3
HETATM    3  C   UNL     1       5.433  28.432  55.399  1.00  0.00     0.086 C 
HETATM    4  N   UNL     1       6.772  28.529  55.373  1.00  0.00    -0.346 N 
HETATM    5  C   UNL     1       7.506  29.210  56.266  1.00  0.00     0.044 A 
HETATM    6  H   UNL     1       7.253  28.088  54.581  1.00  0.00     0.167 HD
HETATM    7  C   UNL     1       8.904  29.173  56.223  1.00  0.00     0.037 A 
HETATM    8  C   UNL     1       6.849  29.950  57.263  1.00  0.00    -0.008 A 
HETATM    9  C   UNL     1       9.669  29.844  57.191  1.00  0.00    -0.054 A 
HETATM   10  C   UNL     1       9.016  30.557  58.216  1.00  0.00    -0.055 A 
HETATM   11  C   UNL     1      11.172  29.738  57.145  1.00  0.00     0.049 C 
HETATM   12  C   UNL     1       9.788  31.278  59.291  1.00  0.00     0.049 C 
HETATM   13  C   UNL     1       7.612  30.624  58.227  1.00  0.00     0.021 A 
HETATM   14  C   UNL     1       5.452  29.987  57.249  1.00  0.00     0.023 C 
HETATM   15  C   UNL     1       4.729  29.253  56.299  1.00  0.00    -0.023 C 
HETATM   16  C   UNL     1       3.226  29.318  56.329  1.00  0.00     0.052 C 
ENDBRANCH   1   3
BRANCH   1  17
HETATM   17  C   UNL     1       4.978  27.927  53.044  1.00  0.00     0.113 C 
BRANCH  17  18
HETATM   18  C   UNL     1       4.986  26.656  52.179  1.00  0.00     0.137 C 
BRANCH  18  19
HETATM   19  N   UNL     1       5.811  25.554  52.653  1.00  0.00    -0.356 N 
HETATM   20  C   UNL     1       7.077  25.674  53.174  1.00  0.00     0.251 C 
HETATM   21  O   UNL     1       7.735  26.714  53.117  1.00  0.00    -0.268 OA
HETATM   22  H   UNL     1       5.376  24.637  52.646  1.00  0.00     0.162 HD
BRANCH  20  23
HETATM   23  C   UNL     1       7.662  24.426  53.741  1.00  0.00     0.032 A 
HETATM   24  C   UNL     1       7.914  24.360  55.113  1.00  0.00     0.020 A 
HETATM   25  C   UNL     1       8.505  23.215  55.657  1.00  0.00     0.038 A 
HETATM   26  C   UNL     1       8.838  22.126  54.846  1.00  0.00     0.068 A 
HETATM   27  C   UNL     1       8.557  22.181  53.481  1.00  0.00     0.038 A 
HETATM   28  C   UNL     1       7.966  23.325  52.930  1.00  0.00     0.020 A 
BRANCH  26  29
HETATM   29  O   UNL     1       9.423  21.082  55.503  1.00  0.00    -0.356 OA
HETATM   30  C   UNL     1       8.710  20.525  56.603  1.00  0.00     0.210 C 
ENDBRANCH  26  29
ENDBRANCH  20  23
ENDBRANCH  18  19
ENDBRANCH  17  18
ENDBRANCH   1  17
TORSDOF 6
ENDMDL
MODEL 9
REMARK VINA RESULT:      -8.6      3.115      5.605
REMARK  6 active torsions:
REMARK  status: ('A' for Active; 'I' for Inactive)
REMARK    1  A    between atoms: C_11  and  N_12 
REMARK    2  A    between atoms: N_12  and  C_13 
REMARK    3  A    between atoms: C_13  and  C_14 
REMARK    4  A    between atoms: C_14  and  N_15 
REMARK       I    between atoms: N_15  and  C_16 
REMARK    5  A    between atoms: C_16  and  C_17 
REMARK    6  A    between atoms: C_20  and  O_21 
ROOT
HETATM    1  N   UNL     1       7.419  23.197  55.600  1.00  0.00    -0.277 NA
HETATM    2  H   UNL     1       6.723  23.310  56.336  1.00  0.00     0.129 HD
ENDROOT
BRANCH   1   3
HETATM    3  C   UNL     1       7.072  23.884  54.436  1.00  0.00     0.086 C 
HETATM    4  N   UNL     1       6.356  25.016  54.530  1.00  0.00    -0.346 N 
HETATM    5  C   UNL     1       5.887  25.712  53.484  1.00  0.00     0.044 A 
HETATM    6  H   UNL     1       6.206  25.393  55.473  1.00  0.00     0.167 HD
HETATM    7  C   UNL     1       5.062  26.826  53.675  1.00  0.00     0.037 A 
HETATM    8  C   UNL     1       6.220  25.293  52.185  1.00  0.00    -0.008 A 
HETATM    9  C   UNL     1       4.529  27.520  52.576  1.00  0.00    -0.054 A 
HETATM   10  C   UNL     1       4.829  27.083  51.270  1.00  0.00    -0.055 A 
HETATM   11  C   UNL     1       3.601  28.683  52.819  1.00  0.00     0.049 C 
HETATM   12  C   UNL     1       4.268  27.779  50.057  1.00  0.00     0.049 C 
HETATM   13  C   UNL     1       5.693  25.989  51.087  1.00  0.00     0.021 A 
HETATM   14  C   UNL     1       7.074  24.197  52.040  1.00  0.00     0.023 C 
HETATM   15  C   UNL     1       7.534  23.498  53.165  1.00  0.00    -0.023 C 
HETATM   16  C   UNL     1       8.445  22.319  52.958  1.00  0.00     0.052 C 
ENDBRANCH   1   3
BRANCH   1  17
HETATM   17  C   UNL     1       8.768  23.430  56.147  1.00  0.00     0.113 C 
BRANCH  17  18
HETATM   18  C   UNL     1       8.717  24.217  57.466  1.00  0.00     0.137 C 
BRANCH  18  19
HETATM   19  N   UNL     1       8.259  25.597  57.381  1.00  0.00    -0.356 N 
HETATM   20  C   UNL     1       6.950  26.007  57.475  1.00  0.00     0.251 C 
HETATM   21  O   UNL     1       5.995  25.231  57.447  1.00  0.00    -0.268 OA
HETATM   22  H   UNL     1       8.984  26.303  57.307  1.00  0.00     0.162 HD
BRANCH  20  23
HETATM   23  C   UNL     1       6.741  27.482  57.520  1.00  0.00     0.032 A 
HETATM   24  C   UNL     1       5.495  27.999  57.154  1.00  0.00     0.020 A 
HETATM   25  C   UNL     1       5.293  29.383  57.145  1.00  0.00     0.038 A 
HETATM   26  C   UNL     1       6.319  30.260  57.508  1.00  0.00     0.068 A 
HETATM   27  C   UNL     1       7.551  29.742  57.904  1.00  0.00     0.038 A 
HETATM   28  C   UNL     1       7.761  28.356  57.914  1.00  0.00     0.020 A 
BRANCH  26  29
HETATM   29  O   UNL     1       5.990  31.584  57.439  1.00  0.00    -0.356 OA
HETATM   30  C   UNL     1       5.863  32.287  58.671  1.00  0.00     0.210 C 
ENDBRANCH  26  29
ENDBRANCH  20  23
ENDBRANCH  18  19
ENDBRANCH  17  18
ENDBRANCH   1  17
TORSDOF 6
ENDMDL
MODEL 10
REMARK VINA RESULT:      -8.3      7.462     11.486
REMARK  6 active torsions:
REMARK  status: ('A' for Active; 'I' for Inactive)
REMARK    1  A    between atoms: C_11  and  N_12 
REMARK    2  A    between atoms: N_12  and  C_13 
REMARK    3  A    between atoms: C_13  and  C_14 
REMARK    4  A    between atoms: C_14  and  N_15 
REMARK       I    between atoms: N_15  and  C_16 
REMARK    5  A    between atoms: C_16  and  C_17 
REMARK    6  A    between atoms: C_20  and  O_21 
ROOT
HETATM    1  N   UNL     1       5.045  26.973  48.439  1.00  0.00    -0.277 NA
HETATM    2  H   UNL     1       5.282  25.991  48.573  1.00  0.00     0.129 HD
ENDROOT
BRANCH   1   3
HETATM    3  C   UNL     1       3.769  27.139  47.900  1.00  0.00     0.086 C 
HETATM    4  N   UNL     1       3.412  28.338  47.413  1.00  0.00    -0.346 N 
HETATM    5  C   UNL     1       2.189  28.644  46.955  1.00  0.00     0.044 A 
HETATM    6  H   UNL     1       4.150  29.048  47.344  1.00  0.00     0.167 HD
HETATM    7  C   UNL     1       1.876  29.949  46.560  1.00  0.00     0.037 A 
HETATM    8  C   UNL     1       1.214  27.635  46.896  1.00  0.00    -0.008 A 
HETATM    9  C   UNL     1       0.579  30.278  46.132  1.00  0.00    -0.054 A 
HETATM   10  C   UNL     1      -0.414  29.279  46.106  1.00  0.00    -0.055 A 
HETATM   11  C   UNL     1       0.264  31.706  45.765  1.00  0.00     0.049 C 
HETATM   12  C   UNL     1      -1.826  29.581  45.674  1.00  0.00     0.049 C 
HETATM   13  C   UNL     1      -0.080  27.961  46.464  1.00  0.00     0.021 A 
HETATM   14  C   UNL     1       1.578  26.338  47.268  1.00  0.00     0.023 C 
HETATM   15  C   UNL     1       2.868  26.070  47.745  1.00  0.00    -0.023 C 
HETATM   16  C   UNL     1       3.210  24.659  48.141  1.00  0.00     0.052 C 
ENDBRANCH   1   3
BRANCH   1  17
HETATM   17  C   UNL     1       5.370  27.738  49.657  1.00  0.00     0.113 C 
BRANCH  17  18
HETATM   18  C   UNL     1       4.795  27.071  50.916  1.00  0.00     0.137 C 
BRANCH  18  19
HETATM   19  N   UNL     1       5.662  26.126  51.605  1.00  0.00    -0.356 N 
HETATM   20  C   UNL     1       5.647  25.872  52.956  1.00  0.00     0.251 C 
HETATM   21  O   UNL     1       5.028  26.561  53.766  1.00  0.00    -0.268 OA
HETATM   22  H   UNL     1       6.279  25.578  51.015  1.00  0.00     0.162 HD
BRANCH  20  23
HETATM   23  C   UNL     1       6.516  24.748  53.408  1.00  0.00     0.032 A 
HETATM   24  C   UNL     1       6.558  24.432  54.769  1.00  0.00     0.020 A 
HETATM   25  C   UNL     1       7.402  23.412  55.219  1.00  0.00     0.038 A 
HETATM   26  C   UNL     1       8.199  22.694  54.323  1.00  0.00     0.068 A 
HETATM   27  C   UNL     1       8.132  22.989  52.962  1.00  0.00     0.038 A 
HETATM   28  C   UNL     1       7.290  24.010  52.504  1.00  0.00     0.020 A 
BRANCH  26  29
HETATM   29  O   UNL     1       8.986  21.737  54.899  1.00  0.00    -0.356 OA
HETATM   30  C   UNL     1       8.716  20.382  54.559  1.00  0.00     0.210 C 
ENDBRANCH  26  29
ENDBRANCH  20  23
ENDBRANCH  18  19
ENDBRANCH  17  18
ENDBRANCH   1  17
TORSDOF 6
ENDMDL
