MODEL 1
REMARK VINA RESULT:      -9.9      0.000      0.000
REMARK  3 active torsions:
REMARK  status: ('A' for Active; 'I' for Inactive)
REMARK    1  A    between atoms: C_2  and  O_3 
REMARK    2  A    between atoms: O_3  and  C_4 
REMARK    3  A    between atoms: C_5  and  N_6 
REMARK       I    between atoms: N_6  and  C_7 
REMARK       I    between atoms: C_7  and  N_8 
ROOT
HETATM    1  N   UNL     1       6.860  28.291  57.196  1.00  0.00    -0.306 N 
HETATM    2  C   UNL     1       6.581  27.674  56.001  1.00  0.00     0.323 C 
HETATM    3  N   UNL     1       7.122  26.400  55.849  1.00  0.00    -0.328 N 
HETATM    4  C   UNL     1       7.204  25.929  54.458  1.00  0.00     0.185 C 
HETATM    5  C   UNL     1       7.550  24.487  54.406  1.00  0.00     0.035 A 
HETATM    6  C   UNL     1       7.766  23.641  55.470  1.00  0.00    -0.020 A 
HETATM    7  C   UNL     1       7.651  24.138  56.861  1.00  0.00     0.061 C 
HETATM    8  C   UNL     1       7.876  25.665  56.892  1.00  0.00     0.132 C 
HETATM    9  N   UNL     1       7.714  23.772  53.253  1.00  0.00    -0.357 N 
HETATM   10  H   UNL     1       7.614  24.134  52.314  1.00  0.00     0.166 HD
HETATM   11  C   UNL     1       8.033  22.465  53.555  1.00  0.00     0.043 A 
HETATM   12  C   UNL     1       8.065  22.354  54.948  1.00  0.00    -0.001 A 
HETATM   13  C   UNL     1       8.289  21.383  52.705  1.00  0.00     0.030 A 
HETATM   14  C   UNL     1       8.581  20.150  53.295  1.00  0.00     0.002 A 
HETATM   15  C   UNL     1       8.616  20.008  54.680  1.00  0.00     0.001 A 
HETATM   16  C   UNL     1       8.360  21.100  55.518  1.00  0.00     0.014 A 
HETATM   17  O   UNL     1       5.936  28.202  55.096  1.00  0.00    -0.247 OA
HETATM   18  H   UNL     1       7.735  28.045  57.637  1.00  0.00     0.171 HD
ENDROOT
BRANCH   1  19
HETATM   19  C   UNL     1       6.342  29.534  57.637  1.00  0.00     0.072 A 
HETATM   20  C   UNL     1       7.238  30.427  58.266  1.00  0.00     0.096 A 
HETATM   21  C   UNL     1       6.777  31.674  58.698  1.00  0.00     0.042 A 
HETATM   22  C   UNL     1       5.433  32.019  58.535  1.00  0.00     0.045 A 
HETATM   23  C   UNL     1       4.558  31.120  57.941  1.00  0.00     0.118 A 
HETATM   24  C   UNL     1       4.997  29.882  57.490  1.00  0.00     0.074 A 
HETATM   25  F   UNL     1       3.267  31.454  57.805  1.00  0.00    -0.206 F 
BRANCH  20  26
HETATM   26  O   UNL     1       8.531  29.973  58.376  1.00  0.00    -0.344 OA
BRANCH  26  27
HETATM   27  C   UNL     1       9.565  30.586  57.597  1.00  0.00     0.121 C 
HETATM   28  C   UNL     1      10.517  29.517  57.068  1.00  0.00     0.040 C 
HETATM   29  C   UNL     1      10.312  31.535  58.531  1.00  0.00     0.040 C 
ENDBRANCH  26  27
ENDBRANCH  20  26
ENDBRANCH   1  19
TORSDOF 3
ENDMDL
MODEL 2
REMARK VINA RESULT:      -9.7      1.893      3.438
REMARK  3 active torsions:
REMARK  status: ('A' for Active; 'I' for Inactive)
REMARK    1  A    between atoms: C_2  and  O_3 
REMARK    2  A    between atoms: O_3  and  C_4 
REMARK    3  A    between atoms: C_5  and  N_6 
REMARK       I    between atoms: N_6  and  C_7 
REMARK       I    between atoms: C_7  and  N_8 
ROOT
HETATM    1  N   UNL     1       6.371  28.355  56.892  1.00  0.00    -0.306 N 
HETATM    2  C   UNL     1       7.202  27.347  57.316  1.00  0.00     0.323 C 
HETATM    3  N   UNL     1       7.178  26.192  56.538  1.00  0.00    -0.328 N 
HETATM    4  C   UNL     1       7.704  24.991  57.205  1.00  0.00     0.185 C 
HETATM    5  C   UNL     1       7.877  23.880  56.238  1.00  0.00     0.035 A 
HETATM    6  C   UNL     1       7.615  23.900  54.886  1.00  0.00    -0.020 A 
HETATM    7  C   UNL     1       7.110  25.133  54.236  1.00  0.00     0.061 C 
HETATM    8  C   UNL     1       6.409  26.026  55.283  1.00  0.00     0.132 C 
HETATM    9  N   UNL     1       8.332  22.633  56.564  1.00  0.00    -0.357 N 
HETATM   10  H   UNL     1       8.606  22.328  57.488  1.00  0.00     0.166 HD
HETATM   11  C   UNL     1       8.371  21.840  55.437  1.00  0.00     0.043 A 
HETATM   12  C   UNL     1       7.930  22.618  54.362  1.00  0.00    -0.001 A 
HETATM   13  C   UNL     1       8.764  20.504  55.291  1.00  0.00     0.030 A 
HETATM   14  C   UNL     1       8.711  19.949  54.010  1.00  0.00     0.002 A 
HETATM   15  C   UNL     1       8.281  20.701  52.919  1.00  0.00     0.001 A 
HETATM   16  C   UNL     1       7.888  22.035  53.081  1.00  0.00     0.014 A 
HETATM   17  O   UNL     1       7.897  27.417  58.328  1.00  0.00    -0.247 OA
HETATM   18  H   UNL     1       5.528  28.074  56.410  1.00  0.00     0.171 HD
ENDROOT
BRANCH   1  19
HETATM   19  C   UNL     1       6.291  29.659  57.441  1.00  0.00     0.072 A 
HETATM   20  C   UNL     1       5.161  30.440  57.105  1.00  0.00     0.096 A 
HETATM   21  C   UNL     1       5.028  31.724  57.640  1.00  0.00     0.042 A 
HETATM   22  C   UNL     1       6.021  32.240  58.477  1.00  0.00     0.045 A 
HETATM   23  C   UNL     1       7.138  31.473  58.776  1.00  0.00     0.118 A 
HETATM   24  C   UNL     1       7.284  30.189  58.268  1.00  0.00     0.074 A 
HETATM   25  F   UNL     1       8.092  31.985  59.566  1.00  0.00    -0.206 F 
BRANCH  20  26
HETATM   26  O   UNL     1       4.259  29.827  56.268  1.00  0.00    -0.344 OA
BRANCH  26  27
HETATM   27  C   UNL     1       4.233  30.175  54.879  1.00  0.00     0.121 C 
HETATM   28  C   UNL     1       3.056  31.107  54.601  1.00  0.00     0.040 C 
HETATM   29  C   UNL     1       4.061  28.872  54.104  1.00  0.00     0.040 C 
ENDBRANCH  26  27
ENDBRANCH  20  26
ENDBRANCH   1  19
TORSDOF 3
ENDMDL
MODEL 3
REMARK VINA RESULT:      -9.4      5.616     11.234
REMARK  3 active torsions:
REMARK  status: ('A' for Active; 'I' for Inactive)
REMARK    1  A    between atoms: C_2  and  O_3 
REMARK    2  A    between atoms: O_3  and  C_4 
REMARK    3  A    between atoms: C_5  and  N_6 
REMARK       I    between atoms: N_6  and  C_7 
REMARK       I    between atoms: C_7  and  N_8 
ROOT
HETATM    1  N   UNL     1       8.235  31.632  59.665  1.00  0.00    -0.306 N 
HETATM    2  C   UNL     1       8.366  31.440  61.019  1.00  0.00     0.323 C 
HETATM    3  N   UNL     1       7.573  32.263  61.815  1.00  0.00    -0.328 N 
HETATM    4  C   UNL     1       8.014  32.374  63.213  1.00  0.00     0.185 C 
HETATM    5  C   UNL     1       6.987  33.052  64.041  1.00  0.00     0.035 A 
HETATM    6  C   UNL     1       5.763  33.528  63.629  1.00  0.00    -0.020 A 
HETATM    7  C   UNL     1       5.334  33.378  62.218  1.00  0.00     0.061 C 
HETATM    8  C   UNL     1       6.573  33.230  61.308  1.00  0.00     0.132 C 
HETATM    9  N   UNL     1       7.119  33.316  65.376  1.00  0.00    -0.357 N 
HETATM   10  H   UNL     1       7.917  33.077  65.949  1.00  0.00     0.166 HD
HETATM   11  C   UNL     1       5.990  33.957  65.839  1.00  0.00     0.043 A 
HETATM   12  C   UNL     1       5.115  34.098  64.758  1.00  0.00    -0.001 A 
HETATM   13  C   UNL     1       5.681  34.417  67.125  1.00  0.00     0.030 A 
HETATM   14  C   UNL     1       4.440  35.031  67.313  1.00  0.00     0.002 A 
HETATM   15  C   UNL     1       3.545  35.180  66.256  1.00  0.00     0.001 A 
HETATM   16  C   UNL     1       3.870  34.718  64.974  1.00  0.00     0.014 A 
HETATM   17  O   UNL     1       9.150  30.635  61.519  1.00  0.00    -0.247 OA
HETATM   18  H   UNL     1       7.991  32.565  59.362  1.00  0.00     0.171 HD
ENDROOT
BRANCH   1  19
HETATM   19  C   UNL     1       8.843  30.857  58.647  1.00  0.00     0.072 A 
HETATM   20  C   UNL     1       7.995  30.075  57.829  1.00  0.00     0.096 A 
HETATM   21  C   UNL     1       8.548  29.310  56.797  1.00  0.00     0.042 A 
HETATM   22  C   UNL     1       9.930  29.298  56.599  1.00  0.00     0.045 A 
HETATM   23  C   UNL     1      10.753  30.048  57.427  1.00  0.00     0.118 A 
HETATM   24  C   UNL     1      10.225  30.827  58.449  1.00  0.00     0.074 A 
HETATM   25  F   UNL     1      12.080  30.014  57.239  1.00  0.00    -0.206 F 
BRANCH  20  26
HETATM   26  O   UNL     1       6.656  30.164  58.126  1.00  0.00    -0.344 OA
BRANCH  26  27
HETATM   27  C   UNL     1       5.754  30.727  57.167  1.00  0.00     0.121 C 
HETATM   28  C   UNL     1       5.328  32.123  57.613  1.00  0.00     0.040 C 
HETATM   29  C   UNL     1       4.540  29.803  57.112  1.00  0.00     0.040 C 
ENDBRANCH  26  27
ENDBRANCH  20  26
ENDBRANCH   1  19
TORSDOF 3
ENDMDL
MODEL 4
REMARK VINA RESULT:      -9.3      1.809      2.615
REMARK  3 active torsions:
REMARK  status: ('A' for Active; 'I' for Inactive)
REMARK    1  A    between atoms: C_2  and  O_3 
REMARK    2  A    between atoms: O_3  and  C_4 
REMARK    3  A    between atoms: C_5  and  N_6 
REMARK       I    between atoms: N_6  and  C_7 
REMARK       I    between atoms: C_7  and  N_8 
ROOT
HETATM    1  N   UNL     1       6.127  30.258  58.187  1.00  0.00    -0.306 N 
HETATM    2  C   UNL     1       6.110  29.978  56.843  1.00  0.00     0.323 C 
HETATM    3  N   UNL     1       6.540  28.699  56.497  1.00  0.00    -0.328 N 
HETATM    4  C   UNL     1       6.935  28.544  55.090  1.00  0.00     0.185 C 
HETATM    5  C   UNL     1       7.134  27.113  54.749  1.00  0.00     0.035 A 
HETATM    6  C   UNL     1       6.976  26.027  55.580  1.00  0.00    -0.020 A 
HETATM    7  C   UNL     1       6.550  26.213  56.988  1.00  0.00     0.061 C 
HETATM    8  C   UNL     1       6.914  27.637  57.460  1.00  0.00     0.132 C 
HETATM    9  N   UNL     1       7.521  26.656  53.520  1.00  0.00    -0.357 N 
HETATM   10  H   UNL     1       7.709  27.230  52.709  1.00  0.00     0.166 HD
HETATM   11  C   UNL     1       7.615  25.281  53.542  1.00  0.00     0.043 A 
HETATM   12  C   UNL     1       7.269  24.858  54.829  1.00  0.00    -0.001 A 
HETATM   13  C   UNL     1       7.974  24.389  52.524  1.00  0.00     0.030 A 
HETATM   14  C   UNL     1       7.973  23.025  52.828  1.00  0.00     0.002 A 
HETATM   15  C   UNL     1       7.628  22.573  54.100  1.00  0.00     0.001 A 
HETATM   16  C   UNL     1       7.274  23.478  55.109  1.00  0.00     0.014 A 
HETATM   17  O   UNL     1       5.782  30.793  55.981  1.00  0.00    -0.247 OA
HETATM   18  H   UNL     1       6.826  29.781  58.740  1.00  0.00     0.171 HD
ENDROOT
BRANCH   1  19
HETATM   19  C   UNL     1       5.640  31.439  58.802  1.00  0.00     0.072 A 
HETATM   20  C   UNL     1       6.414  31.997  59.844  1.00  0.00     0.096 A 
HETATM   21  C   UNL     1       5.985  33.174  60.466  1.00  0.00     0.042 A 
HETATM   22  C   UNL     1       4.785  33.773  60.077  1.00  0.00     0.045 A 
HETATM   23  C   UNL     1       4.020  33.198  59.071  1.00  0.00     0.118 A 
HETATM   24  C   UNL     1       4.434  32.038  58.429  1.00  0.00     0.074 A 
HETATM   25  F   UNL     1       2.862  33.772  58.718  1.00  0.00    -0.206 F 
BRANCH  20  26
HETATM   26  O   UNL     1       7.569  31.314  60.142  1.00  0.00    -0.344 OA
BRANCH  26  27
HETATM   27  C   UNL     1       8.831  31.986  60.059  1.00  0.00     0.121 C 
HETATM   28  C   UNL     1       9.561  31.564  58.787  1.00  0.00     0.040 C 
HETATM   29  C   UNL     1       9.633  31.564  61.287  1.00  0.00     0.040 C 
ENDBRANCH  26  27
ENDBRANCH  20  26
ENDBRANCH   1  19
TORSDOF 3
ENDMDL
MODEL 5
REMARK VINA RESULT:      -9.3      3.486      4.983
REMARK  3 active torsions:
REMARK  status: ('A' for Active; 'I' for Inactive)
REMARK    1  A    between atoms: C_2  and  O_3 
REMARK    2  A    between atoms: O_3  and  C_4 
REMARK    3  A    between atoms: C_5  and  N_6 
REMARK       I    between atoms: N_6  and  C_7 
REMARK       I    between atoms: C_7  and  N_8 
ROOT
HETATM    1  N   UNL     1       4.646  27.994  53.485  1.00  0.00    -0.306 N 
HETATM    2  C   UNL     1       5.528  27.570  54.448  1.00  0.00     0.323 C 
HETATM    3  N   UNL     1       5.857  26.218  54.400  1.00  0.00    -0.328 N 
HETATM    4  C   UNL     1       6.426  25.679  55.644  1.00  0.00     0.185 C 
HETATM    5  C   UNL     1       6.975  24.318  55.430  1.00  0.00     0.035 A 
HETATM    6  C   UNL     1       6.996  23.600  54.254  1.00  0.00    -0.020 A 
HETATM    7  C   UNL     1       6.438  24.181  53.010  1.00  0.00     0.061 C 
HETATM    8  C   UNL     1       5.399  25.268  53.359  1.00  0.00     0.132 C 
HETATM    9  N   UNL     1       7.554  23.553  56.404  1.00  0.00    -0.357 N 
HETATM   10  H   UNL     1       7.680  23.825  57.370  1.00  0.00     0.166 HD
HETATM   11  C   UNL     1       7.954  22.345  55.875  1.00  0.00     0.043 A 
HETATM   12  C   UNL     1       7.620  22.352  54.518  1.00  0.00    -0.001 A 
HETATM   13  C   UNL     1       8.585  21.258  56.493  1.00  0.00     0.030 A 
HETATM   14  C   UNL     1       8.888  20.149  55.699  1.00  0.00     0.002 A 
HETATM   15  C   UNL     1       8.572  20.129  54.342  1.00  0.00     0.001 A 
HETATM   16  C   UNL     1       7.938  21.222  53.739  1.00  0.00     0.014 A 
HETATM   17  O   UNL     1       5.980  28.303  55.328  1.00  0.00    -0.247 OA
HETATM   18  H   UNL     1       3.979  27.312  53.152  1.00  0.00     0.171 HD
ENDROOT
BRANCH   1  19
HETATM   19  C   UNL     1       4.240  29.332  53.252  1.00  0.00     0.072 A 
HETATM   20  C   UNL     1       4.613  29.921  52.022  1.00  0.00     0.096 A 
HETATM   21  C   UNL     1       4.216  31.232  51.739  1.00  0.00     0.042 A 
HETATM   22  C   UNL     1       3.484  31.960  52.679  1.00  0.00     0.045 A 
HETATM   23  C   UNL     1       3.149  31.378  53.895  1.00  0.00     0.118 A 
HETATM   24  C   UNL     1       3.519  30.073  54.191  1.00  0.00     0.074 A 
HETATM   25  F   UNL     1       2.461  32.093  54.796  1.00  0.00    -0.206 F 
BRANCH  20  26
HETATM   26  O   UNL     1       5.338  29.109  51.184  1.00  0.00    -0.344 OA
BRANCH  26  27
HETATM   27  C   UNL     1       4.707  28.534  50.034  1.00  0.00     0.121 C 
HETATM   28  C   UNL     1       4.922  27.023  50.026  1.00  0.00     0.040 C 
HETATM   29  C   UNL     1       5.369  29.163  48.811  1.00  0.00     0.040 C 
ENDBRANCH  26  27
ENDBRANCH  20  26
ENDBRANCH   1  19
TORSDOF 3
ENDMDL
MODEL 6
REMARK VINA RESULT:      -9.2      2.964      8.418
REMARK  3 active torsions:
REMARK  status: ('A' for Active; 'I' for Inactive)
REMARK    1  A    between atoms: C_2  and  O_3 
REMARK    2  A    between atoms: O_3  and  C_4 
REMARK    3  A    between atoms: C_5  and  N_6 
REMARK       I    between atoms: N_6  and  C_7 
REMARK       I    between atoms: C_7  and  N_8 
ROOT
HETATM    1  N   UNL     1       6.290  27.621  54.422  1.00  0.00    -0.306 N 
HETATM    2  C   UNL     1       5.861  28.776  55.031  1.00  0.00     0.323 C 
HETATM    3  N   UNL     1       6.483  29.075  56.241  1.00  0.00    -0.328 N 
HETATM    4  C   UNL     1       5.749  30.027  57.089  1.00  0.00     0.185 C 
HETATM    5  C   UNL     1       6.588  30.481  58.225  1.00  0.00     0.035 A 
HETATM    6  C   UNL     1       7.886  30.113  58.505  1.00  0.00    -0.020 A 
HETATM    7  C   UNL     1       8.608  29.171  57.617  1.00  0.00     0.061 C 
HETATM    8  C   UNL     1       7.595  28.302  56.841  1.00  0.00     0.132 C 
HETATM    9  N   UNL     1       6.176  31.353  59.193  1.00  0.00    -0.357 N 
HETATM   10  H   UNL     1       5.265  31.791  59.244  1.00  0.00     0.166 HD
HETATM   11  C   UNL     1       7.193  31.560  60.100  1.00  0.00     0.043 A 
HETATM   12  C   UNL     1       8.286  30.794  59.685  1.00  0.00    -0.001 A 
HETATM   13  C   UNL     1       7.225  32.365  61.246  1.00  0.00     0.030 A 
HETATM   14  C   UNL     1       8.411  32.393  61.984  1.00  0.00     0.002 A 
HETATM   15  C   UNL     1       9.519  31.644  61.592  1.00  0.00     0.001 A 
HETATM   16  C   UNL     1       9.470  30.842  60.446  1.00  0.00     0.014 A 
HETATM   17  O   UNL     1       4.965  29.490  54.583  1.00  0.00    -0.247 OA
HETATM   18  H   UNL     1       6.619  26.885  55.030  1.00  0.00     0.171 HD
ENDROOT
BRANCH   1  19
HETATM   19  C   UNL     1       5.898  27.156  53.142  1.00  0.00     0.072 A 
HETATM   20  C   UNL     1       5.636  25.774  53.004  1.00  0.00     0.096 A 
HETATM   21  C   UNL     1       5.226  25.271  51.766  1.00  0.00     0.042 A 
HETATM   22  C   UNL     1       5.105  26.127  50.669  1.00  0.00     0.045 A 
HETATM   23  C   UNL     1       5.393  27.478  50.812  1.00  0.00     0.118 A 
HETATM   24  C   UNL     1       5.788  28.001  52.036  1.00  0.00     0.074 A 
HETATM   25  F   UNL     1       5.291  28.286  49.748  1.00  0.00    -0.206 F 
BRANCH  20  26
HETATM   26  O   UNL     1       5.797  25.034  54.151  1.00  0.00    -0.344 OA
BRANCH  26  27
HETATM   27  C   UNL     1       6.715  23.934  54.161  1.00  0.00     0.121 C 
HETATM   28  C   UNL     1       7.067  23.566  55.601  1.00  0.00     0.040 C 
HETATM   29  C   UNL     1       7.966  24.401  53.421  1.00  0.00     0.040 C 
ENDBRANCH  26  27
ENDBRANCH  20  26
ENDBRANCH   1  19
TORSDOF 3
ENDMDL
MODEL 7
REMARK VINA RESULT:      -8.9      4.575      6.260
REMARK  3 active torsions:
REMARK  status: ('A' for Active; 'I' for Inactive)
REMARK    1  A    between atoms: C_2  and  O_3 
REMARK    2  A    between atoms: O_3  and  C_4 
REMARK    3  A    between atoms: C_5  and  N_6 
REMARK       I    between atoms: N_6  and  C_7 
REMARK       I    between atoms: C_7  and  N_8 
ROOT
HETATM    1  N   UNL     1       6.989  29.077  54.846  1.00  0.00    -0.306 N 
HETATM    2  C   UNL     1       6.953  27.922  54.102  1.00  0.00     0.323 C 
HETATM    3  N   UNL     1       6.105  27.953  52.998  1.00  0.00    -0.328 N 
HETATM    4  C   UNL     1       5.732  26.631  52.474  1.00  0.00     0.185 C 
HETATM    5  C   UNL     1       5.045  26.754  51.165  1.00  0.00     0.035 A 
HETATM    6  C   UNL     1       4.770  27.912  50.471  1.00  0.00    -0.020 A 
HETATM    7  C   UNL     1       5.183  29.228  51.012  1.00  0.00     0.061 C 
HETATM    8  C   UNL     1       5.339  29.137  52.546  1.00  0.00     0.132 C 
HETATM    9  N   UNL     1       4.564  25.700  50.439  1.00  0.00    -0.357 N 
HETATM   10  H   UNL     1       4.626  24.725  50.703  1.00  0.00     0.166 HD
HETATM   11  C   UNL     1       3.981  26.158  49.278  1.00  0.00     0.043 A 
HETATM   12  C   UNL     1       4.104  27.551  49.269  1.00  0.00    -0.001 A 
HETATM   13  C   UNL     1       3.362  25.448  48.242  1.00  0.00     0.030 A 
HETATM   14  C   UNL     1       2.861  26.182  47.163  1.00  0.00     0.002 A 
HETATM   15  C   UNL     1       2.973  27.570  47.125  1.00  0.00     0.001 A 
HETATM   16  C   UNL     1       3.592  28.266  48.170  1.00  0.00     0.014 A 
HETATM   17  O   UNL     1       7.584  26.906  54.391  1.00  0.00    -0.247 OA
HETATM   18  H   UNL     1       6.146  29.633  54.857  1.00  0.00     0.171 HD
ENDROOT
BRANCH   1  19
HETATM   19  C   UNL     1       7.845  29.338  55.944  1.00  0.00     0.072 A 
HETATM   20  C   UNL     1       7.240  29.652  57.182  1.00  0.00     0.096 A 
HETATM   21  C   UNL     1       8.044  29.896  58.300  1.00  0.00     0.042 A 
HETATM   22  C   UNL     1       9.435  29.857  58.183  1.00  0.00     0.045 A 
HETATM   23  C   UNL     1      10.017  29.576  56.954  1.00  0.00     0.118 A 
HETATM   24  C   UNL     1       9.238  29.316  55.834  1.00  0.00     0.074 A 
HETATM   25  F   UNL     1      11.353  29.559  56.850  1.00  0.00    -0.206 F 
BRANCH  20  26
HETATM   26  O   UNL     1       5.865  29.666  57.170  1.00  0.00    -0.344 OA
BRANCH  26  27
HETATM   27  C   UNL     1       5.165  30.792  57.712  1.00  0.00     0.121 C 
HETATM   28  C   UNL     1       3.679  30.466  57.840  1.00  0.00     0.040 C 
HETATM   29  C   UNL     1       5.363  31.945  56.731  1.00  0.00     0.040 C 
ENDBRANCH  26  27
ENDBRANCH  20  26
ENDBRANCH   1  19
TORSDOF 3
ENDMDL
MODEL 8
REMARK VINA RESULT:      -8.8      2.955      9.011
REMARK  3 active torsions:
REMARK  status: ('A' for Active; 'I' for Inactive)
REMARK    1  A    between atoms: C_2  and  O_3 
REMARK    2  A    between atoms: O_3  and  C_4 
REMARK    3  A    between atoms: C_5  and  N_6 
REMARK       I    between atoms: N_6  and  C_7 
REMARK       I    between atoms: C_7  and  N_8 
ROOT
HETATM    1  N   UNL     1       7.322  25.954  55.155  1.00  0.00    -0.306 N 
HETATM    2  C   UNL     1       7.643  26.558  56.346  1.00  0.00     0.323 C 
HETATM    3  N   UNL     1       6.997  27.768  56.591  1.00  0.00    -0.328 N 
HETATM    4  C   UNL     1       7.639  28.611  57.610  1.00  0.00     0.185 C 
HETATM    5  C   UNL     1       6.762  29.747  57.988  1.00  0.00     0.035 A 
HETATM    6  C   UNL     1       5.505  30.029  57.502  1.00  0.00    -0.020 A 
HETATM    7  C   UNL     1       4.873  29.145  56.494  1.00  0.00     0.061 C 
HETATM    8  C   UNL     1       5.962  28.371  55.720  1.00  0.00     0.132 C 
HETATM    9  N   UNL     1       7.093  30.711  58.898  1.00  0.00    -0.357 N 
HETATM   10  H   UNL     1       7.959  30.760  59.419  1.00  0.00     0.166 HD
HETATM   11  C   UNL     1       6.062  31.619  59.013  1.00  0.00     0.043 A 
HETATM   12  C   UNL     1       5.044  31.207  58.148  1.00  0.00    -0.001 A 
HETATM   13  C   UNL     1       5.955  32.762  59.815  1.00  0.00     0.030 A 
HETATM   14  C   UNL     1       4.772  33.501  59.736  1.00  0.00     0.002 A 
HETATM   15  C   UNL     1       3.739  33.112  58.886  1.00  0.00     0.001 A 
HETATM   16  C   UNL     1       3.861  31.969  58.088  1.00  0.00     0.014 A 
HETATM   17  O   UNL     1       8.468  26.106  57.139  1.00  0.00    -0.247 OA
HETATM   18  H   UNL     1       7.064  26.565  54.393  1.00  0.00     0.171 HD
ENDROOT
BRANCH   1  19
HETATM   19  C   UNL     1       7.755  24.675  54.723  1.00  0.00     0.072 A 
HETATM   20  C   UNL     1       7.579  24.355  53.358  1.00  0.00     0.096 A 
HETATM   21  C   UNL     1       8.010  23.113  52.881  1.00  0.00     0.042 A 
HETATM   22  C   UNL     1       8.583  22.188  53.756  1.00  0.00     0.045 A 
HETATM   23  C   UNL     1       8.724  22.505  55.100  1.00  0.00     0.118 A 
HETATM   24  C   UNL     1       8.316  23.738  55.593  1.00  0.00     0.074 A 
HETATM   25  F   UNL     1       9.259  21.603  55.934  1.00  0.00    -0.206 F 
BRANCH  20  26
HETATM   26  O   UNL     1       6.997  25.342  52.599  1.00  0.00    -0.344 OA
BRANCH  26  27
HETATM   27  C   UNL     1       5.764  25.079  51.920  1.00  0.00     0.121 C 
HETATM   28  C   UNL     1       5.434  26.235  50.979  1.00  0.00     0.040 C 
HETATM   29  C   UNL     1       4.689  24.958  52.996  1.00  0.00     0.040 C 
ENDBRANCH  26  27
ENDBRANCH  20  26
ENDBRANCH   1  19
TORSDOF 3
ENDMDL
MODEL 9
REMARK VINA RESULT:      -8.7      5.145      8.625
REMARK  3 active torsions:
REMARK  status: ('A' for Active; 'I' for Inactive)
REMARK    1  A    between atoms: C_2  and  O_3 
REMARK    2  A    between atoms: O_3  and  C_4 
REMARK    3  A    between atoms: C_5  and  N_6 
REMARK       I    between atoms: N_6  and  C_7 
REMARK       I    between atoms: C_7  and  N_8 
ROOT
HETATM    1  N   UNL     1       6.479  24.317  53.417  1.00  0.00    -0.306 N 
HETATM    2  C   UNL     1       6.673  25.072  52.286  1.00  0.00     0.323 C 
HETATM    3  N   UNL     1       5.722  26.064  52.064  1.00  0.00    -0.328 N 
HETATM    4  C   UNL     1       5.667  26.564  50.682  1.00  0.00     0.185 C 
HETATM    5  C   UNL     1       4.819  27.778  50.590  1.00  0.00     0.035 A 
HETATM    6  C   UNL     1       4.154  28.412  51.616  1.00  0.00    -0.020 A 
HETATM    7  C   UNL     1       4.249  27.900  53.003  1.00  0.00     0.061 C 
HETATM    8  C   UNL     1       4.610  26.399  52.983  1.00  0.00     0.132 C 
HETATM    9  N   UNL     1       4.564  28.459  49.432  1.00  0.00    -0.357 N 
HETATM   10  H   UNL     1       4.924  28.222  48.517  1.00  0.00     0.166 HD
HETATM   11  C   UNL     1       3.741  29.533  49.694  1.00  0.00     0.043 A 
HETATM   12  C   UNL     1       3.472  29.530  51.066  1.00  0.00    -0.001 A 
HETATM   13  C   UNL     1       3.221  30.499  48.824  1.00  0.00     0.030 A 
HETATM   14  C   UNL     1       2.410  31.496  49.373  1.00  0.00     0.002 A 
HETATM   15  C   UNL     1       2.129  31.522  50.738  1.00  0.00     0.001 A 
HETATM   16  C   UNL     1       2.653  30.547  51.595  1.00  0.00     0.014 A 
HETATM   17  O   UNL     1       7.590  24.880  51.488  1.00  0.00    -0.247 OA
HETATM   18  H   UNL     1       5.522  24.193  53.719  1.00  0.00     0.171 HD
ENDROOT
BRANCH   1  19
HETATM   19  C   UNL     1       7.356  23.325  53.922  1.00  0.00     0.072 A 
HETATM   20  C   UNL     1       8.004  23.593  55.150  1.00  0.00     0.096 A 
HETATM   21  C   UNL     1       8.862  22.635  55.698  1.00  0.00     0.042 A 
HETATM   22  C   UNL     1       9.098  21.437  55.021  1.00  0.00     0.045 A 
HETATM   23  C   UNL     1       8.478  21.200  53.802  1.00  0.00     0.118 A 
HETATM   24  C   UNL     1       7.610  22.130  53.245  1.00  0.00     0.074 A 
HETATM   25  F   UNL     1       8.725  20.054  53.152  1.00  0.00    -0.206 F 
BRANCH  20  26
HETATM   26  O   UNL     1       7.698  24.807  55.717  1.00  0.00    -0.344 OA
BRANCH  26  27
HETATM   27  C   UNL     1       7.051  24.849  56.994  1.00  0.00     0.121 C 
HETATM   28  C   UNL     1       5.572  25.184  56.815  1.00  0.00     0.040 C 
HETATM   29  C   UNL     1       7.741  25.947  57.799  1.00  0.00     0.040 C 
ENDBRANCH  26  27
ENDBRANCH  20  26
ENDBRANCH   1  19
TORSDOF 3
ENDMDL
MODEL 10
REMARK VINA RESULT:      -8.6      3.723      4.966
REMARK  3 active torsions:
REMARK  status: ('A' for Active; 'I' for Inactive)
REMARK    1  A    between atoms: C_2  and  O_3 
REMARK    2  A    between atoms: O_3  and  C_4 
REMARK    3  A    between atoms: C_5  and  N_6 
REMARK       I    between atoms: N_6  and  C_7 
REMARK       I    between atoms: C_7  and  N_8 
ROOT
HETATM    1  N   UNL     1       5.850  28.127  52.551  1.00  0.00    -0.306 N 
HETATM    2  C   UNL     1       5.828  26.827  52.108  1.00  0.00     0.323 C 
HETATM    3  N   UNL     1       6.473  25.908  52.931  1.00  0.00    -0.328 N 
HETATM    4  C   UNL     1       6.830  24.641  52.275  1.00  0.00     0.185 C 
HETATM    5  C   UNL     1       7.277  23.636  53.271  1.00  0.00     0.035 A 
HETATM    6  C   UNL     1       7.360  23.792  54.637  1.00  0.00    -0.020 A 
HETATM    7  C   UNL     1       6.968  25.073  55.272  1.00  0.00     0.061 C 
HETATM    8  C   UNL     1       7.080  26.221  54.246  1.00  0.00     0.132 C 
HETATM    9  N   UNL     1       7.689  22.369  52.962  1.00  0.00    -0.357 N 
HETATM   10  H   UNL     1       7.732  21.973  52.033  1.00  0.00     0.166 HD
HETATM   11  C   UNL     1       8.038  21.698  54.114  1.00  0.00     0.043 A 
HETATM   12  C   UNL     1       7.833  22.571  55.186  1.00  0.00    -0.001 A 
HETATM   13  C   UNL     1       8.514  20.391  54.284  1.00  0.00     0.030 A 
HETATM   14  C   UNL     1       8.780  19.963  55.587  1.00  0.00     0.002 A 
HETATM   15  C   UNL     1       8.580  20.809  56.675  1.00  0.00     0.001 A 
HETATM   16  C   UNL     1       8.108  22.114  56.490  1.00  0.00     0.014 A 
HETATM   17  O   UNL     1       5.318  26.479  51.044  1.00  0.00    -0.247 OA
HETATM   18  H   UNL     1       6.649  28.402  53.106  1.00  0.00     0.171 HD
ENDROOT
BRANCH   1  19
HETATM   19  C   UNL     1       5.179  29.225  51.957  1.00  0.00     0.072 A 
HETATM   20  C   UNL     1       4.028  29.717  52.615  1.00  0.00     0.096 A 
HETATM   21  C   UNL     1       3.345  30.813  52.078  1.00  0.00     0.042 A 
HETATM   22  C   UNL     1       3.782  31.394  50.886  1.00  0.00     0.045 A 
HETATM   23  C   UNL     1       4.896  30.883  50.236  1.00  0.00     0.118 A 
HETATM   24  C   UNL     1       5.599  29.804  50.758  1.00  0.00     0.074 A 
HETATM   25  F   UNL     1       5.296  31.438  49.084  1.00  0.00    -0.206 F 
BRANCH  20  26
HETATM   26  O   UNL     1       3.693  29.058  53.774  1.00  0.00    -0.344 OA
BRANCH  26  27
HETATM   27  C   UNL     1       3.742  29.756  55.024  1.00  0.00     0.121 C 
HETATM   28  C   UNL     1       4.864  30.791  54.997  1.00  0.00     0.040 C 
HETATM   29  C   UNL     1       4.022  28.709  56.099  1.00  0.00     0.040 C 
ENDBRANCH  26  27
ENDBRANCH  20  26
ENDBRANCH   1  19
TORSDOF 3
ENDMDL
