MODEL 1
REMARK VINA RESULT:      -8.6      0.000      0.000
REMARK  8 active torsions:
REMARK  status: ('A' for Active; 'I' for Inactive)
REMARK    1  A    between atoms: C_2  and  O_3 
REMARK    2  A    between atoms: C_2  and  C_4 
REMARK    3  A    between atoms: C_2  and  C_29 
REMARK    4  A    between atoms: N_11  and  C_13 
REMARK    5  A    between atoms: C_13  and  C_14 
REMARK    6  A    between atoms: C_16  and  S_17 
REMARK    7  A    between atoms: S_17  and  C_18 
REMARK    8  A    between atoms: C_29  and  N_30 
ROOT
HETATM    1  C   UNL     1       7.078  27.262  56.632  1.00  0.00    -0.022 A 
HETATM    2  C   UNL     1       7.241  27.004  55.252  1.00  0.00     0.022 A 
HETATM    3  C   UNL     1       7.658  25.757  54.755  1.00  0.00     0.002 A 
HETATM    4  C   UNL     1       7.893  24.730  55.663  1.00  0.00     0.076 A 
HETATM    5  O   UNL     1       8.321  23.498  55.258  1.00  0.00    -0.349 OA
HETATM    6  C   UNL     1       7.313  22.805  54.513  1.00  0.00     0.203 C 
HETATM    7  C   UNL     1       7.440  23.087  53.014  1.00  0.00     0.262 C 
HETATM    8  N   UNL     1       7.025  24.496  52.631  1.00  0.00    -0.059 N 
HETATM    9  H   UNL     1       7.238  24.582  51.631  1.00  0.00     0.280 HD
HETATM   10  C   UNL     1       7.889  25.559  53.282  1.00  0.00     0.276 C 
HETATM   11  C   UNL     1       7.756  24.948  57.029  1.00  0.00     0.038 A 
HETATM   12  C   UNL     1       7.339  26.195  57.508  1.00  0.00     0.013 A 
ENDROOT
BRANCH   8  13
HETATM   13  C   UNL     1       5.535  24.746  52.738  1.00  0.00     0.299 C 
BRANCH  13  14
HETATM   14  C   UNL     1       5.127  26.086  52.248  1.00  0.00     0.080 A 
HETATM   15  O   UNL     1       5.419  26.376  50.949  1.00  0.00    -0.306 OA
HETATM   16  C   UNL     1       4.922  27.623  50.677  1.00  0.00     0.120 A 
HETATM   17  C   UNL     1       4.359  28.143  51.825  1.00  0.00     0.047 A 
HETATM   18  C   UNL     1       4.482  27.155  52.833  1.00  0.00     0.038 A 
BRANCH  16  19
HETATM   19  S   UNL     1       5.041  28.368  49.105  1.00  0.00    -0.025 SA
BRANCH  19  20
HETATM   20  C   UNL     1       4.014  27.271  48.248  1.00  0.00     0.197 A 
HETATM   21  N   UNL     1       2.650  27.336  48.267  1.00  0.00    -0.322 N 
HETATM   22  C   UNL     1       1.801  28.247  48.991  1.00  0.00     0.159 C 
HETATM   23  C   UNL     1       2.225  26.326  47.453  1.00  0.00     0.235 A 
HETATM   24  N   UNL     1       3.265  25.698  46.949  1.00  0.00    -0.143 NA
HETATM   25  N   UNL     1       4.393  26.291  47.457  1.00  0.00    -0.123 NA
ENDBRANCH  19  20
ENDBRANCH  16  19
ENDBRANCH  13  14
ENDBRANCH   8  13
BRANCH   1  26
HETATM   26  C   UNL     1       6.592  28.644  57.116  1.00  0.00     0.105 C 
HETATM   27  C   UNL     1       6.410  29.624  55.941  1.00  0.00     0.053 C 
BRANCH  26  28
HETATM   28  O   UNL     1       5.302  28.444  57.713  1.00  0.00    -0.384 OA
HETATM   29  H   UNL     1       5.287  27.565  58.136  1.00  0.00     0.211 HD
ENDBRANCH  26  28
BRANCH  26  30
HETATM   30  C   UNL     1       7.527  29.292  58.202  1.00  0.00     0.276 C 
BRANCH  30  31
HETATM   31  N   UNL     1       8.672  30.163  57.665  1.00  0.00    -0.076 N 
HETATM   32  H   UNL     1       8.348  30.654  56.824  1.00  0.00     0.279 HD
HETATM   33  C   UNL     1       9.128  31.222  58.638  1.00  0.00     0.269 C 
HETATM   34  C   UNL     1       9.832  29.310  57.221  1.00  0.00     0.269 C 
ENDBRANCH  30  31
ENDBRANCH  26  30
ENDBRANCH   1  26
TORSDOF 8
ENDMDL
MODEL 2
REMARK VINA RESULT:      -8.5      3.605      8.648
REMARK  8 active torsions:
REMARK  status: ('A' for Active; 'I' for Inactive)
REMARK    1  A    between atoms: C_2  and  O_3 
REMARK    2  A    between atoms: C_2  and  C_4 
REMARK    3  A    between atoms: C_2  and  C_29 
REMARK    4  A    between atoms: N_11  and  C_13 
REMARK    5  A    between atoms: C_13  and  C_14 
REMARK    6  A    between atoms: C_16  and  S_17 
REMARK    7  A    between atoms: S_17  and  C_18 
REMARK    8  A    between atoms: C_29  and  N_30 
ROOT
HETATM    1  C   UNL     1       7.344  24.291  54.278  1.00  0.00    -0.022 A 
HETATM    2  C   UNL     1       7.568  25.686  54.328  1.00  0.00     0.022 A 
HETATM    3  C   UNL     1       6.900  26.594  53.487  1.00  0.00     0.002 A 
HETATM    4  C   UNL     1       5.961  26.094  52.590  1.00  0.00     0.076 A 
HETATM    5  O   UNL     1       5.289  26.911  51.727  1.00  0.00    -0.349 OA
HETATM    6  C   UNL     1       4.382  27.779  52.416  1.00  0.00     0.203 C 
HETATM    7  C   UNL     1       5.055  29.104  52.782  1.00  0.00     0.262 C 
HETATM    8  N   UNL     1       6.075  28.971  53.897  1.00  0.00    -0.059 N 
HETATM    9  H   UNL     1       6.508  29.898  53.984  1.00  0.00     0.280 HD
HETATM   10  C   UNL     1       7.230  28.060  53.529  1.00  0.00     0.276 C 
HETATM   11  C   UNL     1       5.724  24.728  52.502  1.00  0.00     0.038 A 
HETATM   12  C   UNL     1       6.397  23.837  53.346  1.00  0.00     0.013 A 
ENDROOT
BRANCH   8  13
HETATM   13  C   UNL     1       5.466  28.694  55.255  1.00  0.00     0.299 C 
BRANCH  13  14
HETATM   14  C   UNL     1       6.469  28.626  56.348  1.00  0.00     0.080 A 
HETATM   15  O   UNL     1       7.216  29.746  56.560  1.00  0.00    -0.306 OA
HETATM   16  C   UNL     1       8.038  29.504  57.629  1.00  0.00     0.120 A 
HETATM   17  C   UNL     1       7.843  28.208  58.061  1.00  0.00     0.047 A 
HETATM   18  C   UNL     1       6.830  27.644  57.245  1.00  0.00     0.038 A 
BRANCH  16  19
HETATM   19  S   UNL     1       9.138  30.696  58.268  1.00  0.00    -0.025 SA
BRANCH  19  20
HETATM   20  C   UNL     1       8.056  31.429  59.401  1.00  0.00     0.197 A 
HETATM   21  N   UNL     1       8.166  31.292  60.755  1.00  0.00    -0.322 N 
HETATM   22  C   UNL     1       9.122  30.521  61.508  1.00  0.00     0.159 C 
HETATM   23  C   UNL     1       7.152  32.038  61.282  1.00  0.00     0.235 A 
HETATM   24  N   UNL     1       6.478  32.615  60.311  1.00  0.00    -0.143 NA
HETATM   25  N   UNL     1       7.044  32.224  59.124  1.00  0.00    -0.123 NA
ENDBRANCH  19  20
ENDBRANCH  16  19
ENDBRANCH  13  14
ENDBRANCH   8  13
BRANCH   1  26
HETATM   26  C   UNL     1       8.089  23.347  55.245  1.00  0.00     0.105 C 
HETATM   27  C   UNL     1       8.950  24.132  56.253  1.00  0.00     0.053 C 
BRANCH  26  28
HETATM   28  O   UNL     1       7.085  22.644  55.992  1.00  0.00    -0.384 OA
HETATM   29  H   UNL     1       6.715  21.938  55.429  1.00  0.00     0.211 HD
ENDBRANCH  26  28
BRANCH  26  30
HETATM   30  C   UNL     1       8.979  22.276  54.513  1.00  0.00     0.276 C 
BRANCH  30  31
HETATM   31  N   UNL     1       8.322  20.910  54.274  1.00  0.00    -0.076 N 
HETATM   32  H   UNL     1       7.337  20.962  54.558  1.00  0.00     0.279 HD
HETATM   33  C   UNL     1       8.335  20.480  52.828  1.00  0.00     0.269 C 
HETATM   34  C   UNL     1       8.945  19.854  55.151  1.00  0.00     0.269 C 
ENDBRANCH  30  31
ENDBRANCH  26  30
ENDBRANCH   1  26
TORSDOF 8
ENDMDL
MODEL 3
REMARK VINA RESULT:      -8.4      3.006      8.791
REMARK  8 active torsions:
REMARK  status: ('A' for Active; 'I' for Inactive)
REMARK    1  A    between atoms: C_2  and  O_3 
REMARK    2  A    between atoms: C_2  and  C_4 
REMARK    3  A    between atoms: C_2  and  C_29 
REMARK    4  A    between atoms: N_11  and  C_13 
REMARK    5  A    between atoms: C_13  and  C_14 
REMARK    6  A    between atoms: C_16  and  S_17 
REMARK    7  A    between atoms: S_17  and  C_18 
REMARK    8  A    between atoms: C_29  and  N_30 
ROOT
HETATM    1  C   UNL     1       5.639  26.728  52.710  1.00  0.00    -0.022 A 
HETATM    2  C   UNL     1       5.621  26.684  54.123  1.00  0.00     0.022 A 
HETATM    3  C   UNL     1       6.057  25.565  54.855  1.00  0.00     0.002 A 
HETATM    4  C   UNL     1       6.552  24.470  54.153  1.00  0.00     0.076 A 
HETATM    5  O   UNL     1       6.973  23.340  54.792  1.00  0.00    -0.349 OA
HETATM    6  C   UNL     1       8.164  23.574  55.554  1.00  0.00     0.203 C 
HETATM    7  C   UNL     1       7.831  23.985  56.990  1.00  0.00     0.262 C 
HETATM    8  N   UNL     1       7.258  25.386  57.096  1.00  0.00    -0.059 N 
HETATM    9  H   UNL     1       7.001  25.503  58.083  1.00  0.00     0.280 HD
HETATM   10  C   UNL     1       5.945  25.541  56.354  1.00  0.00     0.276 C 
HETATM   11  C   UNL     1       6.573  24.471  52.763  1.00  0.00     0.038 A 
HETATM   12  C   UNL     1       6.136  25.593  52.049  1.00  0.00     0.013 A 
ENDROOT
BRANCH   8  13
HETATM   13  C   UNL     1       8.267  26.482  56.822  1.00  0.00     0.299 C 
BRANCH  13  14
HETATM   14  C   UNL     1       7.856  27.806  57.353  1.00  0.00     0.080 A 
HETATM   15  O   UNL     1       8.852  28.610  57.822  1.00  0.00    -0.306 OA
HETATM   16  C   UNL     1       8.282  29.793  58.216  1.00  0.00     0.120 A 
HETATM   17  C   UNL     1       6.916  29.714  58.040  1.00  0.00     0.047 A 
HETATM   18  C   UNL     1       6.640  28.443  57.479  1.00  0.00     0.038 A 
BRANCH  16  19
HETATM   19  S   UNL     1       9.211  31.128  58.844  1.00  0.00    -0.025 SA
BRANCH  19  20
HETATM   20  C   UNL     1       8.773  30.956  60.508  1.00  0.00     0.197 A 
HETATM   21  N   UNL     1       7.681  31.553  61.072  1.00  0.00    -0.322 N 
HETATM   22  C   UNL     1       6.725  32.440  60.463  1.00  0.00     0.159 C 
HETATM   23  C   UNL     1       7.675  31.147  62.375  1.00  0.00     0.235 A 
HETATM   24  N   UNL     1       8.687  30.334  62.589  1.00  0.00    -0.143 NA
HETATM   25  N   UNL     1       9.383  30.220  61.412  1.00  0.00    -0.123 NA
ENDBRANCH  19  20
ENDBRANCH  16  19
ENDBRANCH  13  14
ENDBRANCH   8  13
BRANCH   1  26
HETATM   26  C   UNL     1       5.172  27.995  51.964  1.00  0.00     0.105 C 
HETATM   27  C   UNL     1       3.795  28.473  52.465  1.00  0.00     0.053 C 
BRANCH  26  28
HETATM   28  O   UNL     1       6.122  29.028  52.264  1.00  0.00    -0.384 OA
HETATM   29  H   UNL     1       6.673  29.184  51.474  1.00  0.00     0.211 HD
ENDBRANCH  26  28
BRANCH  26  30
HETATM   30  C   UNL     1       5.131  27.822  50.401  1.00  0.00     0.276 C 
BRANCH  30  31
HETATM   31  N   UNL     1       3.800  27.326  49.817  1.00  0.00    -0.076 N 
HETATM   32  H   UNL     1       3.180  27.057  50.589  1.00  0.00     0.279 HD
HETATM   33  C   UNL     1       3.068  28.374  49.015  1.00  0.00     0.269 C 
HETATM   34  C   UNL     1       4.005  26.076  49.001  1.00  0.00     0.269 C 
ENDBRANCH  30  31
ENDBRANCH  26  30
ENDBRANCH   1  26
TORSDOF 8
ENDMDL
MODEL 4
REMARK VINA RESULT:      -8.0      3.199      8.598
REMARK  8 active torsions:
REMARK  status: ('A' for Active; 'I' for Inactive)
REMARK    1  A    between atoms: C_2  and  O_3 
REMARK    2  A    between atoms: C_2  and  C_4 
REMARK    3  A    between atoms: C_2  and  C_29 
REMARK    4  A    between atoms: N_11  and  C_13 
REMARK    5  A    between atoms: C_13  and  C_14 
REMARK    6  A    between atoms: C_16  and  S_17 
REMARK    7  A    between atoms: S_17  and  C_18 
REMARK    8  A    between atoms: C_29  and  N_30 
ROOT
HETATM    1  C   UNL     1       5.379  27.005  53.078  1.00  0.00    -0.022 A 
HETATM    2  C   UNL     1       5.555  27.439  54.411  1.00  0.00     0.022 A 
HETATM    3  C   UNL     1       5.901  26.564  55.457  1.00  0.00     0.002 A 
HETATM    4  C   UNL     1       6.104  25.221  55.153  1.00  0.00     0.076 A 
HETATM    5  O   UNL     1       6.420  24.308  56.117  1.00  0.00    -0.349 OA
HETATM    6  C   UNL     1       7.729  24.535  56.653  1.00  0.00     0.203 C 
HETATM    7  C   UNL     1       7.676  25.459  57.871  1.00  0.00     0.262 C 
HETATM    8  N   UNL     1       7.364  26.901  57.517  1.00  0.00    -0.059 N 
HETATM    9  H   UNL     1       7.272  27.390  58.415  1.00  0.00     0.280 HD
HETATM   10  C   UNL     1       6.002  27.064  56.871  1.00  0.00     0.276 C 
HETATM   11  C   UNL     1       5.927  24.754  53.855  1.00  0.00     0.038 A 
HETATM   12  C   UNL     1       5.583  25.638  52.826  1.00  0.00     0.013 A 
ENDROOT
BRANCH   8  13
HETATM   13  C   UNL     1       8.489  27.613  56.796  1.00  0.00     0.299 C 
BRANCH  13  14
HETATM   14  C   UNL     1       8.947  28.843  57.490  1.00  0.00     0.080 A 
HETATM   15  O   UNL     1       8.238  29.222  58.591  1.00  0.00    -0.306 OA
HETATM   16  C   UNL     1       8.841  30.337  59.112  1.00  0.00     0.120 A 
HETATM   17  C   UNL     1       9.905  30.690  58.308  1.00  0.00     0.047 A 
HETATM   18  C   UNL     1       9.981  29.729  57.270  1.00  0.00     0.038 A 
BRANCH  16  19
HETATM   19  S   UNL     1       8.276  31.129  60.559  1.00  0.00    -0.025 SA
BRANCH  19  20
HETATM   20  C   UNL     1       6.940  31.974  59.857  1.00  0.00     0.197 A 
HETATM   21  N   UNL     1       5.867  32.425  60.572  1.00  0.00    -0.322 N 
HETATM   22  C   UNL     1       5.594  32.278  61.978  1.00  0.00     0.159 C 
HETATM   23  C   UNL     1       5.063  33.053  59.665  1.00  0.00     0.235 A 
HETATM   24  N   UNL     1       5.620  33.009  58.475  1.00  0.00    -0.143 NA
HETATM   25  N   UNL     1       6.801  32.321  58.596  1.00  0.00    -0.123 NA
ENDBRANCH  19  20
ENDBRANCH  16  19
ENDBRANCH  13  14
ENDBRANCH   8  13
BRANCH   1  26
HETATM   26  C   UNL     1       5.025  28.018  51.969  1.00  0.00     0.105 C 
HETATM   27  C   UNL     1       3.656  28.679  52.221  1.00  0.00     0.053 C 
BRANCH  26  28
HETATM   28  O   UNL     1       6.018  29.052  52.019  1.00  0.00    -0.384 OA
HETATM   29  H   UNL     1       5.699  29.816  51.502  1.00  0.00     0.211 HD
ENDBRANCH  26  28
BRANCH  26  30
HETATM   30  C   UNL     1       5.051  27.398  50.523  1.00  0.00     0.276 C 
BRANCH  30  31
HETATM   31  N   UNL     1       4.323  28.203  49.437  1.00  0.00    -0.076 N 
HETATM   32  H   UNL     1       3.722  28.901  49.889  1.00  0.00     0.279 HD
HETATM   33  C   UNL     1       5.254  28.960  48.523  1.00  0.00     0.269 C 
HETATM   34  C   UNL     1       3.398  27.317  48.643  1.00  0.00     0.269 C 
ENDBRANCH  30  31
ENDBRANCH  26  30
ENDBRANCH   1  26
TORSDOF 8
ENDMDL
MODEL 5
REMARK VINA RESULT:      -7.8      4.387      9.144
REMARK  8 active torsions:
REMARK  status: ('A' for Active; 'I' for Inactive)
REMARK    1  A    between atoms: C_2  and  O_3 
REMARK    2  A    between atoms: C_2  and  C_4 
REMARK    3  A    between atoms: C_2  and  C_29 
REMARK    4  A    between atoms: N_11  and  C_13 
REMARK    5  A    between atoms: C_13  and  C_14 
REMARK    6  A    between atoms: C_16  and  S_17 
REMARK    7  A    between atoms: S_17  and  C_18 
REMARK    8  A    between atoms: C_29  and  N_30 
ROOT
HETATM    1  C   UNL     1       6.988  24.530  54.147  1.00  0.00    -0.022 A 
HETATM    2  C   UNL     1       7.427  25.872  54.213  1.00  0.00     0.022 A 
HETATM    3  C   UNL     1       6.562  26.966  54.038  1.00  0.00     0.002 A 
HETATM    4  C   UNL     1       5.212  26.710  53.818  1.00  0.00     0.076 A 
HETATM    5  O   UNL     1       4.315  27.719  53.617  1.00  0.00    -0.349 OA
HETATM    6  C   UNL     1       4.123  28.502  54.802  1.00  0.00     0.203 C 
HETATM    7  C   UNL     1       5.093  29.684  54.848  1.00  0.00     0.262 C 
HETATM    8  N   UNL     1       6.527  29.273  55.122  1.00  0.00    -0.059 N 
HETATM    9  H   UNL     1       7.079  30.135  55.040  1.00  0.00     0.280 HD
HETATM   10  C   UNL     1       7.095  28.372  54.043  1.00  0.00     0.276 C 
HETATM   11  C   UNL     1       4.743  25.404  53.733  1.00  0.00     0.038 A 
HETATM   12  C   UNL     1       5.618  24.326  53.909  1.00  0.00     0.013 A 
ENDROOT
BRANCH   8  13
HETATM   13  C   UNL     1       6.766  28.787  56.536  1.00  0.00     0.299 C 
BRANCH  13  14
HETATM   14  C   UNL     1       8.057  29.247  57.107  1.00  0.00     0.080 A 
HETATM   15  O   UNL     1       8.031  30.418  57.804  1.00  0.00    -0.306 OA
HETATM   16  C   UNL     1       9.293  30.644  58.288  1.00  0.00     0.120 A 
HETATM   17  C   UNL     1      10.129  29.636  57.852  1.00  0.00     0.047 A 
HETATM   18  C   UNL     1       9.336  28.734  57.099  1.00  0.00     0.038 A 
BRANCH  16  19
HETATM   19  S   UNL     1       9.696  32.021  59.278  1.00  0.00    -0.025 SA
BRANCH  19  20
HETATM   20  C   UNL     1       8.963  31.476  60.746  1.00  0.00     0.197 A 
HETATM   21  N   UNL     1       7.671  31.749  61.097  1.00  0.00    -0.322 N 
HETATM   22  C   UNL     1       6.693  32.537  60.392  1.00  0.00     0.159 C 
HETATM   23  C   UNL     1       7.478  31.123  62.295  1.00  0.00     0.235 A 
HETATM   24  N   UNL     1       8.575  30.488  62.644  1.00  0.00    -0.143 NA
HETATM   25  N   UNL     1       9.514  30.718  61.669  1.00  0.00    -0.123 NA
ENDBRANCH  19  20
ENDBRANCH  16  19
ENDBRANCH  13  14
ENDBRANCH   8  13
BRANCH   1  26
HETATM   26  C   UNL     1       7.981  23.372  54.373  1.00  0.00     0.105 C 
HETATM   27  C   UNL     1       8.435  22.746  53.040  1.00  0.00     0.053 C 
BRANCH  26  28
HETATM   28  O   UNL     1       9.142  23.937  55.000  1.00  0.00    -0.384 OA
HETATM   29  H   UNL     1       9.706  23.211  55.325  1.00  0.00     0.211 HD
ENDBRANCH  26  28
BRANCH  26  30
HETATM   30  C   UNL     1       7.425  22.246  55.321  1.00  0.00     0.276 C 
BRANCH  30  31
HETATM   31  N   UNL     1       8.481  21.412  56.060  1.00  0.00    -0.076 N 
HETATM   32  H   UNL     1       9.400  21.853  55.932  1.00  0.00     0.279 HD
HETATM   33  C   UNL     1       8.245  21.325  57.548  1.00  0.00     0.269 C 
HETATM   34  C   UNL     1       8.598  20.037  55.456  1.00  0.00     0.269 C 
ENDBRANCH  30  31
ENDBRANCH  26  30
ENDBRANCH   1  26
TORSDOF 8
ENDMDL
MODEL 6
REMARK VINA RESULT:      -7.7      2.066      2.495
REMARK  8 active torsions:
REMARK  status: ('A' for Active; 'I' for Inactive)
REMARK    1  A    between atoms: C_2  and  O_3 
REMARK    2  A    between atoms: C_2  and  C_4 
REMARK    3  A    between atoms: C_2  and  C_29 
REMARK    4  A    between atoms: N_11  and  C_13 
REMARK    5  A    between atoms: C_13  and  C_14 
REMARK    6  A    between atoms: C_16  and  S_17 
REMARK    7  A    between atoms: S_17  and  C_18 
REMARK    8  A    between atoms: C_29  and  N_30 
ROOT
HETATM    1  C   UNL     1       7.105  27.155  56.670  1.00  0.00    -0.022 A 
HETATM    2  C   UNL     1       7.296  26.900  55.293  1.00  0.00     0.022 A 
HETATM    3  C   UNL     1       7.703  25.647  54.801  1.00  0.00     0.002 A 
HETATM    4  C   UNL     1       7.899  24.613  55.711  1.00  0.00     0.076 A 
HETATM    5  O   UNL     1       8.315  23.376  55.312  1.00  0.00    -0.349 OA
HETATM    6  C   UNL     1       7.313  22.702  54.540  1.00  0.00     0.203 C 
HETATM    7  C   UNL     1       7.480  22.987  53.046  1.00  0.00     0.262 C 
HETATM    8  N   UNL     1       7.098  24.404  52.659  1.00  0.00    -0.059 N 
HETATM    9  H   UNL     1       7.336  24.489  51.664  1.00  0.00     0.280 HD
HETATM   10  C   UNL     1       7.964  25.449  53.333  1.00  0.00     0.276 C 
HETATM   11  C   UNL     1       7.734  24.829  57.074  1.00  0.00     0.038 A 
HETATM   12  C   UNL     1       7.328  26.082  57.548  1.00  0.00     0.013 A 
ENDROOT
BRANCH   8  13
HETATM   13  C   UNL     1       5.611  24.678  52.732  1.00  0.00     0.299 C 
BRANCH  13  14
HETATM   14  C   UNL     1       5.183  25.826  51.893  1.00  0.00     0.080 A 
HETATM   15  O   UNL     1       4.823  26.963  52.553  1.00  0.00    -0.306 OA
HETATM   16  C   UNL     1       4.512  27.911  51.613  1.00  0.00     0.120 A 
HETATM   17  C   UNL     1       4.629  27.353  50.356  1.00  0.00     0.047 A 
HETATM   18  C   UNL     1       5.067  26.017  50.532  1.00  0.00     0.038 A 
BRANCH  16  19
HETATM   19  S   UNL     1       4.039  29.537  52.028  1.00  0.00    -0.025 SA
BRANCH  19  20
HETATM   20  C   UNL     1       4.860  30.355  50.745  1.00  0.00     0.197 A 
HETATM   21  N   UNL     1       4.229  30.886  49.656  1.00  0.00    -0.322 N 
HETATM   22  C   UNL     1       2.828  30.856  49.323  1.00  0.00     0.159 C 
HETATM   23  C   UNL     1       5.215  31.460  48.906  1.00  0.00     0.235 A 
HETATM   24  N   UNL     1       6.374  31.309  49.510  1.00  0.00    -0.143 NA
HETATM   25  N   UNL     1       6.149  30.605  50.666  1.00  0.00    -0.123 NA
ENDBRANCH  19  20
ENDBRANCH  16  19
ENDBRANCH  13  14
ENDBRANCH   8  13
BRANCH   1  26
HETATM   26  C   UNL     1       6.631  28.544  57.147  1.00  0.00     0.105 C 
HETATM   27  C   UNL     1       6.538  29.544  55.978  1.00  0.00     0.053 C 
BRANCH  26  28
HETATM   28  O   UNL     1       5.307  28.372  57.673  1.00  0.00    -0.384 OA
HETATM   29  H   UNL     1       5.215  28.924  58.472  1.00  0.00     0.211 HD
ENDBRANCH  26  28
BRANCH  26  30
HETATM   30  C   UNL     1       7.525  29.152  58.289  1.00  0.00     0.276 C 
BRANCH  30  31
HETATM   31  N   UNL     1       7.918  30.627  58.118  1.00  0.00    -0.076 N 
HETATM   32  H   UNL     1       7.723  30.911  57.151  1.00  0.00     0.279 HD
HETATM   33  C   UNL     1       7.144  31.563  59.011  1.00  0.00     0.269 C 
HETATM   34  C   UNL     1       9.402  30.812  58.308  1.00  0.00     0.269 C 
ENDBRANCH  30  31
ENDBRANCH  26  30
ENDBRANCH   1  26
TORSDOF 8
ENDMDL
MODEL 7
REMARK VINA RESULT:      -7.7      4.824      8.651
REMARK  8 active torsions:
REMARK  status: ('A' for Active; 'I' for Inactive)
REMARK    1  A    between atoms: C_2  and  O_3 
REMARK    2  A    between atoms: C_2  and  C_4 
REMARK    3  A    between atoms: C_2  and  C_29 
REMARK    4  A    between atoms: N_11  and  C_13 
REMARK    5  A    between atoms: C_13  and  C_14 
REMARK    6  A    between atoms: C_16  and  S_17 
REMARK    7  A    between atoms: S_17  and  C_18 
REMARK    8  A    between atoms: C_29  and  N_30 
ROOT
HETATM    1  C   UNL     1       4.580  32.817  61.002  1.00  0.00    -0.022 A 
HETATM    2  C   UNL     1       5.825  32.792  60.334  1.00  0.00     0.022 A 
HETATM    3  C   UNL     1       7.027  32.443  60.976  1.00  0.00     0.002 A 
HETATM    4  C   UNL     1       6.975  32.081  62.319  1.00  0.00     0.076 A 
HETATM    5  O   UNL     1       8.102  31.750  63.015  1.00  0.00    -0.349 OA
HETATM    6  C   UNL     1       8.668  30.518  62.554  1.00  0.00     0.203 C 
HETATM    7  C   UNL     1       9.700  30.761  61.451  1.00  0.00     0.262 C 
HETATM    8  N   UNL     1       9.081  31.190  60.134  1.00  0.00    -0.059 N 
HETATM    9  H   UNL     1       9.872  31.402  59.515  1.00  0.00     0.280 HD
HETATM   10  C   UNL     1       8.335  32.506  60.238  1.00  0.00     0.276 C 
HETATM   11  C   UNL     1       5.772  32.106  63.013  1.00  0.00     0.038 A 
HETATM   12  C   UNL     1       4.585  32.456  62.360  1.00  0.00     0.013 A 
ENDROOT
BRANCH   8  13
HETATM   13  C   UNL     1       8.316  30.089  59.430  1.00  0.00     0.299 C 
BRANCH  13  14
HETATM   14  C   UNL     1       8.818  29.806  58.061  1.00  0.00     0.080 A 
HETATM   15  O   UNL     1       7.975  29.131  57.230  1.00  0.00    -0.306 OA
HETATM   16  C   UNL     1       8.594  29.014  56.013  1.00  0.00     0.120 A 
HETATM   17  C   UNL     1       9.853  29.573  56.093  1.00  0.00     0.047 A 
HETATM   18  C   UNL     1       9.997  30.090  57.405  1.00  0.00     0.038 A 
BRANCH  16  19
HETATM   19  S   UNL     1       7.843  28.249  54.638  1.00  0.00    -0.025 SA
BRANCH  19  20
HETATM   20  C   UNL     1       7.033  26.980  55.490  1.00  0.00     0.197 A 
HETATM   21  N   UNL     1       5.707  27.011  55.817  1.00  0.00    -0.322 N 
HETATM   22  C   UNL     1       4.745  28.056  55.580  1.00  0.00     0.159 C 
HETATM   23  C   UNL     1       5.459  25.826  56.448  1.00  0.00     0.235 A 
HETATM   24  N   UNL     1       6.558  25.106  56.483  1.00  0.00    -0.143 NA
HETATM   25  N   UNL     1       7.553  25.838  55.886  1.00  0.00    -0.123 NA
ENDBRANCH  19  20
ENDBRANCH  16  19
ENDBRANCH  13  14
ENDBRANCH   8  13
BRANCH   1  26
HETATM   26  C   UNL     1       3.292  33.184  60.237  1.00  0.00     0.105 C 
HETATM   27  C   UNL     1       3.589  33.556  58.771  1.00  0.00     0.053 C 
BRANCH  26  28
HETATM   28  O   UNL     1       2.468  32.008  60.224  1.00  0.00    -0.384 OA
HETATM   29  H   UNL     1       2.274  31.774  59.297  1.00  0.00     0.211 HD
ENDBRANCH  26  28
BRANCH  26  30
HETATM   30  C   UNL     1       2.467  34.338  60.916  1.00  0.00     0.276 C 
BRANCH  30  31
HETATM   31  N   UNL     1       3.242  35.630  61.212  1.00  0.00    -0.076 N 
HETATM   32  H   UNL     1       4.235  35.475  61.005  1.00  0.00     0.279 HD
HETATM   33  C   UNL     1       2.801  36.802  60.370  1.00  0.00     0.269 C 
HETATM   34  C   UNL     1       3.177  35.971  62.678  1.00  0.00     0.269 C 
ENDBRANCH  30  31
ENDBRANCH  26  30
ENDBRANCH   1  26
TORSDOF 8
ENDMDL
MODEL 8
REMARK VINA RESULT:      -7.7      2.933      6.386
REMARK  8 active torsions:
REMARK  status: ('A' for Active; 'I' for Inactive)
REMARK    1  A    between atoms: C_2  and  O_3 
REMARK    2  A    between atoms: C_2  and  C_4 
REMARK    3  A    between atoms: C_2  and  C_29 
REMARK    4  A    between atoms: N_11  and  C_13 
REMARK    5  A    between atoms: C_13  and  C_14 
REMARK    6  A    between atoms: C_16  and  S_17 
REMARK    7  A    between atoms: S_17  and  C_18 
REMARK    8  A    between atoms: C_29  and  N_30 
ROOT
HETATM    1  C   UNL     1       5.794  25.041  53.368  1.00  0.00    -0.022 A 
HETATM    2  C   UNL     1       5.759  25.456  54.718  1.00  0.00     0.022 A 
HETATM    3  C   UNL     1       6.501  24.820  55.730  1.00  0.00     0.002 A 
HETATM    4  C   UNL     1       7.321  23.754  55.374  1.00  0.00     0.076 A 
HETATM    5  O   UNL     1       8.054  23.072  56.302  1.00  0.00    -0.349 OA
HETATM    6  C   UNL     1       9.099  23.883  56.852  1.00  0.00     0.203 C 
HETATM    7  C   UNL     1       8.626  24.621  58.106  1.00  0.00     0.262 C 
HETATM    8  N   UNL     1       7.651  25.745  57.808  1.00  0.00    -0.059 N 
HETATM    9  H   UNL     1       7.348  26.096  58.725  1.00  0.00     0.280 HD
HETATM   10  C   UNL     1       6.370  25.254  57.163  1.00  0.00     0.276 C 
HETATM   11  C   UNL     1       7.372  23.308  54.058  1.00  0.00     0.038 A 
HETATM   12  C   UNL     1       6.628  23.952  53.063  1.00  0.00     0.013 A 
ENDROOT
BRANCH   8  13
HETATM   13  C   UNL     1       8.282  26.938  57.121  1.00  0.00     0.299 C 
BRANCH  13  14
HETATM   14  C   UNL     1       7.675  28.234  57.516  1.00  0.00     0.080 A 
HETATM   15  O   UNL     1       6.360  28.411  57.206  1.00  0.00    -0.306 OA
HETATM   16  C   UNL     1       5.977  29.633  57.693  1.00  0.00     0.120 A 
HETATM   17  C   UNL     1       7.069  30.250  58.268  1.00  0.00     0.047 A 
HETATM   18  C   UNL     1       8.159  29.351  58.163  1.00  0.00     0.038 A 
BRANCH  16  19
HETATM   19  S   UNL     1       4.349  30.242  57.550  1.00  0.00    -0.025 SA
BRANCH  19  20
HETATM   20  C   UNL     1       4.156  29.997  55.849  1.00  0.00     0.197 A 
HETATM   21  N   UNL     1       4.290  30.988  54.918  1.00  0.00    -0.322 N 
HETATM   22  C   UNL     1       4.566  32.386  55.126  1.00  0.00     0.159 C 
HETATM   23  C   UNL     1       4.092  30.385  53.711  1.00  0.00     0.235 A 
HETATM   24  N   UNL     1       3.873  29.100  53.889  1.00  0.00    -0.143 NA
HETATM   25  N   UNL     1       3.907  28.858  55.239  1.00  0.00    -0.123 NA
ENDBRANCH  19  20
ENDBRANCH  16  19
ENDBRANCH  13  14
ENDBRANCH   8  13
BRANCH   1  26
HETATM   26  C   UNL     1       4.978  25.796  52.299  1.00  0.00     0.105 C 
HETATM   27  C   UNL     1       4.420  24.838  51.229  1.00  0.00     0.053 C 
BRANCH  26  28
HETATM   28  O   UNL     1       3.857  26.388  52.973  1.00  0.00    -0.384 OA
HETATM   29  H   UNL     1       4.049  27.332  53.127  1.00  0.00     0.211 HD
ENDBRANCH  26  28
BRANCH  26  30
HETATM   30  C   UNL     1       5.781  26.954  51.600  1.00  0.00     0.276 C 
BRANCH  30  31
HETATM   31  N   UNL     1       4.935  28.057  50.947  1.00  0.00    -0.076 N 
HETATM   32  H   UNL     1       4.121  28.245  51.543  1.00  0.00     0.279 HD
HETATM   33  C   UNL     1       5.670  29.365  50.788  1.00  0.00     0.269 C 
HETATM   34  C   UNL     1       4.377  27.594  49.626  1.00  0.00     0.269 C 
ENDBRANCH  30  31
ENDBRANCH  26  30
ENDBRANCH   1  26
TORSDOF 8
ENDMDL
MODEL 9
REMARK VINA RESULT:      -7.6      3.021      7.344
REMARK  8 active torsions:
REMARK  status: ('A' for Active; 'I' for Inactive)
REMARK    1  A    between atoms: C_2  and  O_3 
REMARK    2  A    between atoms: C_2  and  C_4 
REMARK    3  A    between atoms: C_2  and  C_29 
REMARK    4  A    between atoms: N_11  and  C_13 
REMARK    5  A    between atoms: C_13  and  C_14 
REMARK    6  A    between atoms: C_16  and  S_17 
REMARK    7  A    between atoms: S_17  and  C_18 
REMARK    8  A    between atoms: C_29  and  N_30 
ROOT
HETATM    1  C   UNL     1       5.830  25.609  53.326  1.00  0.00    -0.022 A 
HETATM    2  C   UNL     1       5.801  25.880  54.713  1.00  0.00     0.022 A 
HETATM    3  C   UNL     1       6.496  25.101  55.655  1.00  0.00     0.002 A 
HETATM    4  C   UNL     1       7.265  24.037  55.193  1.00  0.00     0.076 A 
HETATM    5  O   UNL     1       7.950  23.224  56.049  1.00  0.00    -0.349 OA
HETATM    6  C   UNL     1       9.029  23.915  56.688  1.00  0.00     0.203 C 
HETATM    7  C   UNL     1       8.580  24.541  58.010  1.00  0.00     0.262 C 
HETATM    8  N   UNL     1       7.668  25.740  57.827  1.00  0.00    -0.059 N 
HETATM    9  H   UNL     1       7.374  26.007  58.774  1.00  0.00     0.280 HD
HETATM   10  C   UNL     1       6.371  25.388  57.126  1.00  0.00     0.276 C 
HETATM   11  C   UNL     1       7.308  23.731  53.838  1.00  0.00     0.038 A 
HETATM   12  C   UNL     1       6.610  24.516  52.913  1.00  0.00     0.013 A 
ENDROOT
BRANCH   8  13
HETATM   13  C   UNL     1       8.369  26.963  57.275  1.00  0.00     0.299 C 
BRANCH  13  14
HETATM   14  C   UNL     1       7.673  28.235  57.596  1.00  0.00     0.080 A 
HETATM   15  O   UNL     1       6.434  28.406  57.052  1.00  0.00    -0.306 OA
HETATM   16  C   UNL     1       5.943  29.604  57.502  1.00  0.00     0.120 A 
HETATM   17  C   UNL     1       6.896  30.213  58.292  1.00  0.00     0.047 A 
HETATM   18  C   UNL     1       8.005  29.333  58.361  1.00  0.00     0.038 A 
BRANCH  16  19
HETATM   19  S   UNL     1       4.358  30.195  57.080  1.00  0.00    -0.025 SA
BRANCH  19  20
HETATM   20  C   UNL     1       4.624  31.863  57.453  1.00  0.00     0.197 A 
HETATM   21  N   UNL     1       4.237  32.450  58.624  1.00  0.00    -0.322 N 
HETATM   22  C   UNL     1       3.528  31.867  59.733  1.00  0.00     0.159 C 
HETATM   23  C   UNL     1       4.652  33.748  58.536  1.00  0.00     0.235 A 
HETATM   24  N   UNL     1       5.274  33.937  57.393  1.00  0.00    -0.143 NA
HETATM   25  N   UNL     1       5.249  32.748  56.707  1.00  0.00    -0.123 NA
ENDBRANCH  19  20
ENDBRANCH  16  19
ENDBRANCH  13  14
ENDBRANCH   8  13
BRANCH   1  26
HETATM   26  C   UNL     1       5.067  26.515  52.338  1.00  0.00     0.105 C 
HETATM   27  C   UNL     1       4.914  25.847  50.958  1.00  0.00     0.053 C 
BRANCH  26  28
HETATM   28  O   UNL     1       3.749  26.699  52.877  1.00  0.00    -0.384 OA
HETATM   29  H   UNL     1       3.769  26.486  53.828  1.00  0.00     0.211 HD
ENDBRANCH  26  28
BRANCH  26  30
HETATM   30  C   UNL     1       5.715  27.938  52.164  1.00  0.00     0.276 C 
BRANCH  30  31
HETATM   31  N   UNL     1       4.866  28.973  51.413  1.00  0.00    -0.076 N 
HETATM   32  H   UNL     1       4.033  28.507  51.036  1.00  0.00     0.279 HD
HETATM   33  C   UNL     1       4.375  30.098  52.289  1.00  0.00     0.269 C 
HETATM   34  C   UNL     1       5.610  29.512  50.218  1.00  0.00     0.269 C 
ENDBRANCH  30  31
ENDBRANCH  26  30
ENDBRANCH   1  26
TORSDOF 8
ENDMDL
MODEL 10
REMARK VINA RESULT:      -7.2      5.317     10.894
REMARK  8 active torsions:
REMARK  status: ('A' for Active; 'I' for Inactive)
REMARK    1  A    between atoms: C_2  and  O_3 
REMARK    2  A    between atoms: C_2  and  C_4 
REMARK    3  A    between atoms: C_2  and  C_29 
REMARK    4  A    between atoms: N_11  and  C_13 
REMARK    5  A    between atoms: C_13  and  C_14 
REMARK    6  A    between atoms: C_16  and  S_17 
REMARK    7  A    between atoms: S_17  and  C_18 
REMARK    8  A    between atoms: C_29  and  N_30 
ROOT
HETATM    1  C   UNL     1       7.809  28.555  55.231  1.00  0.00    -0.022 A 
HETATM    2  C   UNL     1       7.528  28.759  56.601  1.00  0.00     0.022 A 
HETATM    3  C   UNL     1       8.455  29.330  57.492  1.00  0.00     0.002 A 
HETATM    4  C   UNL     1       9.689  29.733  56.991  1.00  0.00     0.076 A 
HETATM    5  O   UNL     1      10.648  30.275  57.797  1.00  0.00    -0.349 OA
HETATM    6  C   UNL     1      10.262  31.565  58.287  1.00  0.00     0.203 C 
HETATM    7  C   UNL     1       9.528  31.452  59.625  1.00  0.00     0.262 C 
HETATM    8  N   UNL     1       8.132  30.872  59.496  1.00  0.00    -0.059 N 
HETATM    9  H   UNL     1       7.788  30.770  60.458  1.00  0.00     0.280 HD
HETATM   10  C   UNL     1       8.133  29.456  58.955  1.00  0.00     0.276 C 
HETATM   11  C   UNL     1      10.008  29.536  55.652  1.00  0.00     0.038 A 
HETATM   12  C   UNL     1       9.074  28.967  54.778  1.00  0.00     0.013 A 
ENDROOT
BRANCH   8  13
HETATM   13  C   UNL     1       7.143  31.801  58.822  1.00  0.00     0.299 C 
BRANCH  13  14
HETATM   14  C   UNL     1       6.047  32.244  59.720  1.00  0.00     0.080 A 
HETATM   15  O   UNL     1       6.306  32.218  61.058  1.00  0.00    -0.306 OA
HETATM   16  C   UNL     1       5.202  32.706  61.707  1.00  0.00     0.120 A 
HETATM   17  C   UNL     1       4.225  32.995  60.777  1.00  0.00     0.047 A 
HETATM   18  C   UNL     1       4.767  32.707  59.499  1.00  0.00     0.038 A 
BRANCH  16  19
HETATM   19  S   UNL     1       5.125  32.885  63.439  1.00  0.00    -0.025 SA
BRANCH  19  20
HETATM   20  C   UNL     1       5.204  34.612  63.499  1.00  0.00     0.197 A 
HETATM   21  N   UNL     1       4.503  35.374  64.391  1.00  0.00    -0.322 N 
HETATM   22  C   UNL     1       3.564  34.949  65.397  1.00  0.00     0.159 C 
HETATM   23  C   UNL     1       4.862  36.665  64.129  1.00  0.00     0.235 A 
HETATM   24  N   UNL     1       5.744  36.689  63.154  1.00  0.00    -0.143 NA
HETATM   25  N   UNL     1       5.954  35.394  62.753  1.00  0.00    -0.123 NA
ENDBRANCH  19  20
ENDBRANCH  16  19
ENDBRANCH  13  14
ENDBRANCH   8  13
BRANCH   1  26
HETATM   26  C   UNL     1       6.742  27.948  54.298  1.00  0.00     0.105 C 
HETATM   27  C   UNL     1       5.316  28.218  54.816  1.00  0.00     0.053 C 
BRANCH  26  28
HETATM   28  O   UNL     1       6.873  28.610  53.031  1.00  0.00    -0.384 OA
HETATM   29  H   UNL     1       5.989  28.688  52.627  1.00  0.00     0.211 HD
ENDBRANCH  26  28
BRANCH  26  30
HETATM   30  C   UNL     1       6.928  26.405  54.053  1.00  0.00     0.276 C 
BRANCH  30  31
HETATM   31  N   UNL     1       6.626  25.912  52.630  1.00  0.00    -0.076 N 
HETATM   32  H   UNL     1       6.537  26.725  52.011  1.00  0.00     0.279 HD
HETATM   33  C   UNL     1       7.714  25.042  52.052  1.00  0.00     0.269 C 
HETATM   34  C   UNL     1       5.295  25.209  52.578  1.00  0.00     0.269 C 
ENDBRANCH  30  31
ENDBRANCH  26  30
ENDBRANCH   1  26
TORSDOF 8
ENDMDL
