MODEL 1
REMARK VINA RESULT:      -9.9      0.000      0.000
REMARK  6 active torsions:
REMARK  status: ('A' for Active; 'I' for Inactive)
REMARK    1  A    between atoms: C_6  and  C_7 
REMARK    2  A    between atoms: C_7  and  N_8 
REMARK    3  A    between atoms: C_12  and  C_13 
REMARK    4  A    between atoms: C_13  and  C_14 
REMARK    5  A    between atoms: N_23  and  C_24 
REMARK    6  A    between atoms: C_24  and  C_25 
ROOT
HETATM    1  C   UNL     1       6.675  25.520  55.006  1.00  0.00     0.164 C 
HETATM    2  N   UNL     1       7.640  26.538  54.635  1.00  0.00    -0.319 N 
HETATM    3  C   UNL     1       7.158  27.365  53.642  1.00  0.00     0.326 C 
HETATM    4  O   UNL     1       7.853  28.210  53.105  1.00  0.00    -0.247 OA
HETATM    5  N   UNL     1       5.859  27.058  53.400  1.00  0.00    -0.265 N 
HETATM    6  C   UNL     1       5.520  25.899  54.046  1.00  0.00     0.263 C 
HETATM    7  O   UNL     1       4.470  25.287  53.919  1.00  0.00    -0.270 OA
HETATM    8  H   UNL     1       8.643  26.392  54.655  1.00  0.00     0.166 HD
ENDROOT
BRANCH   1   9
HETATM    9  C   UNL     1       6.163  25.709  56.492  1.00  0.00     0.033 C 
HETATM   10  C   UNL     1       5.077  26.797  56.688  1.00  0.00     0.036 C 
HETATM   11  C   UNL     1       5.591  28.234  56.634  1.00  0.00     0.235 C 
HETATM   12  N   UNL     1       6.699  28.426  57.645  1.00  0.00    -0.067 N 
HETATM   13  H   UNL     1       6.262  28.343  58.570  1.00  0.00     0.280 HD
HETATM   14  C   UNL     1       7.794  27.393  57.553  1.00  0.00     0.235 C 
HETATM   15  C   UNL     1       7.238  25.982  57.566  1.00  0.00     0.036 C 
BRANCH  12  16
HETATM   16  C   UNL     1       7.331  29.815  57.595  1.00  0.00     0.273 C 
BRANCH  16  17
HETATM   17  C   UNL     1       7.536  30.513  58.915  1.00  0.00    -0.027 A 
HETATM   18  C   UNL     1       6.661  31.530  59.360  1.00  0.00    -0.054 A 
HETATM   19  C   UNL     1       6.902  32.155  60.594  1.00  0.00     0.014 A 
HETATM   20  C   UNL     1       5.473  31.992  58.553  1.00  0.00     0.049 C 
HETATM   21  C   UNL     1       8.000  31.803  61.385  1.00  0.00    -0.061 A 
HETATM   22  C   UNL     1       8.216  32.478  62.709  1.00  0.00     0.048 C 
HETATM   23  C   UNL     1       8.861  30.799  60.942  1.00  0.00     0.007 A 
HETATM   24  C   UNL     1       8.640  30.168  59.715  1.00  0.00     0.010 A 
ENDBRANCH  16  17
ENDBRANCH  12  16
ENDBRANCH   1   9
BRANCH   1  25
HETATM   25  C   UNL     1       7.204  24.125  54.652  1.00  0.00     0.072 A 
HETATM   26  N   UNL     1       7.193  23.176  55.619  1.00  0.00    -0.262 NA
HETATM   27  C   UNL     1       7.688  21.951  55.320  1.00  0.00     0.117 A 
HETATM   28  C   UNL     1       8.234  21.621  54.094  1.00  0.00     0.019 A 
HETATM   29  C   UNL     1       8.269  22.599  53.113  1.00  0.00     0.003 A 
HETATM   30  C   UNL     1       7.751  23.863  53.389  1.00  0.00     0.030 A 
ENDBRANCH   1  25
BRANCH   5  31
HETATM   31  C   UNL     1       5.002  27.767  52.461  1.00  0.00     0.168 C 
BRANCH  31  32
HETATM   32  C   UNL     1       5.365  27.460  51.004  1.00  0.00     0.140 C 
HETATM   33  O   UNL     1       4.659  26.291  50.527  1.00  0.00    -0.384 OA
HETATM   34  C   UNL     1       4.472  26.451  49.105  1.00  0.00     0.168 C 
HETATM   35  C   UNL     1       5.008  27.818  48.724  1.00  0.00     0.029 C 
HETATM   36  C   UNL     1       4.983  28.564  50.035  1.00  0.00     0.036 C 
ENDBRANCH  31  32
ENDBRANCH   5  31
TORSDOF 6
ENDMDL
MODEL 2
REMARK VINA RESULT:      -9.8      1.524      2.209
REMARK  6 active torsions:
REMARK  status: ('A' for Active; 'I' for Inactive)
REMARK    1  A    between atoms: C_6  and  C_7 
REMARK    2  A    between atoms: C_7  and  N_8 
REMARK    3  A    between atoms: C_12  and  C_13 
REMARK    4  A    between atoms: C_13  and  C_14 
REMARK    5  A    between atoms: N_23  and  C_24 
REMARK    6  A    between atoms: C_24  and  C_25 
ROOT
HETATM    1  C   UNL     1       6.932  24.527  54.748  1.00  0.00     0.164 C 
HETATM    2  N   UNL     1       7.993  25.384  54.251  1.00  0.00    -0.319 N 
HETATM    3  C   UNL     1       7.578  26.145  53.178  1.00  0.00     0.326 C 
HETATM    4  O   UNL     1       8.347  26.842  52.540  1.00  0.00    -0.247 OA
HETATM    5  N   UNL     1       6.248  25.959  52.989  1.00  0.00    -0.265 N 
HETATM    6  C   UNL     1       5.801  24.924  53.766  1.00  0.00     0.263 C 
HETATM    7  O   UNL     1       4.687  24.422  53.722  1.00  0.00    -0.270 OA
HETATM    8  H   UNL     1       8.974  25.130  54.274  1.00  0.00     0.166 HD
ENDROOT
BRANCH   1   9
HETATM    9  C   UNL     1       6.481  24.935  56.209  1.00  0.00     0.033 C 
HETATM   10  C   UNL     1       5.365  26.006  56.286  1.00  0.00     0.036 C 
HETATM   11  C   UNL     1       5.820  27.431  55.980  1.00  0.00     0.235 C 
HETATM   12  N   UNL     1       6.965  27.816  56.890  1.00  0.00    -0.067 N 
HETATM   13  H   UNL     1       6.575  27.869  57.837  1.00  0.00     0.280 HD
HETATM   14  C   UNL     1       8.094  26.816  56.905  1.00  0.00     0.235 C 
HETATM   15  C   UNL     1       7.593  25.409  57.170  1.00  0.00     0.036 C 
BRANCH  12  16
HETATM   16  C   UNL     1       7.540  29.198  56.589  1.00  0.00     0.273 C 
BRANCH  16  17
HETATM   17  C   UNL     1       8.127  29.954  57.752  1.00  0.00    -0.027 A 
HETATM   18  C   UNL     1       9.518  30.183  57.863  1.00  0.00    -0.054 A 
HETATM   19  C   UNL     1      10.014  30.887  58.972  1.00  0.00     0.014 A 
HETATM   20  C   UNL     1      10.508  29.685  56.839  1.00  0.00     0.049 C 
HETATM   21  C   UNL     1       9.162  31.352  59.979  1.00  0.00    -0.061 A 
HETATM   22  C   UNL     1       9.726  32.120  61.140  1.00  0.00     0.048 C 
HETATM   23  C   UNL     1       7.791  31.124  59.865  1.00  0.00     0.007 A 
HETATM   24  C   UNL     1       7.278  30.423  58.771  1.00  0.00     0.010 A 
ENDBRANCH  16  17
ENDBRANCH  12  16
ENDBRANCH   1   9
BRANCH   1  25
HETATM   25  C   UNL     1       7.296  23.051  54.546  1.00  0.00     0.072 A 
HETATM   26  N   UNL     1       7.385  22.262  55.644  1.00  0.00    -0.262 NA
HETATM   27  C   UNL     1       7.738  20.965  55.473  1.00  0.00     0.117 A 
HETATM   28  C   UNL     1       8.043  20.407  54.247  1.00  0.00     0.019 A 
HETATM   29  C   UNL     1       7.976  21.220  53.126  1.00  0.00     0.003 A 
HETATM   30  C   UNL     1       7.601  22.554  53.272  1.00  0.00     0.030 A 
ENDBRANCH   1  25
BRANCH   5  31
HETATM   31  C   UNL     1       5.450  26.651  51.987  1.00  0.00     0.168 C 
BRANCH  31  32
HETATM   32  C   UNL     1       5.082  28.073  52.423  1.00  0.00     0.140 C 
HETATM   33  O   UNL     1       5.091  28.981  51.298  1.00  0.00    -0.384 OA
HETATM   34  C   UNL     1       4.131  30.021  51.577  1.00  0.00     0.168 C 
HETATM   35  C   UNL     1       3.447  29.676  52.886  1.00  0.00     0.029 C 
HETATM   36  C   UNL     1       3.684  28.190  53.004  1.00  0.00     0.036 C 
ENDBRANCH  31  32
ENDBRANCH   5  31
TORSDOF 6
ENDMDL
MODEL 3
REMARK VINA RESULT:      -9.7      2.646      8.324
REMARK  6 active torsions:
REMARK  status: ('A' for Active; 'I' for Inactive)
REMARK    1  A    between atoms: C_6  and  C_7 
REMARK    2  A    between atoms: C_7  and  N_8 
REMARK    3  A    between atoms: C_12  and  C_13 
REMARK    4  A    between atoms: C_13  and  C_14 
REMARK    5  A    between atoms: N_23  and  C_24 
REMARK    6  A    between atoms: C_24  and  C_25 
ROOT
HETATM    1  C   UNL     1       7.524  28.357  56.714  1.00  0.00     0.164 C 
HETATM    2  N   UNL     1       8.942  28.229  56.431  1.00  0.00    -0.319 N 
HETATM    3  C   UNL     1       9.672  29.253  56.995  1.00  0.00     0.326 C 
HETATM    4  O   UNL     1      10.862  29.398  56.780  1.00  0.00    -0.247 OA
HETATM    5  N   UNL     1       8.853  30.010  57.767  1.00  0.00    -0.265 N 
HETATM    6  C   UNL     1       7.547  29.654  57.560  1.00  0.00     0.263 C 
HETATM    7  O   UNL     1       6.566  30.236  57.999  1.00  0.00    -0.270 OA
HETATM    8  H   UNL     1       9.307  27.831  55.573  1.00  0.00     0.166 HD
ENDROOT
BRANCH   1   9
HETATM    9  C   UNL     1       6.999  27.179  57.633  1.00  0.00     0.033 C 
HETATM   10  C   UNL     1       7.965  25.980  57.794  1.00  0.00     0.036 C 
HETATM   11  C   UNL     1       8.049  25.055  56.582  1.00  0.00     0.235 C 
HETATM   12  N   UNL     1       6.670  24.558  56.213  1.00  0.00    -0.067 N 
HETATM   13  H   UNL     1       6.369  23.947  56.981  1.00  0.00     0.280 HD
HETATM   14  C   UNL     1       5.646  25.656  56.061  1.00  0.00     0.235 C 
HETATM   15  C   UNL     1       5.626  26.575  57.267  1.00  0.00     0.036 C 
BRANCH  12  16
HETATM   16  C   UNL     1       6.653  23.696  54.953  1.00  0.00     0.273 C 
BRANCH  16  17
HETATM   17  C   UNL     1       6.213  24.369  53.678  1.00  0.00    -0.027 A 
HETATM   18  C   UNL     1       7.120  24.628  52.625  1.00  0.00    -0.054 A 
HETATM   19  C   UNL     1       6.660  25.266  51.461  1.00  0.00     0.014 A 
HETATM   20  C   UNL     1       8.581  24.261  52.700  1.00  0.00     0.049 C 
HETATM   21  C   UNL     1       5.326  25.666  51.329  1.00  0.00    -0.061 A 
HETATM   22  C   UNL     1       4.865  26.327  50.062  1.00  0.00     0.048 C 
HETATM   23  C   UNL     1       4.436  25.408  52.371  1.00  0.00     0.007 A 
HETATM   24  C   UNL     1       4.875  24.778  53.538  1.00  0.00     0.010 A 
ENDBRANCH  16  17
ENDBRANCH  12  16
ENDBRANCH   1   9
BRANCH   1  25
HETATM   25  C   UNL     1       6.739  28.599  55.419  1.00  0.00     0.072 A 
HETATM   26  N   UNL     1       5.524  29.192  55.514  1.00  0.00    -0.262 NA
HETATM   27  C   UNL     1       4.813  29.380  54.376  1.00  0.00     0.117 A 
HETATM   28  C   UNL     1       5.240  28.973  53.127  1.00  0.00     0.019 A 
HETATM   29  C   UNL     1       6.472  28.343  53.033  1.00  0.00     0.003 A 
HETATM   30  C   UNL     1       7.230  28.152  54.186  1.00  0.00     0.030 A 
ENDBRANCH   1  25
BRANCH   5  31
HETATM   31  C   UNL     1       9.288  31.143  58.572  1.00  0.00     0.168 C 
BRANCH  31  32
HETATM   32  C   UNL     1       8.669  31.126  59.974  1.00  0.00     0.140 C 
HETATM   33  O   UNL     1       9.191  30.030  60.760  1.00  0.00    -0.384 OA
HETATM   34  C   UNL     1       9.155  30.438  62.144  1.00  0.00     0.168 C 
HETATM   35  C   UNL     1       8.676  31.877  62.186  1.00  0.00     0.029 C 
HETATM   36  C   UNL     1       8.975  32.368  60.791  1.00  0.00     0.036 C 
ENDBRANCH  31  32
ENDBRANCH   5  31
TORSDOF 6
ENDMDL
MODEL 4
REMARK VINA RESULT:      -9.6      2.748      8.781
REMARK  6 active torsions:
REMARK  status: ('A' for Active; 'I' for Inactive)
REMARK    1  A    between atoms: C_6  and  C_7 
REMARK    2  A    between atoms: C_7  and  N_8 
REMARK    3  A    between atoms: C_12  and  C_13 
REMARK    4  A    between atoms: C_13  and  C_14 
REMARK    5  A    between atoms: N_23  and  C_24 
REMARK    6  A    between atoms: C_24  and  C_25 
ROOT
HETATM    1  C   UNL     1       5.379  29.564  55.706  1.00  0.00     0.164 C 
HETATM    2  N   UNL     1       6.724  29.528  55.160  1.00  0.00    -0.319 N 
HETATM    3  C   UNL     1       7.682  29.610  56.149  1.00  0.00     0.326 C 
HETATM    4  O   UNL     1       8.869  29.716  55.897  1.00  0.00    -0.247 OA
HETATM    5  N   UNL     1       7.074  29.565  57.361  1.00  0.00    -0.265 N 
HETATM    6  C   UNL     1       5.717  29.679  57.213  1.00  0.00     0.263 C 
HETATM    7  O   UNL     1       4.905  29.810  58.117  1.00  0.00    -0.270 OA
HETATM    8  H   UNL     1       6.971  29.916  54.257  1.00  0.00     0.166 HD
ENDROOT
BRANCH   1   9
HETATM    9  C   UNL     1       4.615  28.196  55.475  1.00  0.00     0.033 C 
HETATM   10  C   UNL     1       4.634  27.214  56.672  1.00  0.00     0.036 C 
HETATM   11  C   UNL     1       5.960  26.488  56.888  1.00  0.00     0.235 C 
HETATM   12  N   UNL     1       6.365  25.765  55.623  1.00  0.00    -0.067 N 
HETATM   13  H   UNL     1       5.679  25.013  55.489  1.00  0.00     0.280 HD
HETATM   14  C   UNL     1       6.350  26.635  54.391  1.00  0.00     0.235 C 
HETATM   15  C   UNL     1       5.031  27.370  54.240  1.00  0.00     0.036 C 
BRANCH  12  16
HETATM   16  C   UNL     1       7.728  25.085  55.724  1.00  0.00     0.273 C 
BRANCH  16  17
HETATM   17  C   UNL     1       7.904  23.805  54.949  1.00  0.00    -0.027 A 
HETATM   18  C   UNL     1       8.188  22.579  55.595  1.00  0.00    -0.054 A 
HETATM   19  C   UNL     1       8.352  21.416  54.824  1.00  0.00     0.014 A 
HETATM   20  C   UNL     1       8.339  22.465  57.091  1.00  0.00     0.049 C 
HETATM   21  C   UNL     1       8.257  21.449  53.429  1.00  0.00    -0.061 A 
HETATM   22  C   UNL     1       8.418  20.182  52.639  1.00  0.00     0.048 C 
HETATM   23  C   UNL     1       7.978  22.660  52.797  1.00  0.00     0.007 A 
HETATM   24  C   UNL     1       7.815  23.828  53.545  1.00  0.00     0.010 A 
ENDBRANCH  16  17
ENDBRANCH  12  16
ENDBRANCH   1   9
BRANCH   1  25
HETATM   25  C   UNL     1       4.646  30.828  55.243  1.00  0.00     0.072 A 
HETATM   26  N   UNL     1       5.136  32.028  55.639  1.00  0.00    -0.262 NA
HETATM   27  C   UNL     1       4.473  33.147  55.259  1.00  0.00     0.117 A 
HETATM   28  C   UNL     1       3.309  33.136  54.515  1.00  0.00     0.019 A 
HETATM   29  C   UNL     1       2.795  31.907  54.130  1.00  0.00     0.003 A 
HETATM   30  C   UNL     1       3.465  30.742  54.494  1.00  0.00     0.030 A 
ENDBRANCH   1  25
BRANCH   5  31
HETATM   31  C   UNL     1       7.773  29.560  58.638  1.00  0.00     0.168 C 
BRANCH  31  32
HETATM   32  C   UNL     1       8.106  30.977  59.118  1.00  0.00     0.140 C 
HETATM   33  O   UNL     1       7.101  31.465  60.037  1.00  0.00    -0.384 OA
HETATM   34  C   UNL     1       7.751  32.386  60.936  1.00  0.00     0.168 C 
HETATM   35  C   UNL     1       9.232  32.384  60.604  1.00  0.00     0.029 C 
HETATM   36  C   UNL     1       9.411  31.068  59.889  1.00  0.00     0.036 C 
ENDBRANCH  31  32
ENDBRANCH   5  31
TORSDOF 6
ENDMDL
MODEL 5
REMARK VINA RESULT:      -9.5      2.696      5.435
REMARK  6 active torsions:
REMARK  status: ('A' for Active; 'I' for Inactive)
REMARK    1  A    between atoms: C_6  and  C_7 
REMARK    2  A    between atoms: C_7  and  N_8 
REMARK    3  A    between atoms: C_12  and  C_13 
REMARK    4  A    between atoms: C_13  and  C_14 
REMARK    5  A    between atoms: N_23  and  C_24 
REMARK    6  A    between atoms: C_24  and  C_25 
ROOT
HETATM    1  C   UNL     1       7.152  24.079  54.856  1.00  0.00     0.164 C 
HETATM    2  N   UNL     1       5.851  24.284  55.467  1.00  0.00    -0.319 N 
HETATM    3  C   UNL     1       5.941  25.017  56.632  1.00  0.00     0.326 C 
HETATM    4  O   UNL     1       4.981  25.200  57.359  1.00  0.00    -0.247 OA
HETATM    5  N   UNL     1       7.217  25.447  56.789  1.00  0.00    -0.265 N 
HETATM    6  C   UNL     1       8.037  24.836  55.879  1.00  0.00     0.263 C 
HETATM    7  O   UNL     1       9.257  24.904  55.851  1.00  0.00    -0.270 OA
HETATM    8  H   UNL     1       5.096  23.609  55.414  1.00  0.00     0.166 HD
ENDROOT
BRANCH   1   9
HETATM    9  C   UNL     1       7.270  24.818  53.461  1.00  0.00     0.033 C 
HETATM   10  C   UNL     1       7.604  26.328  53.535  1.00  0.00     0.036 C 
HETATM   11  C   UNL     1       6.443  27.224  53.962  1.00  0.00     0.235 C 
HETATM   12  N   UNL     1       5.257  27.004  53.050  1.00  0.00    -0.067 N 
HETATM   13  H   UNL     1       5.532  27.362  52.128  1.00  0.00     0.280 HD
HETATM   14  C   UNL     1       4.871  25.554  52.890  1.00  0.00     0.235 C 
HETATM   15  C   UNL     1       6.061  24.695  52.509  1.00  0.00     0.036 C 
BRANCH  12  16
HETATM   16  C   UNL     1       4.020  27.797  53.462  1.00  0.00     0.273 C 
BRANCH  16  17
HETATM   17  C   UNL     1       4.213  28.849  54.523  1.00  0.00    -0.027 A 
HETATM   18  C   UNL     1       4.266  30.225  54.202  1.00  0.00    -0.054 A 
HETATM   19  C   UNL     1       4.456  31.165  55.228  1.00  0.00     0.014 A 
HETATM   20  C   UNL     1       4.141  30.736  52.789  1.00  0.00     0.049 C 
HETATM   21  C   UNL     1       4.612  30.767  56.560  1.00  0.00    -0.061 A 
HETATM   22  C   UNL     1       4.793  31.800  57.634  1.00  0.00     0.048 C 
HETATM   23  C   UNL     1       4.560  29.408  56.871  1.00  0.00     0.007 A 
HETATM   24  C   UNL     1       4.375  28.458  55.865  1.00  0.00     0.010 A 
ENDBRANCH  16  17
ENDBRANCH  12  16
ENDBRANCH   1   9
BRANCH   1  25
HETATM   25  C   UNL     1       7.518  22.590  54.860  1.00  0.00     0.072 A 
HETATM   26  N   UNL     1       7.589  21.955  56.055  1.00  0.00    -0.262 NA
HETATM   27  C   UNL     1       7.942  20.647  56.065  1.00  0.00     0.117 A 
HETATM   28  C   UNL     1       8.264  19.929  54.930  1.00  0.00     0.019 A 
HETATM   29  C   UNL     1       8.215  20.585  53.709  1.00  0.00     0.003 A 
HETATM   30  C   UNL     1       7.839  21.926  53.669  1.00  0.00     0.030 A 
ENDBRANCH   1  25
BRANCH   5  31
HETATM   31  C   UNL     1       7.674  26.306  57.872  1.00  0.00     0.168 C 
BRANCH  31  32
HETATM   32  C   UNL     1       7.748  27.778  57.450  1.00  0.00     0.140 C 
HETATM   33  O   UNL     1       7.582  28.655  58.588  1.00  0.00    -0.384 OA
HETATM   34  C   UNL     1       8.314  29.866  58.308  1.00  0.00     0.168 C 
HETATM   35  C   UNL     1       9.027  29.674  56.982  1.00  0.00     0.029 C 
HETATM   36  C   UNL     1       9.083  28.173  56.848  1.00  0.00     0.036 C 
ENDBRANCH  31  32
ENDBRANCH   5  31
TORSDOF 6
ENDMDL
MODEL 6
REMARK VINA RESULT:      -9.2      3.483      7.791
REMARK  6 active torsions:
REMARK  status: ('A' for Active; 'I' for Inactive)
REMARK    1  A    between atoms: C_6  and  C_7 
REMARK    2  A    between atoms: C_7  and  N_8 
REMARK    3  A    between atoms: C_12  and  C_13 
REMARK    4  A    between atoms: C_13  and  C_14 
REMARK    5  A    between atoms: N_23  and  C_24 
REMARK    6  A    between atoms: C_24  and  C_25 
ROOT
HETATM    1  C   UNL     1       4.994  29.650  56.835  1.00  0.00     0.164 C 
HETATM    2  N   UNL     1       4.363  30.014  58.090  1.00  0.00    -0.319 N 
HETATM    3  C   UNL     1       3.720  31.231  58.008  1.00  0.00     0.326 C 
HETATM    4  O   UNL     1       3.229  31.774  58.981  1.00  0.00    -0.247 OA
HETATM    5  N   UNL     1       3.758  31.668  56.724  1.00  0.00    -0.265 N 
HETATM    6  C   UNL     1       4.602  30.883  55.983  1.00  0.00     0.263 C 
HETATM    7  O   UNL     1       4.956  31.097  54.833  1.00  0.00    -0.270 OA
HETATM    8  H   UNL     1       4.736  29.759  58.998  1.00  0.00     0.166 HD
ENDROOT
BRANCH   1   9
HETATM    9  C   UNL     1       4.322  28.371  56.187  1.00  0.00     0.033 C 
HETATM   10  C   UNL     1       4.643  27.026  56.884  1.00  0.00     0.036 C 
HETATM   11  C   UNL     1       6.043  26.481  56.615  1.00  0.00     0.235 C 
HETATM   12  N   UNL     1       6.272  26.355  55.125  1.00  0.00    -0.067 N 
HETATM   13  H   UNL     1       5.641  25.615  54.798  1.00  0.00     0.280 HD
HETATM   14  C   UNL     1       5.957  27.612  54.352  1.00  0.00     0.235 C 
HETATM   15  C   UNL     1       4.575  28.142  54.682  1.00  0.00     0.036 C 
BRANCH  12  16
HETATM   16  C   UNL     1       7.684  25.900  54.765  1.00  0.00     0.273 C 
BRANCH  16  17
HETATM   17  C   UNL     1       7.849  24.456  54.368  1.00  0.00    -0.027 A 
HETATM   18  C   UNL     1       7.813  24.050  53.014  1.00  0.00    -0.054 A 
HETATM   19  C   UNL     1       7.963  22.689  52.698  1.00  0.00     0.014 A 
HETATM   20  C   UNL     1       7.602  25.021  51.879  1.00  0.00     0.049 C 
HETATM   21  C   UNL     1       8.131  21.725  53.697  1.00  0.00    -0.061 A 
HETATM   22  C   UNL     1       8.310  20.282  53.322  1.00  0.00     0.048 C 
HETATM   23  C   UNL     1       8.165  22.131  55.031  1.00  0.00     0.007 A 
HETATM   24  C   UNL     1       8.014  23.478  55.366  1.00  0.00     0.010 A 
ENDBRANCH  16  17
ENDBRANCH  12  16
ENDBRANCH   1   9
BRANCH   1  25
HETATM   25  C   UNL     1       6.518  29.598  56.996  1.00  0.00     0.072 A 
HETATM   26  N   UNL     1       7.273  29.478  55.877  1.00  0.00    -0.262 NA
HETATM   27  C   UNL     1       8.618  29.400  56.017  1.00  0.00     0.117 A 
HETATM   28  C   UNL     1       9.265  29.404  57.237  1.00  0.00     0.019 A 
HETATM   29  C   UNL     1       8.492  29.502  58.384  1.00  0.00     0.003 A 
HETATM   30  C   UNL     1       7.107  29.600  58.267  1.00  0.00     0.030 A 
ENDBRANCH   1  25
BRANCH   5  31
HETATM   31  C   UNL     1       3.122  32.887  56.245  1.00  0.00     0.168 C 
BRANCH  31  32
HETATM   32  C   UNL     1       2.044  32.601  55.194  1.00  0.00     0.140 C 
HETATM   33  O   UNL     1       0.761  33.125  55.609  1.00  0.00    -0.384 OA
HETATM   34  C   UNL     1       0.026  33.458  54.414  1.00  0.00     0.168 C 
HETATM   35  C   UNL     1       0.940  33.210  53.228  1.00  0.00     0.029 C 
HETATM   36  C   UNL     1       2.313  33.256  53.852  1.00  0.00     0.036 C 
ENDBRANCH  31  32
ENDBRANCH   5  31
TORSDOF 6
ENDMDL
MODEL 7
REMARK VINA RESULT:      -9.2      2.587      8.674
REMARK  6 active torsions:
REMARK  status: ('A' for Active; 'I' for Inactive)
REMARK    1  A    between atoms: C_6  and  C_7 
REMARK    2  A    between atoms: C_7  and  N_8 
REMARK    3  A    between atoms: C_12  and  C_13 
REMARK    4  A    between atoms: C_13  and  C_14 
REMARK    5  A    between atoms: N_23  and  C_24 
REMARK    6  A    between atoms: C_24  and  C_25 
ROOT
HETATM    1  C   UNL     1       6.663  27.332  54.480  1.00  0.00     0.164 C 
HETATM    2  N   UNL     1       7.442  27.131  53.271  1.00  0.00    -0.319 N 
HETATM    3  C   UNL     1       7.670  25.794  53.024  1.00  0.00     0.326 C 
HETATM    4  O   UNL     1       8.402  25.415  52.127  1.00  0.00    -0.247 OA
HETATM    5  N   UNL     1       6.976  25.051  53.922  1.00  0.00    -0.265 N 
HETATM    6  C   UNL     1       6.465  25.856  54.905  1.00  0.00     0.263 C 
HETATM    7  O   UNL     1       5.912  25.478  55.927  1.00  0.00    -0.270 OA
HETATM    8  H   UNL     1       8.153  27.779  52.951  1.00  0.00     0.166 HD
ENDROOT
BRANCH   1   9
HETATM    9  C   UNL     1       5.239  27.949  54.165  1.00  0.00     0.033 C 
HETATM   10  C   UNL     1       4.215  26.972  53.536  1.00  0.00     0.036 C 
HETATM   11  C   UNL     1       4.453  26.654  52.061  1.00  0.00     0.235 C 
HETATM   12  N   UNL     1       4.503  27.933  51.257  1.00  0.00    -0.067 N 
HETATM   13  H   UNL     1       3.556  28.329  51.285  1.00  0.00     0.280 HD
HETATM   14  C   UNL     1       5.455  28.964  51.810  1.00  0.00     0.235 C 
HETATM   15  C   UNL     1       5.212  29.218  53.286  1.00  0.00     0.036 C 
BRANCH  12  16
HETATM   16  C   UNL     1       4.827  27.710  49.782  1.00  0.00     0.273 C 
BRANCH  16  17
HETATM   17  C   UNL     1       3.658  27.658  48.833  1.00  0.00    -0.027 A 
HETATM   18  C   UNL     1       2.995  28.833  48.407  1.00  0.00    -0.054 A 
HETATM   19  C   UNL     1       1.905  28.728  47.527  1.00  0.00     0.014 A 
HETATM   20  C   UNL     1       3.400  30.209  48.872  1.00  0.00     0.049 C 
HETATM   21  C   UNL     1       1.450  27.485  47.077  1.00  0.00    -0.061 A 
HETATM   22  C   UNL     1       0.295  27.412  46.121  1.00  0.00     0.048 C 
HETATM   23  C   UNL     1       2.107  26.329  47.500  1.00  0.00     0.007 A 
HETATM   24  C   UNL     1       3.191  26.412  48.377  1.00  0.00     0.010 A 
ENDBRANCH  16  17
ENDBRANCH  12  16
ENDBRANCH   1   9
BRANCH   1  25
HETATM   25  C   UNL     1       7.493  28.068  55.537  1.00  0.00     0.072 A 
HETATM   26  N   UNL     1       8.594  28.743  55.125  1.00  0.00    -0.262 NA
HETATM   27  C   UNL     1       9.349  29.368  56.060  1.00  0.00     0.117 A 
HETATM   28  C   UNL     1       9.080  29.333  57.415  1.00  0.00     0.019 A 
HETATM   29  C   UNL     1       7.967  28.623  57.839  1.00  0.00     0.003 A 
HETATM   30  C   UNL     1       7.165  27.983  56.896  1.00  0.00     0.030 A 
ENDBRANCH   1  25
BRANCH   5  31
HETATM   31  C   UNL     1       6.923  23.596  53.928  1.00  0.00     0.168 C 
BRANCH  31  32
HETATM   32  C   UNL     1       8.083  22.979  54.715  1.00  0.00     0.140 C 
HETATM   33  O   UNL     1       7.713  22.751  56.095  1.00  0.00    -0.384 OA
HETATM   34  C   UNL     1       8.477  21.621  56.564  1.00  0.00     0.168 C 
HETATM   35  C   UNL     1       9.275  21.087  55.390  1.00  0.00     0.029 C 
HETATM   36  C   UNL     1       8.513  21.617  54.200  1.00  0.00     0.036 C 
ENDBRANCH  31  32
ENDBRANCH   5  31
TORSDOF 6
ENDMDL
MODEL 8
REMARK VINA RESULT:      -9.1      3.018      8.057
REMARK  6 active torsions:
REMARK  status: ('A' for Active; 'I' for Inactive)
REMARK    1  A    between atoms: C_6  and  C_7 
REMARK    2  A    between atoms: C_7  and  N_8 
REMARK    3  A    between atoms: C_12  and  C_13 
REMARK    4  A    between atoms: C_13  and  C_14 
REMARK    5  A    between atoms: N_23  and  C_24 
REMARK    6  A    between atoms: C_24  and  C_25 
ROOT
HETATM    1  C   UNL     1       5.038  29.479  56.774  1.00  0.00     0.164 C 
HETATM    2  N   UNL     1       4.436  29.832  58.048  1.00  0.00    -0.319 N 
HETATM    3  C   UNL     1       3.785  31.046  57.989  1.00  0.00     0.326 C 
HETATM    4  O   UNL     1       3.315  31.580  58.978  1.00  0.00    -0.247 OA
HETATM    5  N   UNL     1       3.787  31.490  56.707  1.00  0.00    -0.265 N 
HETATM    6  C   UNL     1       4.616  30.715  55.941  1.00  0.00     0.263 C 
HETATM    7  O   UNL     1       4.940  30.938  54.783  1.00  0.00    -0.270 OA
HETATM    8  H   UNL     1       4.834  29.574  58.944  1.00  0.00     0.166 HD
ENDROOT
BRANCH   1   9
HETATM    9  C   UNL     1       4.356  28.200  56.137  1.00  0.00     0.033 C 
HETATM   10  C   UNL     1       4.761  26.846  56.770  1.00  0.00     0.036 C 
HETATM   11  C   UNL     1       6.153  26.349  56.388  1.00  0.00     0.235 C 
HETATM   12  N   UNL     1       6.281  26.272  54.883  1.00  0.00    -0.067 N 
HETATM   13  H   UNL     1       5.649  25.523  54.578  1.00  0.00     0.280 HD
HETATM   14  C   UNL     1       5.880  27.540  54.171  1.00  0.00     0.235 C 
HETATM   15  C   UNL     1       4.511  28.021  54.611  1.00  0.00     0.036 C 
BRANCH  12  16
HETATM   16  C   UNL     1       7.677  25.868  54.414  1.00  0.00     0.273 C 
BRANCH  16  17
HETATM   17  C   UNL     1       7.923  24.395  54.213  1.00  0.00    -0.027 A 
HETATM   18  C   UNL     1       8.491  23.593  55.229  1.00  0.00    -0.054 A 
HETATM   19  C   UNL     1       8.708  22.226  54.987  1.00  0.00     0.014 A 
HETATM   20  C   UNL     1       8.894  24.146  56.572  1.00  0.00     0.049 C 
HETATM   21  C   UNL     1       8.389  21.646  53.755  1.00  0.00    -0.061 A 
HETATM   22  C   UNL     1       8.616  20.177  53.539  1.00  0.00     0.048 C 
HETATM   23  C   UNL     1       7.830  22.442  52.756  1.00  0.00     0.007 A 
HETATM   24  C   UNL     1       7.609  23.803  52.976  1.00  0.00     0.010 A 
ENDBRANCH  16  17
ENDBRANCH  12  16
ENDBRANCH   1   9
BRANCH   1  25
HETATM   25  C   UNL     1       6.565  29.435  56.897  1.00  0.00     0.072 A 
HETATM   26  N   UNL     1       7.293  29.359  55.756  1.00  0.00    -0.262 NA
HETATM   27  C   UNL     1       8.642  29.289  55.861  1.00  0.00     0.117 A 
HETATM   28  C   UNL     1       9.319  29.258  57.064  1.00  0.00     0.019 A 
HETATM   29  C   UNL     1       8.573  29.311  58.232  1.00  0.00     0.003 A 
HETATM   30  C   UNL     1       7.185  29.400  58.152  1.00  0.00     0.030 A 
ENDBRANCH   1  25
BRANCH   5  31
HETATM   31  C   UNL     1       3.132  32.708  56.252  1.00  0.00     0.168 C 
BRANCH  31  32
HETATM   32  C   UNL     1       3.951  33.961  56.581  1.00  0.00     0.140 C 
HETATM   33  O   UNL     1       4.810  34.327  55.476  1.00  0.00    -0.384 OA
HETATM   34  C   UNL     1       4.987  35.757  55.525  1.00  0.00     0.168 C 
HETATM   35  C   UNL     1       4.124  36.289  56.654  1.00  0.00     0.029 C 
HETATM   36  C   UNL     1       3.103  35.193  56.837  1.00  0.00     0.036 C 
ENDBRANCH  31  32
ENDBRANCH   5  31
TORSDOF 6
ENDMDL
MODEL 9
REMARK VINA RESULT:      -9.1      2.421      7.479
REMARK  6 active torsions:
REMARK  status: ('A' for Active; 'I' for Inactive)
REMARK    1  A    between atoms: C_6  and  C_7 
REMARK    2  A    between atoms: C_7  and  N_8 
REMARK    3  A    between atoms: C_12  and  C_13 
REMARK    4  A    between atoms: C_13  and  C_14 
REMARK    5  A    between atoms: N_23  and  C_24 
REMARK    6  A    between atoms: C_24  and  C_25 
ROOT
HETATM    1  C   UNL     1       7.451  24.225  54.637  1.00  0.00     0.164 C 
HETATM    2  N   UNL     1       6.072  24.573  54.929  1.00  0.00    -0.319 N 
HETATM    3  C   UNL     1       5.959  25.272  56.113  1.00  0.00     0.326 C 
HETATM    4  O   UNL     1       4.879  25.556  56.599  1.00  0.00    -0.247 OA
HETATM    5  N   UNL     1       7.200  25.545  56.588  1.00  0.00    -0.265 N 
HETATM    6  C   UNL     1       8.142  24.855  55.873  1.00  0.00     0.263 C 
HETATM    7  O   UNL     1       9.332  24.778  56.139  1.00  0.00    -0.270 OA
HETATM    8  H   UNL     1       5.282  23.994  54.668  1.00  0.00     0.166 HD
ENDROOT
BRANCH   1   9
HETATM    9  C   UNL     1       7.984  24.967  53.344  1.00  0.00     0.033 C 
HETATM   10  C   UNL     1       8.044  26.511  53.441  1.00  0.00     0.036 C 
HETATM   11  C   UNL     1       6.693  27.215  53.342  1.00  0.00     0.235 C 
HETATM   12  N   UNL     1       5.989  26.807  52.067  1.00  0.00    -0.067 N 
HETATM   13  H   UNL     1       6.539  27.199  51.296  1.00  0.00     0.280 HD
HETATM   14  C   UNL     1       5.904  25.314  51.868  1.00  0.00     0.235 C 
HETATM   15  C   UNL     1       7.261  24.651  52.017  1.00  0.00     0.036 C 
BRANCH  12  16
HETATM   16  C   UNL     1       4.587  27.397  51.933  1.00  0.00     0.273 C 
BRANCH  16  17
HETATM   17  C   UNL     1       4.286  28.141  50.658  1.00  0.00    -0.027 A 
HETATM   18  C   UNL     1       4.023  29.530  50.654  1.00  0.00    -0.054 A 
HETATM   19  C   UNL     1       3.738  30.174  49.438  1.00  0.00     0.014 A 
HETATM   20  C   UNL     1       4.018  30.361  51.913  1.00  0.00     0.049 C 
HETATM   21  C   UNL     1       3.693  29.466  48.234  1.00  0.00    -0.061 A 
HETATM   22  C   UNL     1       3.406  30.190  46.950  1.00  0.00     0.048 C 
HETATM   23  C   UNL     1       3.953  28.095  48.243  1.00  0.00     0.007 A 
HETATM   24  C   UNL     1       4.234  27.437  49.442  1.00  0.00     0.010 A 
ENDBRANCH  16  17
ENDBRANCH  12  16
ENDBRANCH   1   9
BRANCH   1  25
HETATM   25  C   UNL     1       7.636  22.703  54.662  1.00  0.00     0.072 A 
HETATM   26  N   UNL     1       7.555  22.072  55.858  1.00  0.00    -0.262 NA
HETATM   27  C   UNL     1       7.749  20.731  55.889  1.00  0.00     0.117 A 
HETATM   28  C   UNL     1       8.056  19.973  54.776  1.00  0.00     0.019 A 
HETATM   29  C   UNL     1       8.164  20.622  53.556  1.00  0.00     0.003 A 
HETATM   30  C   UNL     1       7.953  21.998  53.494  1.00  0.00     0.030 A 
ENDBRANCH   1  25
BRANCH   5  31
HETATM   31  C   UNL     1       7.475  26.326  57.785  1.00  0.00     0.168 C 
BRANCH  31  32
HETATM   32  C   UNL     1       7.647  27.817  57.474  1.00  0.00     0.140 C 
HETATM   33  O   UNL     1       7.755  28.593  58.690  1.00  0.00    -0.384 OA
HETATM   34  C   UNL     1       8.567  29.748  58.392  1.00  0.00     0.168 C 
HETATM   35  C   UNL     1       9.044  29.616  56.958  1.00  0.00     0.029 C 
HETATM   36  C   UNL     1       8.911  28.136  56.698  1.00  0.00     0.036 C 
ENDBRANCH  31  32
ENDBRANCH   5  31
TORSDOF 6
ENDMDL
MODEL 10
REMARK VINA RESULT:      -9.0      2.244      8.266
REMARK  6 active torsions:
REMARK  status: ('A' for Active; 'I' for Inactive)
REMARK    1  A    between atoms: C_6  and  C_7 
REMARK    2  A    between atoms: C_7  and  N_8 
REMARK    3  A    between atoms: C_12  and  C_13 
REMARK    4  A    between atoms: C_13  and  C_14 
REMARK    5  A    between atoms: N_23  and  C_24 
REMARK    6  A    between atoms: C_24  and  C_25 
ROOT
HETATM    1  C   UNL     1       6.303  27.823  54.922  1.00  0.00     0.164 C 
HETATM    2  N   UNL     1       6.970  27.731  53.635  1.00  0.00    -0.319 N 
HETATM    3  C   UNL     1       7.198  26.421  53.268  1.00  0.00     0.326 C 
HETATM    4  O   UNL     1       7.849  26.128  52.282  1.00  0.00    -0.247 OA
HETATM    5  N   UNL     1       6.606  25.598  54.168  1.00  0.00    -0.265 N 
HETATM    6  C   UNL     1       6.174  26.315  55.252  1.00  0.00     0.263 C 
HETATM    7  O   UNL     1       5.726  25.849  56.290  1.00  0.00    -0.270 OA
HETATM    8  H   UNL     1       7.635  28.418  53.300  1.00  0.00     0.166 HD
ENDROOT
BRANCH   1   9
HETATM    9  C   UNL     1       4.845  28.424  54.787  1.00  0.00     0.033 C 
HETATM   10  C   UNL     1       3.872  27.615  53.895  1.00  0.00     0.036 C 
HETATM   11  C   UNL     1       4.114  27.750  52.393  1.00  0.00     0.235 C 
HETATM   12  N   UNL     1       4.087  29.208  51.993  1.00  0.00    -0.067 N 
HETATM   13  H   UNL     1       3.120  29.525  52.127  1.00  0.00     0.280 HD
HETATM   14  C   UNL     1       4.985  30.087  52.828  1.00  0.00     0.235 C 
HETATM   15  C   UNL     1       4.741  29.889  54.312  1.00  0.00     0.036 C 
BRANCH  12  16
HETATM   16  C   UNL     1       4.410  29.439  50.519  1.00  0.00     0.273 C 
BRANCH  16  17
HETATM   17  C   UNL     1       3.955  28.377  49.552  1.00  0.00    -0.027 A 
HETATM   18  C   UNL     1       2.599  28.254  49.170  1.00  0.00    -0.054 A 
HETATM   19  C   UNL     1       2.226  27.241  48.271  1.00  0.00     0.014 A 
HETATM   20  C   UNL     1       1.518  29.162  49.702  1.00  0.00     0.049 C 
HETATM   21  C   UNL     1       3.165  26.340  47.760  1.00  0.00    -0.061 A 
HETATM   22  C   UNL     1       2.734  25.282  46.785  1.00  0.00     0.048 C 
HETATM   23  C   UNL     1       4.501  26.465  48.140  1.00  0.00     0.007 A 
HETATM   24  C   UNL     1       4.891  27.464  49.035  1.00  0.00     0.010 A 
ENDBRANCH  16  17
ENDBRANCH  12  16
ENDBRANCH   1   9
BRANCH   1  25
HETATM   25  C   UNL     1       7.216  28.501  55.951  1.00  0.00     0.072 A 
HETATM   26  N   UNL     1       6.704  28.766  57.178  1.00  0.00    -0.262 NA
HETATM   27  C   UNL     1       7.497  29.393  58.079  1.00  0.00     0.117 A 
HETATM   28  C   UNL     1       8.788  29.806  57.812  1.00  0.00     0.019 A 
HETATM   29  C   UNL     1       9.303  29.556  56.550  1.00  0.00     0.003 A 
HETATM   30  C   UNL     1       8.514  28.899  55.608  1.00  0.00     0.030 A 
ENDBRANCH   1  25
BRANCH   5  31
HETATM   31  C   UNL     1       6.580  24.145  54.069  1.00  0.00     0.168 C 
BRANCH  31  32
HETATM   32  C   UNL     1       7.853  23.506  54.634  1.00  0.00     0.140 C 
HETATM   33  O   UNL     1       7.623  22.973  55.959  1.00  0.00    -0.384 OA
HETATM   34  C   UNL     1       8.519  21.856  56.135  1.00  0.00     0.168 C 
HETATM   35  C   UNL     1       9.257  21.649  54.825  1.00  0.00     0.029 C 
HETATM   36  C   UNL     1       8.352  22.324  53.823  1.00  0.00     0.036 C 
ENDBRANCH  31  32
ENDBRANCH   5  31
TORSDOF 6
ENDMDL
