MODEL 1
REMARK VINA RESULT:     -11.7      0.000      0.000
REMARK  3 active torsions:
REMARK  status: ('A' for Active; 'I' for Inactive)
REMARK    1  A    between atoms: N_3  and  C_4 
REMARK    2  A    between atoms: C_6  and  C_7 
REMARK       I    between atoms: C_7  and  N_8 
REMARK    3  A    between atoms: N_8  and  C_9 
ROOT
HETATM    1  C   UNL     1       5.742  29.157  55.657  1.00  0.00     0.072 C 
HETATM    2  C   UNL     1       6.326  27.728  55.710  1.00  0.00     0.149 C 
HETATM    3  N   UNL     1       7.241  27.519  56.861  1.00  0.00    -0.267 N 
HETATM    4  C   UNL     1       7.358  26.270  57.469  1.00  0.00     0.326 C 
HETATM    5  O   UNL     1       8.143  25.977  58.369  1.00  0.00    -0.247 OA
HETATM    6  N   UNL     1       6.523  25.288  57.023  1.00  0.00    -0.334 N 
HETATM    7  O   UNL     1       7.043  27.539  54.469  1.00  0.00    -0.319 OA
HETATM    8  C   UNL     1       7.131  26.260  53.990  1.00  0.00     0.080 A 
HETATM    9  C   UNL     1       6.507  25.172  54.606  1.00  0.00    -0.002 A 
HETATM   10  C   UNL     1       7.863  26.081  52.818  1.00  0.00     0.037 A 
HETATM   11  C   UNL     1       7.990  24.808  52.262  1.00  0.00     0.003 A 
HETATM   12  C   UNL     1       7.389  23.713  52.883  1.00  0.00     0.001 A 
HETATM   13  C   UNL     1       6.652  23.892  54.055  1.00  0.00     0.012 A 
HETATM   14  C   UNL     1       5.114  26.792  55.807  1.00  0.00     0.092 C 
HETATM   15  C   UNL     1       5.700  25.403  55.851  1.00  0.00     0.127 C 
HETATM   16  H   UNL     1       6.739  24.374  57.399  1.00  0.00     0.165 HD
ENDROOT
BRANCH   3  17
HETATM   17  C   UNL     1       8.128  28.563  57.280  1.00  0.00     0.043 A 
HETATM   18  C   UNL     1       7.852  29.367  58.394  1.00  0.00     0.047 A 
HETATM   19  C   UNL     1       8.747  30.379  58.773  1.00  0.00     0.034 A 
HETATM   20  C   UNL     1       9.944  30.561  58.073  1.00  0.00     0.017 A 
HETATM   21  C   UNL     1      10.222  29.773  56.961  1.00  0.00     0.003 A 
HETATM   22  C   UNL     1       9.311  28.794  56.559  1.00  0.00     0.030 A 
BRANCH  19  23
HETATM   23  C   UNL     1       8.453  31.308  59.896  1.00  0.00     0.252 C 
HETATM   24  N   UNL     1       7.819  30.742  60.983  1.00  0.00    -0.352 N 
HETATM   25  H   UNL     1       7.479  29.794  60.880  1.00  0.00     0.163 HD
HETATM   26  O   UNL     1       8.712  32.499  59.783  1.00  0.00    -0.268 OA
BRANCH  24  27
HETATM   27  C   UNL     1       7.258  31.514  62.075  1.00  0.00     0.084 C 
HETATM   28  C   UNL     1       8.279  32.185  62.995  1.00  0.00     0.025 C 
HETATM   29  C   UNL     1       7.473  33.299  63.644  1.00  0.00     0.002 C 
HETATM   30  C   UNL     1       6.643  33.845  62.493  1.00  0.00     0.002 C 
HETATM   31  C   UNL     1       6.296  32.629  61.634  1.00  0.00     0.025 C 
ENDBRANCH  24  27
ENDBRANCH  19  23
ENDBRANCH   3  17
TORSDOF 3
ENDMDL
MODEL 2
REMARK VINA RESULT:      -9.7      3.661      9.220
REMARK  3 active torsions:
REMARK  status: ('A' for Active; 'I' for Inactive)
REMARK    1  A    between atoms: N_3  and  C_4 
REMARK    2  A    between atoms: C_6  and  C_7 
REMARK       I    between atoms: C_7  and  N_8 
REMARK    3  A    between atoms: N_8  and  C_9 
ROOT
HETATM    1  C   UNL     1       5.783  35.882  63.061  1.00  0.00     0.072 C 
HETATM    2  C   UNL     1       4.623  35.129  62.374  1.00  0.00     0.149 C 
HETATM    3  N   UNL     1       4.788  33.653  62.413  1.00  0.00    -0.267 N 
HETATM    4  C   UNL     1       3.681  32.808  62.466  1.00  0.00     0.326 C 
HETATM    5  O   UNL     1       3.709  31.579  62.417  1.00  0.00    -0.247 OA
HETATM    6  N   UNL     1       2.458  33.401  62.582  1.00  0.00    -0.334 N 
HETATM    7  O   UNL     1       4.600  35.588  61.003  1.00  0.00    -0.319 OA
HETATM    8  C   UNL     1       3.390  35.574  60.364  1.00  0.00     0.080 A 
HETATM    9  C   UNL     1       2.198  35.210  60.997  1.00  0.00    -0.002 A 
HETATM   10  C   UNL     1       3.385  35.974  59.029  1.00  0.00     0.037 A 
HETATM   11  C   UNL     1       2.188  35.997  58.313  1.00  0.00     0.003 A 
HETATM   12  C   UNL     1       0.998  35.613  58.930  1.00  0.00     0.001 A 
HETATM   13  C   UNL     1       1.002  35.216  60.268  1.00  0.00     0.012 A 
HETATM   14  C   UNL     1       3.355  35.551  63.130  1.00  0.00     0.092 C 
HETATM   15  C   UNL     1       2.233  34.813  62.444  1.00  0.00     0.127 C 
HETATM   16  H   UNL     1       1.685  32.755  62.481  1.00  0.00     0.165 HD
ENDROOT
BRANCH   3  17
HETATM   17  C   UNL     1       6.084  33.065  62.253  1.00  0.00     0.043 A 
HETATM   18  C   UNL     1       6.565  32.661  61.001  1.00  0.00     0.047 A 
HETATM   19  C   UNL     1       7.841  32.088  60.886  1.00  0.00     0.034 A 
HETATM   20  C   UNL     1       8.661  31.962  62.012  1.00  0.00     0.017 A 
HETATM   21  C   UNL     1       8.189  32.353  63.260  1.00  0.00     0.003 A 
HETATM   22  C   UNL     1       6.903  32.883  63.379  1.00  0.00     0.030 A 
BRANCH  19  23
HETATM   23  C   UNL     1       8.356  31.569  59.592  1.00  0.00     0.252 C 
HETATM   24  N   UNL     1       8.009  30.268  59.294  1.00  0.00    -0.352 N 
HETATM   25  H   UNL     1       7.562  29.727  60.025  1.00  0.00     0.163 HD
HETATM   26  O   UNL     1       9.093  32.267  58.908  1.00  0.00    -0.268 OA
BRANCH  24  27
HETATM   27  C   UNL     1       8.586  29.515  58.196  1.00  0.00     0.084 C 
HETATM   28  C   UNL     1       7.888  29.689  56.846  1.00  0.00     0.025 C 
HETATM   29  C   UNL     1       8.962  29.275  55.852  1.00  0.00     0.002 C 
HETATM   30  C   UNL     1      10.224  29.904  56.422  1.00  0.00     0.002 C 
HETATM   31  C   UNL     1      10.073  29.807  57.939  1.00  0.00     0.025 C 
ENDBRANCH  24  27
ENDBRANCH  19  23
ENDBRANCH   3  17
TORSDOF 3
ENDMDL
MODEL 3
REMARK VINA RESULT:      -9.3      5.720      8.862
REMARK  3 active torsions:
REMARK  status: ('A' for Active; 'I' for Inactive)
REMARK    1  A    between atoms: N_3  and  C_4 
REMARK    2  A    between atoms: C_6  and  C_7 
REMARK       I    between atoms: C_7  and  N_8 
REMARK    3  A    between atoms: N_8  and  C_9 
ROOT
HETATM    1  C   UNL     1       6.110  29.868  50.158  1.00  0.00     0.072 C 
HETATM    2  C   UNL     1       4.755  29.129  50.219  1.00  0.00     0.149 C 
HETATM    3  N   UNL     1       4.447  28.595  51.570  1.00  0.00    -0.267 N 
HETATM    4  C   UNL     1       3.132  28.493  52.020  1.00  0.00     0.326 C 
HETATM    5  O   UNL     1       2.770  27.991  53.083  1.00  0.00    -0.247 OA
HETATM    6  N   UNL     1       2.162  28.999  51.205  1.00  0.00    -0.334 N 
HETATM    7  O   UNL     1       4.844  28.044  49.267  1.00  0.00    -0.319 OA
HETATM    8  C   UNL     1       3.676  27.630  48.686  1.00  0.00     0.080 A 
HETATM    9  C   UNL     1       2.446  28.250  48.922  1.00  0.00    -0.002 A 
HETATM   10  C   UNL     1       3.765  26.553  47.806  1.00  0.00     0.037 A 
HETATM   11  C   UNL     1       2.619  26.079  47.167  1.00  0.00     0.003 A 
HETATM   12  C   UNL     1       1.384  26.679  47.414  1.00  0.00     0.001 A 
HETATM   13  C   UNL     1       1.296  27.759  48.293  1.00  0.00     0.012 A 
HETATM   14  C   UNL     1       3.704  30.164  49.795  1.00  0.00     0.092 C 
HETATM   15  C   UNL     1       2.390  29.427  49.853  1.00  0.00     0.127 C 
HETATM   16  H   UNL     1       1.223  28.781  51.513  1.00  0.00     0.165 HD
ENDROOT
BRANCH   3  17
HETATM   17  C   UNL     1       5.487  28.041  52.385  1.00  0.00     0.043 A 
HETATM   18  C   UNL     1       6.043  26.782  52.122  1.00  0.00     0.047 A 
HETATM   19  C   UNL     1       7.061  26.275  52.944  1.00  0.00     0.034 A 
HETATM   20  C   UNL     1       7.563  27.042  54.000  1.00  0.00     0.017 A 
HETATM   21  C   UNL     1       7.012  28.289  54.273  1.00  0.00     0.003 A 
HETATM   22  C   UNL     1       5.970  28.775  53.481  1.00  0.00     0.030 A 
BRANCH  19  23
HETATM   23  C   UNL     1       7.619  24.911  52.751  1.00  0.00     0.252 C 
HETATM   24  N   UNL     1       7.771  24.164  53.902  1.00  0.00    -0.352 N 
HETATM   25  H   UNL     1       7.631  24.639  54.785  1.00  0.00     0.163 HD
HETATM   26  O   UNL     1       7.971  24.549  51.636  1.00  0.00    -0.268 OA
BRANCH  24  27
HETATM   27  C   UNL     1       8.493  22.907  53.953  1.00  0.00     0.084 C 
HETATM   28  C   UNL     1       8.660  22.304  55.348  1.00  0.00     0.025 C 
HETATM   29  C   UNL     1       8.924  20.835  55.055  1.00  0.00     0.002 C 
HETATM   30  C   UNL     1       7.946  20.523  53.933  1.00  0.00     0.002 C 
HETATM   31  C   UNL     1       7.888  21.793  53.084  1.00  0.00     0.025 C 
ENDBRANCH  24  27
ENDBRANCH  19  23
ENDBRANCH   3  17
TORSDOF 3
ENDMDL
MODEL 4
REMARK VINA RESULT:      -9.1      5.852      9.347
REMARK  3 active torsions:
REMARK  status: ('A' for Active; 'I' for Inactive)
REMARK    1  A    between atoms: N_3  and  C_4 
REMARK    2  A    between atoms: C_6  and  C_7 
REMARK       I    between atoms: C_7  and  N_8 
REMARK    3  A    between atoms: N_8  and  C_9 
ROOT
HETATM    1  C   UNL     1       4.480  25.954  49.458  1.00  0.00     0.072 C 
HETATM    2  C   UNL     1       4.337  27.451  49.105  1.00  0.00     0.149 C 
HETATM    3  N   UNL     1       5.013  28.342  50.081  1.00  0.00    -0.267 N 
HETATM    4  C   UNL     1       5.561  29.560  49.682  1.00  0.00     0.326 C 
HETATM    5  O   UNL     1       6.065  30.402  50.424  1.00  0.00    -0.247 OA
HETATM    6  N   UNL     1       5.535  29.839  48.347  1.00  0.00    -0.334 N 
HETATM    7  O   UNL     1       2.917  27.726  49.085  1.00  0.00    -0.319 OA
HETATM    8  C   UNL     1       2.490  28.728  48.257  1.00  0.00     0.080 A 
HETATM    9  C   UNL     1       3.346  29.425  47.400  1.00  0.00    -0.002 A 
HETATM   10  C   UNL     1       1.127  29.017  48.279  1.00  0.00     0.037 A 
HETATM   11  C   UNL     1       0.614  30.020  47.455  1.00  0.00     0.003 A 
HETATM   12  C   UNL     1       1.466  30.735  46.614  1.00  0.00     0.001 A 
HETATM   13  C   UNL     1       2.830  30.443  46.589  1.00  0.00     0.012 A 
HETATM   14  C   UNL     1       4.959  27.605  47.710  1.00  0.00     0.092 C 
HETATM   15  C   UNL     1       4.805  29.068  47.379  1.00  0.00     0.127 C 
HETATM   16  H   UNL     1       5.820  30.785  48.127  1.00  0.00     0.165 HD
ENDROOT
BRANCH   3  17
HETATM   17  C   UNL     1       4.991  28.034  51.480  1.00  0.00     0.043 A 
HETATM   18  C   UNL     1       5.994  27.266  52.085  1.00  0.00     0.047 A 
HETATM   19  C   UNL     1       5.936  26.987  53.459  1.00  0.00     0.034 A 
HETATM   20  C   UNL     1       4.906  27.515  54.244  1.00  0.00     0.017 A 
HETATM   21  C   UNL     1       3.902  28.272  53.650  1.00  0.00     0.003 A 
HETATM   22  C   UNL     1       3.937  28.513  52.275  1.00  0.00     0.030 A 
BRANCH  19  23
HETATM   23  C   UNL     1       6.933  26.107  54.124  1.00  0.00     0.252 C 
HETATM   24  N   UNL     1       7.105  24.865  53.549  1.00  0.00    -0.352 N 
HETATM   25  H   UNL     1       6.453  24.595  52.823  1.00  0.00     0.163 HD
HETATM   26  O   UNL     1       7.484  26.481  55.152  1.00  0.00    -0.268 OA
BRANCH  24  27
HETATM   27  C   UNL     1       7.861  23.793  54.168  1.00  0.00     0.084 C 
HETATM   28  C   UNL     1       7.182  23.117  55.361  1.00  0.00     0.025 C 
HETATM   29  C   UNL     1       7.887  21.772  55.437  1.00  0.00     0.002 C 
HETATM   30  C   UNL     1       8.006  21.358  53.978  1.00  0.00     0.002 C 
HETATM   31  C   UNL     1       8.252  22.657  53.210  1.00  0.00     0.025 C 
ENDBRANCH  24  27
ENDBRANCH  19  23
ENDBRANCH   3  17
TORSDOF 3
ENDMDL
MODEL 5
REMARK VINA RESULT:      -9.0      3.215     10.313
REMARK  3 active torsions:
REMARK  status: ('A' for Active; 'I' for Inactive)
REMARK    1  A    between atoms: N_3  and  C_4 
REMARK    2  A    between atoms: C_6  and  C_7 
REMARK       I    between atoms: C_7  and  N_8 
REMARK    3  A    between atoms: N_8  and  C_9 
ROOT
HETATM    1  C   UNL     1       4.114  31.547  62.612  1.00  0.00     0.072 C 
HETATM    2  C   UNL     1       4.426  32.976  63.110  1.00  0.00     0.149 C 
HETATM    3  N   UNL     1       5.507  33.635  62.335  1.00  0.00    -0.267 N 
HETATM    4  C   UNL     1       5.518  35.017  62.150  1.00  0.00     0.326 C 
HETATM    5  O   UNL     1       6.408  35.663  61.598  1.00  0.00    -0.247 OA
HETATM    6  N   UNL     1       4.444  35.711  62.624  1.00  0.00    -0.334 N 
HETATM    7  O   UNL     1       4.821  32.843  64.494  1.00  0.00    -0.319 OA
HETATM    8  C   UNL     1       4.572  33.908  65.317  1.00  0.00     0.080 A 
HETATM    9  C   UNL     1       3.902  35.058  64.891  1.00  0.00    -0.002 A 
HETATM   10  C   UNL     1       4.998  33.790  66.638  1.00  0.00     0.037 A 
HETATM   11  C   UNL     1       4.771  34.830  67.540  1.00  0.00     0.003 A 
HETATM   12  C   UNL     1       4.124  35.990  67.117  1.00  0.00     0.001 A 
HETATM   13  C   UNL     1       3.694  36.108  65.794  1.00  0.00     0.012 A 
HETATM   14  C   UNL     1       3.110  33.754  62.973  1.00  0.00     0.092 C 
HETATM   15  C   UNL     1       3.430  35.142  63.468  1.00  0.00     0.127 C 
HETATM   16  H   UNL     1       4.563  36.715  62.586  1.00  0.00     0.165 HD
ENDROOT
BRANCH   3  17
HETATM   17  C   UNL     1       6.638  32.881  61.881  1.00  0.00     0.043 A 
HETATM   18  C   UNL     1       6.682  32.310  60.603  1.00  0.00     0.047 A 
HETATM   19  C   UNL     1       7.808  31.579  60.196  1.00  0.00     0.034 A 
HETATM   20  C   UNL     1       8.915  31.457  61.043  1.00  0.00     0.017 A 
HETATM   21  C   UNL     1       8.876  32.014  62.317  1.00  0.00     0.003 A 
HETATM   22  C   UNL     1       7.738  32.705  62.736  1.00  0.00     0.030 A 
BRANCH  19  23
HETATM   23  C   UNL     1       7.863  30.886  58.881  1.00  0.00     0.252 C 
HETATM   24  N   UNL     1       6.753  30.131  58.563  1.00  0.00    -0.352 N 
HETATM   25  H   UNL     1       6.063  29.989  59.291  1.00  0.00     0.163 HD
HETATM   26  O   UNL     1       8.876  30.956  58.198  1.00  0.00    -0.268 OA
BRANCH  24  27
HETATM   27  C   UNL     1       6.702  29.215  57.439  1.00  0.00     0.084 C 
HETATM   28  C   UNL     1       7.429  27.885  57.645  1.00  0.00     0.025 C 
HETATM   29  C   UNL     1       6.777  26.977  56.615  1.00  0.00     0.002 C 
HETATM   30  C   UNL     1       5.304  27.345  56.711  1.00  0.00     0.002 C 
HETATM   31  C   UNL     1       5.281  28.849  56.982  1.00  0.00     0.025 C 
ENDBRANCH  24  27
ENDBRANCH  19  23
ENDBRANCH   3  17
TORSDOF 3
ENDMDL
MODEL 6
REMARK VINA RESULT:      -8.7      4.858      6.503
REMARK  3 active torsions:
REMARK  status: ('A' for Active; 'I' for Inactive)
REMARK    1  A    between atoms: N_3  and  C_4 
REMARK    2  A    between atoms: C_6  and  C_7 
REMARK       I    between atoms: C_7  and  N_8 
REMARK    3  A    between atoms: N_8  and  C_9 
ROOT
HETATM    1  C   UNL     1       8.162  27.582  53.833  1.00  0.00     0.072 C 
HETATM    2  C   UNL     1       7.478  26.198  53.869  1.00  0.00     0.149 C 
HETATM    3  N   UNL     1       5.996  26.283  53.817  1.00  0.00    -0.267 N 
HETATM    4  C   UNL     1       5.240  25.280  53.213  1.00  0.00     0.326 C 
HETATM    5  O   UNL     1       4.011  25.218  53.192  1.00  0.00    -0.247 OA
HETATM    6  N   UNL     1       5.927  24.279  52.592  1.00  0.00    -0.334 N 
HETATM    7  O   UNL     1       7.893  25.575  55.106  1.00  0.00    -0.319 OA
HETATM    8  C   UNL     1       7.952  24.208  55.124  1.00  0.00     0.080 A 
HETATM    9  C   UNL     1       7.700  23.419  53.998  1.00  0.00    -0.002 A 
HETATM   10  C   UNL     1       8.307  23.614  56.333  1.00  0.00     0.037 A 
HETATM   11  C   UNL     1       8.398  22.225  56.428  1.00  0.00     0.003 A 
HETATM   12  C   UNL     1       8.126  21.431  55.314  1.00  0.00     0.001 A 
HETATM   13  C   UNL     1       7.773  22.025  54.102  1.00  0.00     0.012 A 
HETATM   14  C   UNL     1       8.019  25.440  52.648  1.00  0.00     0.092 C 
HETATM   15  C   UNL     1       7.347  24.092  52.702  1.00  0.00     0.127 C 
HETATM   16  H   UNL     1       5.339  23.513  52.290  1.00  0.00     0.165 HD
ENDROOT
BRANCH   3  17
HETATM   17  C   UNL     1       5.306  27.330  54.510  1.00  0.00     0.043 A 
HETATM   18  C   UNL     1       4.837  28.472  53.849  1.00  0.00     0.047 A 
HETATM   19  C   UNL     1       4.165  29.475  54.564  1.00  0.00     0.034 A 
HETATM   20  C   UNL     1       3.913  29.319  55.931  1.00  0.00     0.017 A 
HETATM   21  C   UNL     1       4.382  28.191  56.597  1.00  0.00     0.003 A 
HETATM   22  C   UNL     1       5.088  27.214  55.893  1.00  0.00     0.030 A 
BRANCH  19  23
HETATM   23  C   UNL     1       3.725  30.740  53.919  1.00  0.00     0.252 C 
HETATM   24  N   UNL     1       4.528  31.192  52.892  1.00  0.00    -0.352 N 
HETATM   25  H   UNL     1       5.413  30.721  52.753  1.00  0.00     0.163 HD
HETATM   26  O   UNL     1       2.749  31.337  54.354  1.00  0.00    -0.268 OA
BRANCH  24  27
HETATM   27  C   UNL     1       4.394  32.504  52.288  1.00  0.00     0.084 C 
HETATM   28  C   UNL     1       4.921  33.669  53.128  1.00  0.00     0.025 C 
HETATM   29  C   UNL     1       5.155  34.758  52.093  1.00  0.00     0.002 C 
HETATM   30  C   UNL     1       5.767  34.000  50.924  1.00  0.00     0.002 C 
HETATM   31  C   UNL     1       5.066  32.642  50.913  1.00  0.00     0.025 C 
ENDBRANCH  24  27
ENDBRANCH  19  23
ENDBRANCH   3  17
TORSDOF 3
ENDMDL
