MODEL 1
REMARK VINA RESULT:     -10.2      0.000      0.000
REMARK  2 active torsions:
REMARK  status: ('A' for Active; 'I' for Inactive)
REMARK    1  A    between atoms: C_9  and  C_10 
REMARK       I    between atoms: C_10  and  N_11 
REMARK    2  A    between atoms: N_11  and  C_12 
ROOT
HETATM    1  C   UNL     1       7.971  26.395  56.781  1.00  0.00     0.277 C 
HETATM    2  N   UNL     1       8.302  27.694  56.437  1.00  0.00    -0.322 N 
HETATM    3  O   UNL     1       7.915  25.940  57.918  1.00  0.00    -0.266 OA
HETATM    4  H   UNL     1       8.258  27.863  55.434  1.00  0.00     0.169 HD
ENDROOT
BRANCH   2   5
HETATM    5  C   UNL     1       8.640  28.765  57.280  1.00  0.00     0.037 A 
HETATM    6  C   UNL     1       7.834  29.212  58.330  1.00  0.00     0.062 A 
HETATM    7  C   UNL     1       8.242  30.294  59.116  1.00  0.00     0.070 A 
HETATM    8  C   UNL     1       9.454  30.938  58.861  1.00  0.00     0.096 A 
HETATM    9  N   UNL     1       7.439  30.708  60.178  1.00  0.00    -0.323 N 
HETATM   10  O   UNL     1       9.935  31.978  59.605  1.00  0.00    -0.340 OA
HETATM   11  C   UNL     1      10.268  30.486  57.827  1.00  0.00     0.041 A 
HETATM   12  C   UNL     1       8.983  32.582  60.468  1.00  0.00     0.278 C 
HETATM   13  C   UNL     1       7.761  31.796  60.940  1.00  0.00     0.246 C 
HETATM   14  O   UNL     1       7.068  32.140  61.894  1.00  0.00    -0.271 OA
HETATM   15  C   UNL     1       9.863  29.405  57.040  1.00  0.00     0.032 A 
HETATM   16  H   UNL     1       6.597  30.203  60.424  1.00  0.00     0.169 HD
ENDBRANCH   2   5
BRANCH   1  17
HETATM   17  C   UNL     1       7.661  25.581  55.590  1.00  0.00     0.157 A 
HETATM   18  C   UNL     1       7.851  24.178  55.425  1.00  0.00     0.029 A 
HETATM   19  C   UNL     1       8.342  23.119  56.216  1.00  0.00     0.023 A 
HETATM   20  C   UNL     1       7.403  23.900  54.140  1.00  0.00     0.063 A 
HETATM   21  C   UNL     1       8.360  21.814  55.693  1.00  0.00    -0.061 A 
HETATM   22  C   UNL     1       8.868  20.670  56.522  1.00  0.00     0.048 C 
HETATM   23  C   UNL     1       7.904  21.580  54.389  1.00  0.00     0.009 A 
HETATM   24  C   UNL     1       7.417  22.618  53.586  1.00  0.00     0.032 A 
HETATM   25  N   UNL     1       6.991  25.102  53.634  1.00  0.00    -0.277 N 
HETATM   26  H   UNL     1       6.607  25.278  52.713  1.00  0.00     0.189 HD
HETATM   27  N   UNL     1       7.116  26.138  54.484  1.00  0.00    -0.168 NA
ENDBRANCH   1  17
TORSDOF 2
ENDMDL
MODEL 2
REMARK VINA RESULT:     -10.1      4.898      7.661
REMARK  2 active torsions:
REMARK  status: ('A' for Active; 'I' for Inactive)
REMARK    1  A    between atoms: C_9  and  C_10 
REMARK       I    between atoms: C_10  and  N_11 
REMARK    2  A    between atoms: N_11  and  C_12 
ROOT
HETATM    1  C   UNL     1       7.239  25.759  54.657  1.00  0.00     0.277 C 
HETATM    2  N   UNL     1       6.178  25.433  53.829  1.00  0.00    -0.322 N 
HETATM    3  O   UNL     1       7.842  26.826  54.673  1.00  0.00    -0.266 OA
HETATM    4  H   UNL     1       5.809  24.501  54.005  1.00  0.00     0.169 HD
ENDROOT
BRANCH   2   5
HETATM    5  C   UNL     1       5.561  26.221  52.845  1.00  0.00     0.037 A 
HETATM    6  C   UNL     1       5.731  26.023  51.472  1.00  0.00     0.062 A 
HETATM    7  C   UNL     1       5.086  26.862  50.558  1.00  0.00     0.070 A 
HETATM    8  C   UNL     1       4.269  27.902  51.004  1.00  0.00     0.096 A 
HETATM    9  N   UNL     1       5.244  26.633  49.191  1.00  0.00    -0.323 N 
HETATM   10  O   UNL     1       3.581  28.740  50.173  1.00  0.00    -0.340 OA
HETATM   11  C   UNL     1       4.083  28.092  52.370  1.00  0.00     0.041 A 
HETATM   12  C   UNL     1       3.989  28.698  48.814  1.00  0.00     0.278 C 
HETATM   13  C   UNL     1       4.685  27.457  48.255  1.00  0.00     0.246 C 
HETATM   14  O   UNL     1       4.799  27.236  47.053  1.00  0.00    -0.271 OA
HETATM   15  C   UNL     1       4.726  27.255  53.286  1.00  0.00     0.032 A 
HETATM   16  H   UNL     1       5.768  25.837  48.853  1.00  0.00     0.169 HD
ENDBRANCH   2   5
BRANCH   1  17
HETATM   17  C   UNL     1       7.574  24.651  55.571  1.00  0.00     0.157 A 
HETATM   18  C   UNL     1       7.847  23.294  55.226  1.00  0.00     0.029 A 
HETATM   19  C   UNL     1       7.910  22.541  54.036  1.00  0.00     0.023 A 
HETATM   20  C   UNL     1       8.108  22.659  56.433  1.00  0.00     0.063 A 
HETATM   21  C   UNL     1       8.239  21.176  54.096  1.00  0.00    -0.061 A 
HETATM   22  C   UNL     1       8.322  20.358  52.840  1.00  0.00     0.048 C 
HETATM   23  C   UNL     1       8.488  20.574  55.336  1.00  0.00     0.009 A 
HETATM   24  C   UNL     1       8.427  21.302  56.530  1.00  0.00     0.032 A 
HETATM   25  N   UNL     1       7.979  23.630  57.386  1.00  0.00    -0.277 N 
HETATM   26  H   UNL     1       8.095  23.523  58.388  1.00  0.00     0.189 HD
HETATM   27  N   UNL     1       7.673  24.849  56.905  1.00  0.00    -0.168 NA
ENDBRANCH   1  17
TORSDOF 2
ENDMDL
MODEL 3
REMARK VINA RESULT:      -9.7      1.581      1.969
REMARK  2 active torsions:
REMARK  status: ('A' for Active; 'I' for Inactive)
REMARK    1  A    between atoms: C_9  and  C_10 
REMARK       I    between atoms: C_10  and  N_11 
REMARK    2  A    between atoms: N_11  and  C_12 
ROOT
HETATM    1  C   UNL     1       6.997  26.041  55.598  1.00  0.00     0.277 C 
HETATM    2  N   UNL     1       7.531  27.309  55.450  1.00  0.00    -0.322 N 
HETATM    3  O   UNL     1       6.271  25.665  56.511  1.00  0.00    -0.266 OA
HETATM    4  H   UNL     1       8.084  27.411  54.601  1.00  0.00     0.169 HD
ENDROOT
BRANCH   2   5
HETATM    5  C   UNL     1       7.375  28.429  56.283  1.00  0.00     0.037 A 
HETATM    6  C   UNL     1       8.154  28.669  57.417  1.00  0.00     0.062 A 
HETATM    7  C   UNL     1       7.924  29.806  58.198  1.00  0.00     0.070 A 
HETATM    8  C   UNL     1       6.917  30.709  57.855  1.00  0.00     0.096 A 
HETATM    9  N   UNL     1       8.731  30.045  59.309  1.00  0.00    -0.323 N 
HETATM   10  O   UNL     1       6.655  31.856  58.549  1.00  0.00    -0.340 OA
HETATM   11  C   UNL     1       6.148  30.483  56.718  1.00  0.00     0.041 A 
HETATM   12  C   UNL     1       7.260  31.928  59.831  1.00  0.00     0.278 C 
HETATM   13  C   UNL     1       8.512  31.108  60.141  1.00  0.00     0.246 C 
HETATM   14  O   UNL     1       9.243  31.335  61.101  1.00  0.00    -0.271 OA
HETATM   15  C   UNL     1       6.376  29.347  55.935  1.00  0.00     0.032 A 
HETATM   16  H   UNL     1       9.515  29.443  59.525  1.00  0.00     0.169 HD
ENDBRANCH   2   5
BRANCH   1  17
HETATM   17  C   UNL     1       7.390  25.154  54.487  1.00  0.00     0.157 A 
HETATM   18  C   UNL     1       7.616  23.747  54.539  1.00  0.00     0.029 A 
HETATM   19  C   UNL     1       7.564  22.745  55.530  1.00  0.00     0.023 A 
HETATM   20  C   UNL     1       7.957  23.386  53.242  1.00  0.00     0.063 A 
HETATM   21  C   UNL     1       7.848  21.413  55.184  1.00  0.00    -0.061 A 
HETATM   22  C   UNL     1       7.788  20.328  56.221  1.00  0.00     0.048 C 
HETATM   23  C   UNL     1       8.194  21.094  53.864  1.00  0.00     0.009 A 
HETATM   24  C   UNL     1       8.257  22.074  52.867  1.00  0.00     0.032 A 
HETATM   25  N   UNL     1       7.918  24.549  52.523  1.00  0.00    -0.277 N 
HETATM   26  H   UNL     1       8.117  24.663  51.536  1.00  0.00     0.189 HD
HETATM   27  N   UNL     1       7.565  25.634  53.235  1.00  0.00    -0.168 NA
ENDBRANCH   1  17
TORSDOF 2
ENDMDL
MODEL 4
REMARK VINA RESULT:      -9.6      2.139      3.136
REMARK  2 active torsions:
REMARK  status: ('A' for Active; 'I' for Inactive)
REMARK    1  A    between atoms: C_9  and  C_10 
REMARK       I    between atoms: C_10  and  N_11 
REMARK    2  A    between atoms: N_11  and  C_12 
ROOT
HETATM    1  C   UNL     1       8.082  25.044  57.485  1.00  0.00     0.277 C 
HETATM    2  N   UNL     1       7.370  26.005  56.788  1.00  0.00    -0.322 N 
HETATM    3  O   UNL     1       8.599  25.186  58.587  1.00  0.00    -0.266 OA
HETATM    4  H   UNL     1       7.003  25.663  55.902  1.00  0.00     0.169 HD
ENDROOT
BRANCH   2   5
HETATM    5  C   UNL     1       7.079  27.325  57.165  1.00  0.00     0.037 A 
HETATM    6  C   UNL     1       8.026  28.212  57.683  1.00  0.00     0.062 A 
HETATM    7  C   UNL     1       7.648  29.509  58.044  1.00  0.00     0.070 A 
HETATM    8  C   UNL     1       6.326  29.931  57.893  1.00  0.00     0.096 A 
HETATM    9  N   UNL     1       8.613  30.391  58.532  1.00  0.00    -0.323 N 
HETATM   10  O   UNL     1       5.890  31.190  58.192  1.00  0.00    -0.340 OA
HETATM   11  C   UNL     1       5.383  29.056  57.362  1.00  0.00     0.041 A 
HETATM   12  C   UNL     1       6.792  31.965  58.967  1.00  0.00     0.278 C 
HETATM   13  C   UNL     1       8.288  31.649  58.955  1.00  0.00     0.246 C 
HETATM   14  O   UNL     1       9.143  32.434  59.355  1.00  0.00    -0.271 OA
HETATM   15  C   UNL     1       5.757  27.760  57.001  1.00  0.00     0.032 A 
HETATM   16  H   UNL     1       9.588  30.126  58.574  1.00  0.00     0.169 HD
ENDBRANCH   2   5
BRANCH   1  17
HETATM   17  C   UNL     1       8.144  23.771  56.743  1.00  0.00     0.157 A 
HETATM   18  C   UNL     1       8.024  23.580  55.335  1.00  0.00     0.029 A 
HETATM   19  C   UNL     1       7.827  24.408  54.211  1.00  0.00     0.023 A 
HETATM   20  C   UNL     1       8.155  22.211  55.142  1.00  0.00     0.063 A 
HETATM   21  C   UNL     1       7.776  23.835  52.928  1.00  0.00    -0.061 A 
HETATM   22  C   UNL     1       7.579  24.699  51.716  1.00  0.00     0.048 C 
HETATM   23  C   UNL     1       7.907  22.448  52.780  1.00  0.00     0.009 A 
HETATM   24  C   UNL     1       8.098  21.608  53.883  1.00  0.00     0.032 A 
HETATM   25  N   UNL     1       8.336  21.687  56.392  1.00  0.00    -0.277 N 
HETATM   26  H   UNL     1       8.463  20.710  56.632  1.00  0.00     0.189 HD
HETATM   27  N   UNL     1       8.352  22.597  57.383  1.00  0.00    -0.168 NA
ENDBRANCH   1  17
TORSDOF 2
ENDMDL
MODEL 5
REMARK VINA RESULT:      -9.5      1.717      1.907
REMARK  2 active torsions:
REMARK  status: ('A' for Active; 'I' for Inactive)
REMARK    1  A    between atoms: C_9  and  C_10 
REMARK       I    between atoms: C_10  and  N_11 
REMARK    2  A    between atoms: N_11  and  C_12 
ROOT
HETATM    1  C   UNL     1       7.121  25.823  55.869  1.00  0.00     0.277 C 
HETATM    2  N   UNL     1       7.617  27.106  55.711  1.00  0.00    -0.322 N 
HETATM    3  O   UNL     1       6.525  25.395  56.850  1.00  0.00    -0.266 OA
HETATM    4  H   UNL     1       8.052  27.255  54.803  1.00  0.00     0.169 HD
ENDROOT
BRANCH   2   5
HETATM    5  C   UNL     1       7.556  28.185  56.607  1.00  0.00     0.037 A 
HETATM    6  C   UNL     1       6.387  28.895  56.892  1.00  0.00     0.062 A 
HETATM    7  C   UNL     1       6.418  29.965  57.790  1.00  0.00     0.070 A 
HETATM    8  C   UNL     1       7.612  30.337  58.410  1.00  0.00     0.096 A 
HETATM    9  N   UNL     1       5.235  30.643  58.086  1.00  0.00    -0.323 N 
HETATM   10  O   UNL     1       7.714  31.349  59.322  1.00  0.00    -0.340 OA
HETATM   11  C   UNL     1       8.776  29.623  58.142  1.00  0.00     0.041 A 
HETATM   12  C   UNL     1       6.591  32.217  59.376  1.00  0.00     0.278 C 
HETATM   13  C   UNL     1       5.219  31.733  58.910  1.00  0.00     0.246 C 
HETATM   14  O   UNL     1       4.172  32.310  59.193  1.00  0.00    -0.271 OA
HETATM   15  C   UNL     1       8.748  28.553  57.244  1.00  0.00     0.032 A 
HETATM   16  H   UNL     1       4.349  30.337  57.706  1.00  0.00     0.169 HD
ENDBRANCH   2   5
BRANCH   1  17
HETATM   17  C   UNL     1       7.377  24.993  54.677  1.00  0.00     0.157 A 
HETATM   18  C   UNL     1       7.619  23.588  54.634  1.00  0.00     0.029 A 
HETATM   19  C   UNL     1       7.701  22.542  55.576  1.00  0.00     0.023 A 
HETATM   20  C   UNL     1       7.794  23.291  53.288  1.00  0.00     0.063 A 
HETATM   21  C   UNL     1       7.950  21.231  55.135  1.00  0.00    -0.061 A 
HETATM   22  C   UNL     1       8.031  20.100  56.119  1.00  0.00     0.048 C 
HETATM   23  C   UNL     1       8.127  20.978  53.769  1.00  0.00     0.009 A 
HETATM   24  C   UNL     1       8.054  22.002  52.818  1.00  0.00     0.032 A 
HETATM   25  N   UNL     1       7.655  24.485  52.636  1.00  0.00    -0.277 N 
HETATM   26  H   UNL     1       7.725  24.647  51.638  1.00  0.00     0.189 HD
HETATM   27  N   UNL     1       7.386  25.532  53.437  1.00  0.00    -0.168 NA
ENDBRANCH   1  17
TORSDOF 2
ENDMDL
MODEL 6
REMARK VINA RESULT:      -9.4      1.708      2.829
REMARK  2 active torsions:
REMARK  status: ('A' for Active; 'I' for Inactive)
REMARK    1  A    between atoms: C_9  and  C_10 
REMARK       I    between atoms: C_10  and  N_11 
REMARK    2  A    between atoms: N_11  and  C_12 
ROOT
HETATM    1  C   UNL     1       7.975  26.259  57.011  1.00  0.00     0.277 C 
HETATM    2  N   UNL     1       8.286  27.540  56.589  1.00  0.00    -0.322 N 
HETATM    3  O   UNL     1       7.957  25.864  58.171  1.00  0.00    -0.266 OA
HETATM    4  H   UNL     1       8.210  27.656  55.580  1.00  0.00     0.169 HD
ENDROOT
BRANCH   2   5
HETATM    5  C   UNL     1       8.642  28.655  57.364  1.00  0.00     0.037 A 
HETATM    6  C   UNL     1       7.869  29.148  58.418  1.00  0.00     0.062 A 
HETATM    7  C   UNL     1       8.293  30.273  59.132  1.00  0.00     0.070 A 
HETATM    8  C   UNL     1       9.488  30.914  58.802  1.00  0.00     0.096 A 
HETATM    9  N   UNL     1       7.524  30.733  60.201  1.00  0.00    -0.323 N 
HETATM   10  O   UNL     1       9.984  31.995  59.473  1.00  0.00    -0.340 OA
HETATM   11  C   UNL     1      10.270  30.417  57.763  1.00  0.00     0.041 A 
HETATM   12  C   UNL     1       9.057  32.634  60.338  1.00  0.00     0.278 C 
HETATM   13  C   UNL     1       7.861  31.862  60.894  1.00  0.00     0.246 C 
HETATM   14  O   UNL     1       7.199  32.249  61.854  1.00  0.00    -0.271 OA
HETATM   15  C   UNL     1       9.848  29.293  57.048  1.00  0.00     0.032 A 
HETATM   16  H   UNL     1       6.697  30.234  60.502  1.00  0.00     0.169 HD
ENDBRANCH   2   5
BRANCH   1  17
HETATM   17  C   UNL     1       7.634  25.382  55.875  1.00  0.00     0.157 A 
HETATM   18  C   UNL     1       6.665  25.620  54.856  1.00  0.00     0.029 A 
HETATM   19  C   UNL     1       5.754  26.648  54.540  1.00  0.00     0.023 A 
HETATM   20  C   UNL     1       6.730  24.506  54.027  1.00  0.00     0.063 A 
HETATM   21  C   UNL     1       4.942  26.528  53.399  1.00  0.00    -0.061 A 
HETATM   22  C   UNL     1       3.972  27.615  53.038  1.00  0.00     0.048 C 
HETATM   23  C   UNL     1       5.035  25.384  52.595  1.00  0.00     0.009 A 
HETATM   24  C   UNL     1       5.930  24.350  52.893  1.00  0.00     0.032 A 
HETATM   25  N   UNL     1       7.690  23.703  54.578  1.00  0.00    -0.277 N 
HETATM   26  H   UNL     1       8.000  22.800  54.237  1.00  0.00     0.189 HD
HETATM   27  N   UNL     1       8.270  24.204  55.684  1.00  0.00    -0.168 NA
ENDBRANCH   1  17
TORSDOF 2
ENDMDL
MODEL 7
REMARK VINA RESULT:      -9.3      2.852      8.379
REMARK  2 active torsions:
REMARK  status: ('A' for Active; 'I' for Inactive)
REMARK    1  A    between atoms: C_9  and  C_10 
REMARK       I    between atoms: C_10  and  N_11 
REMARK    2  A    between atoms: N_11  and  C_12 
ROOT
HETATM    1  C   UNL     1       6.084  27.609  56.005  1.00  0.00     0.277 C 
HETATM    2  N   UNL     1       7.213  26.812  55.930  1.00  0.00    -0.322 N 
HETATM    3  O   UNL     1       5.026  27.421  55.416  1.00  0.00    -0.266 OA
HETATM    4  H   UNL     1       7.971  27.139  56.526  1.00  0.00     0.169 HD
ENDROOT
BRANCH   2   5
HETATM    5  C   UNL     1       7.409  25.638  55.185  1.00  0.00     0.037 A 
HETATM    6  C   UNL     1       7.544  24.369  55.756  1.00  0.00     0.062 A 
HETATM    7  C   UNL     1       7.747  23.252  54.940  1.00  0.00     0.070 A 
HETATM    8  C   UNL     1       7.817  23.390  53.553  1.00  0.00     0.096 A 
HETATM    9  N   UNL     1       7.850  21.990  55.525  1.00  0.00    -0.323 N 
HETATM   10  O   UNL     1       7.980  22.343  52.691  1.00  0.00    -0.340 OA
HETATM   11  C   UNL     1       7.667  24.648  52.979  1.00  0.00     0.041 A 
HETATM   12  C   UNL     1       8.391  21.128  53.301  1.00  0.00     0.278 C 
HETATM   13  C   UNL     1       8.107  20.873  54.781  1.00  0.00     0.246 C 
HETATM   14  O   UNL     1       8.167  19.758  55.293  1.00  0.00    -0.271 OA
HETATM   15  C   UNL     1       7.464  25.767  53.792  1.00  0.00     0.032 A 
HETATM   16  H   UNL     1       7.722  21.863  56.520  1.00  0.00     0.169 HD
ENDBRANCH   2   5
BRANCH   1  17
HETATM   17  C   UNL     1       6.285  28.747  56.922  1.00  0.00     0.157 A 
HETATM   18  C   UNL     1       7.520  29.355  57.293  1.00  0.00     0.029 A 
HETATM   19  C   UNL     1       8.882  29.160  56.984  1.00  0.00     0.023 A 
HETATM   20  C   UNL     1       7.173  30.379  58.166  1.00  0.00     0.063 A 
HETATM   21  C   UNL     1       9.850  30.003  57.556  1.00  0.00    -0.061 A 
HETATM   22  C   UNL     1      11.305  29.819  57.233  1.00  0.00     0.048 C 
HETATM   23  C   UNL     1       9.456  31.018  58.437  1.00  0.00     0.009 A 
HETATM   24  C   UNL     1       8.110  31.227  58.760  1.00  0.00     0.032 A 
HETATM   25  N   UNL     1       5.810  30.323  58.262  1.00  0.00    -0.277 N 
HETATM   26  H   UNL     1       5.212  30.922  58.820  1.00  0.00     0.189 HD
HETATM   27  N   UNL     1       5.236  29.363  57.514  1.00  0.00    -0.168 NA
ENDBRANCH   1  17
TORSDOF 2
ENDMDL
MODEL 8
REMARK VINA RESULT:      -9.2      4.663      6.931
REMARK  2 active torsions:
REMARK  status: ('A' for Active; 'I' for Inactive)
REMARK    1  A    between atoms: C_9  and  C_10 
REMARK       I    between atoms: C_10  and  N_11 
REMARK    2  A    between atoms: N_11  and  C_12 
ROOT
HETATM    1  C   UNL     1       6.050  32.121  59.640  1.00  0.00     0.277 C 
HETATM    2  N   UNL     1       6.447  31.523  60.824  1.00  0.00    -0.322 N 
HETATM    3  O   UNL     1       5.704  33.288  59.501  1.00  0.00    -0.266 OA
HETATM    4  H   UNL     1       6.720  30.549  60.705  1.00  0.00     0.169 HD
ENDROOT
BRANCH   2   5
HETATM    5  C   UNL     1       6.544  32.091  62.103  1.00  0.00     0.037 A 
HETATM    6  C   UNL     1       5.439  32.433  62.888  1.00  0.00     0.062 A 
HETATM    7  C   UNL     1       5.626  33.006  64.149  1.00  0.00     0.070 A 
HETATM    8  C   UNL     1       6.911  33.244  64.637  1.00  0.00     0.096 A 
HETATM    9  N   UNL     1       4.512  33.313  64.931  1.00  0.00    -0.323 N 
HETATM   10  O   UNL     1       7.173  33.769  65.871  1.00  0.00    -0.340 OA
HETATM   11  C   UNL     1       8.015  32.890  63.867  1.00  0.00     0.041 A 
HETATM   12  C   UNL     1       6.054  34.358  66.517  1.00  0.00     0.278 C 
HETATM   13  C   UNL     1       4.635  33.929  66.145  1.00  0.00     0.246 C 
HETATM   14  O   UNL     1       3.656  34.171  66.846  1.00  0.00    -0.271 OA
HETATM   15  C   UNL     1       7.831  32.317  62.606  1.00  0.00     0.032 A 
HETATM   16  H   UNL     1       3.578  33.076  64.625  1.00  0.00     0.169 HD
ENDBRANCH   2   5
BRANCH   1  17
HETATM   17  C   UNL     1       6.107  31.175  58.509  1.00  0.00     0.157 A 
HETATM   18  C   UNL     1       7.270  30.611  57.908  1.00  0.00     0.029 A 
HETATM   19  C   UNL     1       8.662  30.698  58.109  1.00  0.00     0.023 A 
HETATM   20  C   UNL     1       6.792  29.787  56.896  1.00  0.00     0.063 A 
HETATM   21  C   UNL     1       9.529  29.950  57.294  1.00  0.00    -0.061 A 
HETATM   22  C   UNL     1      11.015  30.020  57.498  1.00  0.00     0.048 C 
HETATM   23  C   UNL     1       9.004  29.138  56.281  1.00  0.00     0.009 A 
HETATM   24  C   UNL     1       7.625  29.040  56.061  1.00  0.00     0.032 A 
HETATM   25  N   UNL     1       5.430  29.905  56.950  1.00  0.00    -0.277 N 
HETATM   26  H   UNL     1       4.753  29.445  56.352  1.00  0.00     0.189 HD
HETATM   27  N   UNL     1       4.977  30.721  57.920  1.00  0.00    -0.168 NA
ENDBRANCH   1  17
TORSDOF 2
ENDMDL
MODEL 9
REMARK VINA RESULT:      -9.2      5.021     11.052
REMARK  2 active torsions:
REMARK  status: ('A' for Active; 'I' for Inactive)
REMARK    1  A    between atoms: C_9  and  C_10 
REMARK       I    between atoms: C_10  and  N_11 
REMARK    2  A    between atoms: N_11  and  C_12 
ROOT
HETATM    1  C   UNL     1       5.180  32.304  63.125  1.00  0.00     0.277 C 
HETATM    2  N   UNL     1       6.009  32.912  62.198  1.00  0.00    -0.322 N 
HETATM    3  O   UNL     1       5.095  31.101  63.340  1.00  0.00    -0.266 OA
HETATM    4  H   UNL     1       5.939  33.927  62.207  1.00  0.00     0.169 HD
ENDROOT
BRANCH   2   5
HETATM    5  C   UNL     1       6.920  32.314  61.313  1.00  0.00     0.037 A 
HETATM    6  C   UNL     1       6.557  31.746  60.089  1.00  0.00     0.062 A 
HETATM    7  C   UNL     1       7.528  31.161  59.272  1.00  0.00     0.070 A 
HETATM    8  C   UNL     1       8.866  31.136  59.667  1.00  0.00     0.096 A 
HETATM    9  N   UNL     1       7.152  30.626  58.040  1.00  0.00    -0.323 N 
HETATM   10  O   UNL     1       9.875  30.613  58.909  1.00  0.00    -0.340 OA
HETATM   11  C   UNL     1       9.236  31.715  60.878  1.00  0.00     0.041 A 
HETATM   12  C   UNL     1       9.446  29.806  57.823  1.00  0.00     0.278 C 
HETATM   13  C   UNL     1       8.050  29.989  57.229  1.00  0.00     0.246 C 
HETATM   14  O   UNL     1       7.723  29.546  56.132  1.00  0.00    -0.271 OA
HETATM   15  C   UNL     1       8.267  32.300  61.697  1.00  0.00     0.032 A 
HETATM   16  H   UNL     1       6.201  30.706  57.705  1.00  0.00     0.169 HD
ENDBRANCH   2   5
BRANCH   1  17
HETATM   17  C   UNL     1       4.386  33.297  63.875  1.00  0.00     0.157 A 
HETATM   18  C   UNL     1       4.713  33.905  65.123  1.00  0.00     0.029 A 
HETATM   19  C   UNL     1       5.782  33.832  66.040  1.00  0.00     0.023 A 
HETATM   20  C   UNL     1       3.654  34.761  65.398  1.00  0.00     0.063 A 
HETATM   21  C   UNL     1       5.756  34.627  67.199  1.00  0.00    -0.061 A 
HETATM   22  C   UNL     1       6.889  34.573  68.183  1.00  0.00     0.048 C 
HETATM   23  C   UNL     1       4.665  35.471  67.439  1.00  0.00     0.009 A 
HETATM   24  C   UNL     1       3.592  35.555  66.545  1.00  0.00     0.032 A 
HETATM   25  N   UNL     1       2.794  34.618  64.345  1.00  0.00    -0.277 N 
HETATM   26  H   UNL     1       1.908  35.091  64.212  1.00  0.00     0.189 HD
HETATM   27  N   UNL     1       3.208  33.756  63.397  1.00  0.00    -0.168 NA
ENDBRANCH   1  17
TORSDOF 2
ENDMDL
MODEL 10
REMARK VINA RESULT:      -9.2      3.918      6.243
REMARK  2 active torsions:
REMARK  status: ('A' for Active; 'I' for Inactive)
REMARK    1  A    between atoms: C_9  and  C_10 
REMARK       I    between atoms: C_10  and  N_11 
REMARK    2  A    between atoms: N_11  and  C_12 
ROOT
HETATM    1  C   UNL     1       7.391  31.378  59.343  1.00  0.00     0.277 C 
HETATM    2  N   UNL     1       7.552  31.021  60.671  1.00  0.00    -0.322 N 
HETATM    3  O   UNL     1       6.907  32.425  58.929  1.00  0.00    -0.266 OA
HETATM    4  H   UNL     1       8.003  30.116  60.788  1.00  0.00     0.169 HD
ENDROOT
BRANCH   2   5
HETATM    5  C   UNL     1       7.210  31.750  61.821  1.00  0.00     0.037 A 
HETATM    6  C   UNL     1       5.903  32.119  62.148  1.00  0.00     0.062 A 
HETATM    7  C   UNL     1       5.652  32.855  63.310  1.00  0.00     0.070 A 
HETATM    8  C   UNL     1       6.700  33.229  64.153  1.00  0.00     0.096 A 
HETATM    9  N   UNL     1       4.338  33.189  63.636  1.00  0.00    -0.323 N 
HETATM   10  O   UNL     1       6.529  33.918  65.320  1.00  0.00    -0.340 OA
HETATM   11  C   UNL     1       8.001  32.850  63.840  1.00  0.00     0.041 A 
HETATM   12  C   UNL     1       5.250  34.514  65.478  1.00  0.00     0.278 C 
HETATM   13  C   UNL     1       4.041  33.957  64.727  1.00  0.00     0.246 C 
HETATM   14  O   UNL     1       2.882  34.224  65.030  1.00  0.00    -0.271 OA
HETATM   15  C   UNL     1       8.255  32.114  62.680  1.00  0.00     0.032 A 
HETATM   16  H   UNL     1       3.561  32.859  63.078  1.00  0.00     0.169 HD
ENDBRANCH   2   5
BRANCH   1  17
HETATM   17  C   UNL     1       7.901  30.332  58.436  1.00  0.00     0.157 A 
HETATM   18  C   UNL     1       7.157  29.567  57.489  1.00  0.00     0.029 A 
HETATM   19  C   UNL     1       5.813  29.496  57.072  1.00  0.00     0.023 A 
HETATM   20  C   UNL     1       8.089  28.730  56.888  1.00  0.00     0.063 A 
HETATM   21  C   UNL     1       5.448  28.592  56.060  1.00  0.00    -0.061 A 
HETATM   22  C   UNL     1       4.023  28.507  55.593  1.00  0.00     0.048 C 
HETATM   23  C   UNL     1       6.419  27.761  55.486  1.00  0.00     0.009 A 
HETATM   24  C   UNL     1       7.758  27.812  55.889  1.00  0.00     0.032 A 
HETATM   25  N   UNL     1       9.281  29.029  57.487  1.00  0.00    -0.277 N 
HETATM   26  H   UNL     1      10.183  28.607  57.298  1.00  0.00     0.189 HD
HETATM   27  N   UNL     1       9.212  30.002  58.414  1.00  0.00    -0.168 NA
ENDBRANCH   1  17
TORSDOF 2
ENDMDL
