MODEL 1
REMARK VINA RESULT:     -10.2      0.000      0.000
REMARK  6 active torsions:
REMARK  status: ('A' for Active; 'I' for Inactive)
REMARK    1  A    between atoms: C_4  and  C_5 
REMARK    2  A    between atoms: C_5  and  N_6 
REMARK    3  A    between atoms: C_10  and  C_11 
REMARK    4  A    between atoms: C_11  and  C_12 
REMARK    5  A    between atoms: N_21  and  C_22 
REMARK    6  A    between atoms: C_22  and  C_23 
ROOT
HETATM    1  C   UNL     1       6.676  25.176  54.931  1.00  0.00     0.164 A 
HETATM    2  N   UNL     1       7.677  26.183  54.605  1.00  0.00    -0.319 N 
HETATM    3  C   UNL     1       7.230  27.070  53.654  1.00  0.00     0.326 A 
HETATM    4  O   UNL     1       7.937  27.946  53.189  1.00  0.00    -0.247 OA
HETATM    5  N   UNL     1       5.926  26.821  53.393  1.00  0.00    -0.265 N 
HETATM    6  C   UNL     1       5.517  25.690  54.048  1.00  0.00     0.263 A 
HETATM    7  O   UNL     1       4.397  25.202  54.003  1.00  0.00    -0.270 OA
HETATM    8  H   UNL     1       8.644  25.887  54.487  1.00  0.00     0.166 HD
ENDROOT
BRANCH   1   9
HETATM    9  C   UNL     1       6.259  25.210  56.446  1.00  0.00     0.033 C 
HETATM   10  C   UNL     1       5.141  26.209  56.801  1.00  0.00     0.036 C 
HETATM   11  C   UNL     1       5.567  27.668  56.750  1.00  0.00     0.235 C 
HETATM   12  N   UNL     1       6.827  27.927  57.542  1.00  0.00    -0.067 N 
HETATM   13  H   UNL     1       6.538  27.938  58.527  1.00  0.00     0.280 HD
HETATM   14  C   UNL     1       7.931  26.901  57.406  1.00  0.00     0.235 C 
HETATM   15  C   UNL     1       7.398  25.477  57.448  1.00  0.00     0.036 C 
BRANCH  12  16
HETATM   16  C   UNL     1       7.404  29.317  57.254  1.00  0.00     0.274 C 
BRANCH  16  17
HETATM   17  C   UNL     1       7.362  30.282  58.412  1.00  0.00    -0.026 A 
HETATM   18  C   UNL     1       8.318  30.127  59.440  1.00  0.00     0.016 A 
HETATM   19  C   UNL     1       8.376  31.008  60.523  1.00  0.00    -0.061 A 
HETATM   20  C   UNL     1       9.413  30.850  61.598  1.00  0.00     0.048 C 
HETATM   21  C   UNL     1       7.457  32.055  60.587  1.00  0.00     0.007 A 
HETATM   22  C   UNL     1       6.493  32.211  59.589  1.00  0.00     0.008 A 
HETATM   23  C   UNL     1       6.437  31.342  58.488  1.00  0.00    -0.054 A 
HETATM   24  C   UNL     1       5.333  31.531  57.483  1.00  0.00     0.049 C 
ENDBRANCH  16  17
ENDBRANCH  12  16
ENDBRANCH   1   9
BRANCH   1  25
HETATM   25  C   UNL     1       7.206  23.810  54.510  1.00  0.00     0.072 A 
HETATM   26  N   UNL     1       7.289  22.890  55.519  1.00  0.00    -0.262 NA
HETATM   27  C   UNL     1       7.750  21.656  55.206  1.00  0.00     0.117 A 
HETATM   28  C   UNL     1       8.131  21.279  53.933  1.00  0.00     0.019 A 
HETATM   29  C   UNL     1       8.030  22.219  52.915  1.00  0.00     0.003 A 
HETATM   30  C   UNL     1       7.554  23.497  53.198  1.00  0.00     0.030 A 
ENDBRANCH   1  25
BRANCH   5  31
HETATM   31  C   UNL     1       5.083  27.646  52.550  1.00  0.00     0.168 C 
BRANCH  31  32
HETATM   32  C   UNL     1       5.316  27.462  51.051  1.00  0.00     0.140 C 
HETATM   33  O   UNL     1       4.487  28.399  50.335  1.00  0.00    -0.384 OA
HETATM   34  C   UNL     1       3.833  27.707  49.262  1.00  0.00     0.168 C 
HETATM   35  C   UNL     1       4.551  26.385  49.106  1.00  0.00     0.029 C 
HETATM   36  C   UNL     1       4.950  26.081  50.528  1.00  0.00     0.036 C 
ENDBRANCH  31  32
ENDBRANCH   5  31
TORSDOF 6
ENDMDL
MODEL 2
REMARK VINA RESULT:     -10.2      2.575      8.473
REMARK  6 active torsions:
REMARK  status: ('A' for Active; 'I' for Inactive)
REMARK    1  A    between atoms: C_4  and  C_5 
REMARK    2  A    between atoms: C_5  and  N_6 
REMARK    3  A    between atoms: C_10  and  C_11 
REMARK    4  A    between atoms: C_11  and  C_12 
REMARK    5  A    between atoms: N_21  and  C_22 
REMARK    6  A    between atoms: C_22  and  C_23 
ROOT
HETATM    1  C   UNL     1       5.384  29.471  55.680  1.00  0.00     0.164 A 
HETATM    2  N   UNL     1       6.711  29.312  55.103  1.00  0.00    -0.319 N 
HETATM    3  C   UNL     1       7.703  29.381  56.053  1.00  0.00     0.326 A 
HETATM    4  O   UNL     1       8.887  29.344  55.772  1.00  0.00    -0.247 OA
HETATM    5  N   UNL     1       7.136  29.448  57.280  1.00  0.00    -0.265 N 
HETATM    6  C   UNL     1       5.777  29.565  57.171  1.00  0.00     0.263 A 
HETATM    7  O   UNL     1       4.989  29.657  58.103  1.00  0.00    -0.270 OA
HETATM    8  H   UNL     1       6.924  29.796  54.233  1.00  0.00     0.166 HD
ENDROOT
BRANCH   1   9
HETATM    9  C   UNL     1       4.467  28.217  55.439  1.00  0.00     0.033 C 
HETATM   10  C   UNL     1       4.573  27.108  56.503  1.00  0.00     0.036 C 
HETATM   11  C   UNL     1       5.878  26.327  56.465  1.00  0.00     0.235 C 
HETATM   12  N   UNL     1       6.199  25.813  55.082  1.00  0.00    -0.067 N 
HETATM   13  H   UNL     1       5.588  25.001  54.939  1.00  0.00     0.280 HD
HETATM   14  C   UNL     1       5.956  26.770  53.934  1.00  0.00     0.235 C 
HETATM   15  C   UNL     1       4.639  27.515  54.079  1.00  0.00     0.036 C 
BRANCH  12  16
HETATM   16  C   UNL     1       7.635  25.285  54.991  1.00  0.00     0.274 C 
BRANCH  16  17
HETATM   17  C   UNL     1       7.764  23.854  54.532  1.00  0.00    -0.026 A 
HETATM   18  C   UNL     1       7.777  22.840  55.516  1.00  0.00     0.016 A 
HETATM   19  C   UNL     1       7.846  21.488  55.171  1.00  0.00    -0.061 A 
HETATM   20  C   UNL     1       7.833  20.416  56.223  1.00  0.00     0.048 C 
HETATM   21  C   UNL     1       7.913  21.141  53.822  1.00  0.00     0.007 A 
HETATM   22  C   UNL     1       7.922  22.132  52.837  1.00  0.00     0.008 A 
HETATM   23  C   UNL     1       7.836  23.492  53.172  1.00  0.00    -0.054 A 
HETATM   24  C   UNL     1       7.912  24.508  52.065  1.00  0.00     0.049 C 
ENDBRANCH  16  17
ENDBRANCH  12  16
ENDBRANCH   1   9
BRANCH   1  25
HETATM   25  C   UNL     1       4.765  30.751  55.129  1.00  0.00     0.072 A 
HETATM   26  N   UNL     1       5.181  31.901  55.744  1.00  0.00    -0.262 NA
HETATM   27  C   UNL     1       4.668  33.071  55.296  1.00  0.00     0.117 A 
HETATM   28  C   UNL     1       3.762  33.165  54.258  1.00  0.00     0.019 A 
HETATM   29  C   UNL     1       3.358  31.992  53.634  1.00  0.00     0.003 A 
HETATM   30  C   UNL     1       3.868  30.769  54.064  1.00  0.00     0.030 A 
ENDBRANCH   1  25
BRANCH   5  31
HETATM   31  C   UNL     1       7.870  29.388  58.529  1.00  0.00     0.168 C 
BRANCH  31  32
HETATM   32  C   UNL     1       7.997  30.728  59.252  1.00  0.00     0.140 C 
HETATM   33  O   UNL     1       8.883  31.580  58.498  1.00  0.00    -0.384 OA
HETATM   34  C   UNL     1       9.818  32.185  59.402  1.00  0.00     0.168 C 
HETATM   35  C   UNL     1       9.269  31.967  60.794  1.00  0.00     0.029 C 
HETATM   36  C   UNL     1       8.587  30.629  60.651  1.00  0.00     0.036 C 
ENDBRANCH  31  32
ENDBRANCH   5  31
TORSDOF 6
ENDMDL
MODEL 3
REMARK VINA RESULT:      -9.7      2.503      8.218
REMARK  6 active torsions:
REMARK  status: ('A' for Active; 'I' for Inactive)
REMARK    1  A    between atoms: C_4  and  C_5 
REMARK    2  A    between atoms: C_5  and  N_6 
REMARK    3  A    between atoms: C_10  and  C_11 
REMARK    4  A    between atoms: C_11  and  C_12 
REMARK    5  A    between atoms: N_21  and  C_22 
REMARK    6  A    between atoms: C_22  and  C_23 
ROOT
HETATM    1  C   UNL     1       6.646  26.927  54.662  1.00  0.00     0.164 A 
HETATM    2  N   UNL     1       7.374  26.811  53.406  1.00  0.00    -0.319 N 
HETATM    3  C   UNL     1       7.716  25.510  53.122  1.00  0.00     0.326 A 
HETATM    4  O   UNL     1       8.390  25.203  52.155  1.00  0.00    -0.247 OA
HETATM    5  N   UNL     1       7.154  24.693  54.043  1.00  0.00    -0.265 N 
HETATM    6  C   UNL     1       6.551  25.429  55.027  1.00  0.00     0.263 A 
HETATM    7  O   UNL     1       5.967  24.978  56.003  1.00  0.00    -0.270 OA
HETATM    8  H   UNL     1       8.099  27.494  53.199  1.00  0.00     0.166 HD
ENDROOT
BRANCH   1   9
HETATM    9  C   UNL     1       5.207  27.531  54.471  1.00  0.00     0.033 C 
HETATM   10  C   UNL     1       4.251  26.696  53.598  1.00  0.00     0.036 C 
HETATM   11  C   UNL     1       4.593  26.701  52.116  1.00  0.00     0.235 C 
HETATM   12  N   UNL     1       4.776  28.097  51.573  1.00  0.00    -0.067 N 
HETATM   13  H   UNL     1       3.829  28.478  51.462  1.00  0.00     0.280 HD
HETATM   14  C   UNL     1       5.553  29.062  52.444  1.00  0.00     0.235 C 
HETATM   15  C   UNL     1       5.152  28.963  53.907  1.00  0.00     0.036 C 
BRANCH  12  16
HETATM   16  C   UNL     1       5.396  28.086  50.171  1.00  0.00     0.274 C 
BRANCH  16  17
HETATM   17  C   UNL     1       4.464  27.670  49.061  1.00  0.00    -0.026 A 
HETATM   18  C   UNL     1       4.146  26.298  48.941  1.00  0.00     0.016 A 
HETATM   19  C   UNL     1       3.255  25.837  47.969  1.00  0.00    -0.061 A 
HETATM   20  C   UNL     1       2.904  24.380  47.866  1.00  0.00     0.048 C 
HETATM   21  C   UNL     1       2.676  26.759  47.097  1.00  0.00     0.007 A 
HETATM   22  C   UNL     1       2.994  28.115  47.189  1.00  0.00     0.008 A 
HETATM   23  C   UNL     1       3.876  28.591  48.172  1.00  0.00    -0.054 A 
HETATM   24  C   UNL     1       4.221  30.056  48.175  1.00  0.00     0.049 C 
ENDBRANCH  16  17
ENDBRANCH  12  16
ENDBRANCH   1   9
BRANCH   1  25
HETATM   25  C   UNL     1       7.488  27.742  55.637  1.00  0.00     0.072 A 
HETATM   26  N   UNL     1       8.419  28.555  55.051  1.00  0.00    -0.262 NA
HETATM   27  C   UNL     1       9.196  29.307  55.866  1.00  0.00     0.117 A 
HETATM   28  C   UNL     1       9.094  29.301  57.244  1.00  0.00     0.019 A 
HETATM   29  C   UNL     1       8.135  28.481  57.826  1.00  0.00     0.003 A 
HETATM   30  C   UNL     1       7.314  27.698  57.018  1.00  0.00     0.030 A 
ENDBRANCH   1  25
BRANCH   5  31
HETATM   31  C   UNL     1       7.178  23.245  53.982  1.00  0.00     0.168 C 
BRANCH  31  32
HETATM   32  C   UNL     1       8.309  22.598  54.782  1.00  0.00     0.140 C 
HETATM   33  O   UNL     1       8.866  21.518  54.007  1.00  0.00    -0.384 OA
HETATM   34  C   UNL     1       9.010  20.370  54.856  1.00  0.00     0.168 C 
HETATM   35  C   UNL     1       8.860  20.868  56.277  1.00  0.00     0.029 C 
HETATM   36  C   UNL     1       7.869  21.992  56.107  1.00  0.00     0.036 C 
ENDBRANCH  31  32
ENDBRANCH   5  31
TORSDOF 6
ENDMDL
MODEL 4
REMARK VINA RESULT:      -9.6      2.149      7.634
REMARK  6 active torsions:
REMARK  status: ('A' for Active; 'I' for Inactive)
REMARK    1  A    between atoms: C_4  and  C_5 
REMARK    2  A    between atoms: C_5  and  N_6 
REMARK    3  A    between atoms: C_10  and  C_11 
REMARK    4  A    between atoms: C_11  and  C_12 
REMARK    5  A    between atoms: N_21  and  C_22 
REMARK    6  A    between atoms: C_22  and  C_23 
ROOT
HETATM    1  C   UNL     1       5.308  28.197  52.948  1.00  0.00     0.164 A 
HETATM    2  N   UNL     1       6.759  28.070  52.945  1.00  0.00    -0.319 N 
HETATM    3  C   UNL     1       7.298  28.237  54.199  1.00  0.00     0.326 A 
HETATM    4  O   UNL     1       8.498  28.239  54.404  1.00  0.00    -0.247 OA
HETATM    5  N   UNL     1       6.295  28.343  55.101  1.00  0.00    -0.265 N 
HETATM    6  C   UNL     1       5.084  28.390  54.464  1.00  0.00     0.263 A 
HETATM    7  O   UNL     1       3.993  28.495  55.007  1.00  0.00    -0.270 OA
HETATM    8  H   UNL     1       7.285  28.515  52.196  1.00  0.00     0.166 HD
ENDROOT
BRANCH   1   9
HETATM    9  C   UNL     1       4.587  26.890  52.456  1.00  0.00     0.033 C 
HETATM   10  C   UNL     1       4.484  25.760  53.498  1.00  0.00     0.036 C 
HETATM   11  C   UNL     1       5.804  25.073  53.809  1.00  0.00     0.235 C 
HETATM   12  N   UNL     1       6.525  24.623  52.561  1.00  0.00    -0.067 N 
HETATM   13  H   UNL     1       6.038  23.775  52.250  1.00  0.00     0.280 HD
HETATM   14  C   UNL     1       6.531  25.593  51.399  1.00  0.00     0.235 C 
HETATM   15  C   UNL     1       5.172  26.241  51.187  1.00  0.00     0.036 C 
BRANCH  12  16
HETATM   16  C   UNL     1       7.968  24.198  52.859  1.00  0.00     0.274 C 
BRANCH  16  17
HETATM   17  C   UNL     1       8.157  23.426  54.141  1.00  0.00    -0.026 A 
HETATM   18  C   UNL     1       8.423  24.156  55.321  1.00  0.00     0.016 A 
HETATM   19  C   UNL     1       8.565  23.520  56.557  1.00  0.00    -0.061 A 
HETATM   20  C   UNL     1       8.823  24.306  57.810  1.00  0.00     0.048 C 
HETATM   21  C   UNL     1       8.448  22.131  56.615  1.00  0.00     0.007 A 
HETATM   22  C   UNL     1       8.205  21.393  55.455  1.00  0.00     0.008 A 
HETATM   23  C   UNL     1       8.044  22.024  54.211  1.00  0.00    -0.054 A 
HETATM   24  C   UNL     1       7.846  21.163  52.993  1.00  0.00     0.049 C 
ENDBRANCH  16  17
ENDBRANCH  12  16
ENDBRANCH   1   9
BRANCH   1  25
HETATM   25  C   UNL     1       4.926  29.414  52.114  1.00  0.00     0.072 A 
HETATM   26  N   UNL     1       5.813  29.731  51.121  1.00  0.00    -0.262 NA
HETATM   27  C   UNL     1       5.527  30.802  50.343  1.00  0.00     0.117 A 
HETATM   28  C   UNL     1       4.394  31.579  50.493  1.00  0.00     0.019 A 
HETATM   29  C   UNL     1       3.496  31.238  51.496  1.00  0.00     0.003 A 
HETATM   30  C   UNL     1       3.754  30.140  52.312  1.00  0.00     0.030 A 
ENDBRANCH   1  25
BRANCH   5  31
HETATM   31  C   UNL     1       6.482  28.385  56.538  1.00  0.00     0.168 C 
BRANCH  31  32
HETATM   32  C   UNL     1       7.105  29.681  57.056  1.00  0.00     0.140 C 
HETATM   33  O   UNL     1       8.212  29.352  57.918  1.00  0.00    -0.384 OA
HETATM   34  C   UNL     1       8.117  30.143  59.111  1.00  0.00     0.168 C 
HETATM   35  C   UNL     1       7.115  31.238  58.818  1.00  0.00     0.029 C 
HETATM   36  C   UNL     1       6.160  30.540  57.883  1.00  0.00     0.036 C 
ENDBRANCH  31  32
ENDBRANCH   5  31
TORSDOF 6
ENDMDL
MODEL 5
REMARK VINA RESULT:      -8.7      2.028      8.163
REMARK  6 active torsions:
REMARK  status: ('A' for Active; 'I' for Inactive)
REMARK    1  A    between atoms: C_4  and  C_5 
REMARK    2  A    between atoms: C_5  and  N_6 
REMARK    3  A    between atoms: C_10  and  C_11 
REMARK    4  A    between atoms: C_11  and  C_12 
REMARK    5  A    between atoms: N_21  and  C_22 
REMARK    6  A    between atoms: C_22  and  C_23 
ROOT
HETATM    1  C   UNL     1       5.702  28.998  55.750  1.00  0.00     0.164 A 
HETATM    2  N   UNL     1       6.766  29.206  54.779  1.00  0.00    -0.319 N 
HETATM    3  C   UNL     1       7.627  28.136  54.714  1.00  0.00     0.326 A 
HETATM    4  O   UNL     1       8.626  28.137  54.017  1.00  0.00    -0.247 OA
HETATM    5  N   UNL     1       7.150  27.136  55.491  1.00  0.00    -0.265 N 
HETATM    6  C   UNL     1       6.052  27.559  56.190  1.00  0.00     0.263 A 
HETATM    7  O   UNL     1       5.406  26.888  56.983  1.00  0.00    -0.270 OA
HETATM    8  H   UNL     1       7.220  30.117  54.741  1.00  0.00     0.166 HD
ENDROOT
BRANCH   1   9
HETATM    9  C   UNL     1       4.273  29.031  55.096  1.00  0.00     0.033 C 
HETATM   10  C   UNL     1       3.781  27.692  54.515  1.00  0.00     0.036 C 
HETATM   11  C   UNL     1       4.498  27.262  53.243  1.00  0.00     0.235 C 
HETATM   12  N   UNL     1       4.523  28.353  52.201  1.00  0.00    -0.067 N 
HETATM   13  H   UNL     1       3.583  28.366  51.790  1.00  0.00     0.280 HD
HETATM   14  C   UNL     1       4.820  29.752  52.696  1.00  0.00     0.235 C 
HETATM   15  C   UNL     1       4.073  30.075  53.981  1.00  0.00     0.036 C 
BRANCH  12  16
HETATM   16  C   UNL     1       5.483  28.021  51.053  1.00  0.00     0.274 C 
BRANCH  16  17
HETATM   17  C   UNL     1       4.825  27.768  49.719  1.00  0.00    -0.026 A 
HETATM   18  C   UNL     1       4.330  26.471  49.458  1.00  0.00     0.016 A 
HETATM   19  C   UNL     1       3.667  26.168  48.267  1.00  0.00    -0.061 A 
HETATM   20  C   UNL     1       3.122  24.792  48.009  1.00  0.00     0.048 C 
HETATM   21  C   UNL     1       3.501  27.174  47.315  1.00  0.00     0.007 A 
HETATM   22  C   UNL     1       4.001  28.457  47.549  1.00  0.00     0.008 A 
HETATM   23  C   UNL     1       4.655  28.776  48.750  1.00  0.00    -0.054 A 
HETATM   24  C   UNL     1       5.222  30.161  48.908  1.00  0.00     0.049 C 
ENDBRANCH  16  17
ENDBRANCH  12  16
ENDBRANCH   1   9
BRANCH   1  25
HETATM   25  C   UNL     1       5.850  30.030  56.862  1.00  0.00     0.072 A 
HETATM   26  N   UNL     1       4.697  30.687  57.194  1.00  0.00    -0.262 NA
HETATM   27  C   UNL     1       4.764  31.615  58.178  1.00  0.00     0.117 A 
HETATM   28  C   UNL     1       5.924  31.924  58.862  1.00  0.00     0.019 A 
HETATM   29  C   UNL     1       7.085  31.241  58.525  1.00  0.00     0.003 A 
HETATM   30  C   UNL     1       7.052  30.275  57.522  1.00  0.00     0.030 A 
ENDBRANCH   1  25
BRANCH   5  31
HETATM   31  C   UNL     1       7.717  25.803  55.556  1.00  0.00     0.168 C 
BRANCH  31  32
HETATM   32  C   UNL     1       7.109  24.809  54.567  1.00  0.00     0.140 C 
HETATM   33  O   UNL     1       7.060  23.509  55.188  1.00  0.00    -0.384 OA
HETATM   34  C   UNL     1       7.558  22.537  54.257  1.00  0.00     0.168 C 
HETATM   35  C   UNL     1       7.586  23.215  52.905  1.00  0.00     0.029 C 
HETATM   36  C   UNL     1       7.906  24.640  53.282  1.00  0.00     0.036 C 
ENDBRANCH  31  32
ENDBRANCH   5  31
TORSDOF 6
ENDMDL
MODEL 6
REMARK VINA RESULT:      -8.7      2.024      5.235
REMARK  6 active torsions:
REMARK  status: ('A' for Active; 'I' for Inactive)
REMARK    1  A    between atoms: C_4  and  C_5 
REMARK    2  A    between atoms: C_5  and  N_6 
REMARK    3  A    between atoms: C_10  and  C_11 
REMARK    4  A    between atoms: C_11  and  C_12 
REMARK    5  A    between atoms: N_21  and  C_22 
REMARK    6  A    between atoms: C_22  and  C_23 
ROOT
HETATM    1  C   UNL     1       4.866  27.785  53.912  1.00  0.00     0.164 A 
HETATM    2  N   UNL     1       4.262  26.612  53.296  1.00  0.00    -0.319 N 
HETATM    3  C   UNL     1       5.194  25.649  52.989  1.00  0.00     0.326 A 
HETATM    4  O   UNL     1       4.907  24.620  52.404  1.00  0.00    -0.247 OA
HETATM    5  N   UNL     1       6.399  26.027  53.475  1.00  0.00    -0.265 N 
HETATM    6  C   UNL     1       6.330  27.295  53.985  1.00  0.00     0.263 A 
HETATM    7  O   UNL     1       7.256  27.918  54.486  1.00  0.00    -0.270 OA
HETATM    8  H   UNL     1       3.545  26.750  52.587  1.00  0.00     0.166 HD
ENDROOT
BRANCH   1   9
HETATM    9  C   UNL     1       4.314  28.060  55.358  1.00  0.00     0.033 C 
HETATM   10  C   UNL     1       4.734  29.404  55.981  1.00  0.00     0.036 C 
HETATM   11  C   UNL     1       6.199  29.475  56.385  1.00  0.00     0.235 C 
HETATM   12  N   UNL     1       6.617  28.303  57.239  1.00  0.00    -0.067 N 
HETATM   13  H   UNL     1       6.242  28.495  58.176  1.00  0.00     0.280 HD
HETATM   14  C   UNL     1       6.103  26.943  56.816  1.00  0.00     0.235 C 
HETATM   15  C   UNL     1       4.638  26.985  56.413  1.00  0.00     0.036 C 
BRANCH  12  16
HETATM   16  C   UNL     1       8.140  28.229  57.399  1.00  0.00     0.274 C 
BRANCH  16  17
HETATM   17  C   UNL     1       8.787  29.471  57.959  1.00  0.00    -0.026 A 
HETATM   18  C   UNL     1       8.321  29.961  59.199  1.00  0.00     0.016 A 
HETATM   19  C   UNL     1       8.898  31.078  59.808  1.00  0.00    -0.061 A 
HETATM   20  C   UNL     1       8.412  31.576  61.139  1.00  0.00     0.048 C 
HETATM   21  C   UNL     1       9.954  31.723  59.163  1.00  0.00     0.007 A 
HETATM   22  C   UNL     1      10.414  31.264  57.928  1.00  0.00     0.008 A 
HETATM   23  C   UNL     1       9.851  30.133  57.316  1.00  0.00    -0.054 A 
HETATM   24  C   UNL     1      10.355  29.731  55.956  1.00  0.00     0.049 C 
ENDBRANCH  16  17
ENDBRANCH  12  16
ENDBRANCH   1   9
BRANCH   1  25
HETATM   25  C   UNL     1       4.667  28.978  52.983  1.00  0.00     0.072 A 
HETATM   26  N   UNL     1       5.528  29.029  51.921  1.00  0.00    -0.262 NA
HETATM   27  C   UNL     1       5.398  30.064  51.058  1.00  0.00     0.117 A 
HETATM   28  C   UNL     1       4.447  31.057  51.188  1.00  0.00     0.019 A 
HETATM   29  C   UNL     1       3.571  30.987  52.264  1.00  0.00     0.003 A 
HETATM   30  C   UNL     1       3.670  29.933  53.169  1.00  0.00     0.030 A 
ENDBRANCH   1  25
BRANCH   5  31
HETATM   31  C   UNL     1       7.587  25.197  53.465  1.00  0.00     0.168 C 
BRANCH  31  32
HETATM   32  C   UNL     1       7.463  23.907  54.277  1.00  0.00     0.140 C 
HETATM   33  O   UNL     1       8.499  23.888  55.279  1.00  0.00    -0.384 OA
HETATM   34  C   UNL     1       9.121  22.595  55.271  1.00  0.00     0.168 C 
HETATM   35  C   UNL     1       8.205  21.686  54.481  1.00  0.00     0.029 C 
HETATM   36  C   UNL     1       7.634  22.636  53.459  1.00  0.00     0.036 C 
ENDBRANCH  31  32
ENDBRANCH   5  31
TORSDOF 6
ENDMDL
MODEL 7
REMARK VINA RESULT:      -8.6      2.641      6.287
REMARK  6 active torsions:
REMARK  status: ('A' for Active; 'I' for Inactive)
REMARK    1  A    between atoms: C_4  and  C_5 
REMARK    2  A    between atoms: C_5  and  N_6 
REMARK    3  A    between atoms: C_10  and  C_11 
REMARK    4  A    between atoms: C_11  and  C_12 
REMARK    5  A    between atoms: N_21  and  C_22 
REMARK    6  A    between atoms: C_22  and  C_23 
ROOT
HETATM    1  C   UNL     1       7.441  24.451  54.542  1.00  0.00     0.164 A 
HETATM    2  N   UNL     1       6.039  24.690  54.853  1.00  0.00    -0.319 N 
HETATM    3  C   UNL     1       5.865  25.187  56.123  1.00  0.00     0.326 A 
HETATM    4  O   UNL     1       4.765  25.389  56.605  1.00  0.00    -0.247 OA
HETATM    5  N   UNL     1       7.078  25.434  56.671  1.00  0.00    -0.265 N 
HETATM    6  C   UNL     1       8.073  24.982  55.848  1.00  0.00     0.263 A 
HETATM    7  O   UNL     1       9.274  25.050  56.072  1.00  0.00    -0.270 OA
HETATM    8  H   UNL     1       5.353  23.991  54.574  1.00  0.00     0.166 HD
ENDROOT
BRANCH   1   9
HETATM    9  C   UNL     1       7.940  25.297  53.315  1.00  0.00     0.033 C 
HETATM   10  C   UNL     1       7.901  26.825  53.508  1.00  0.00     0.036 C 
HETATM   11  C   UNL     1       6.501  27.419  53.516  1.00  0.00     0.235 C 
HETATM   12  N   UNL     1       5.684  26.981  52.325  1.00  0.00    -0.067 N 
HETATM   13  H   UNL     1       6.027  27.537  51.534  1.00  0.00     0.280 HD
HETATM   14  C   UNL     1       5.791  25.522  51.934  1.00  0.00     0.235 C 
HETATM   15  C   UNL     1       7.226  25.022  51.978  1.00  0.00     0.036 C 
BRANCH  12  16
HETATM   16  C   UNL     1       4.203  27.342  52.487  1.00  0.00     0.274 C 
BRANCH  16  17
HETATM   17  C   UNL     1       3.779  28.625  51.816  1.00  0.00    -0.026 A 
HETATM   18  C   UNL     1       3.501  29.742  52.636  1.00  0.00     0.016 A 
HETATM   19  C   UNL     1       3.148  30.978  52.090  1.00  0.00    -0.061 A 
HETATM   20  C   UNL     1       2.878  32.166  52.969  1.00  0.00     0.048 C 
HETATM   21  C   UNL     1       3.061  31.101  50.703  1.00  0.00     0.007 A 
HETATM   22  C   UNL     1       3.313  30.002  49.880  1.00  0.00     0.008 A 
HETATM   23  C   UNL     1       3.685  28.759  50.417  1.00  0.00    -0.054 A 
HETATM   24  C   UNL     1       3.882  27.603  49.475  1.00  0.00     0.049 C 
ENDBRANCH  16  17
ENDBRANCH  12  16
ENDBRANCH   1   9
BRANCH   1  25
HETATM   25  C   UNL     1       7.643  22.955  54.330  1.00  0.00     0.072 A 
HETATM   26  N   UNL     1       7.616  22.204  55.474  1.00  0.00    -0.262 NA
HETATM   27  C   UNL     1       7.787  20.866  55.349  1.00  0.00     0.117 A 
HETATM   28  C   UNL     1       7.978  20.226  54.140  1.00  0.00     0.019 A 
HETATM   29  C   UNL     1       7.990  20.998  52.986  1.00  0.00     0.003 A 
HETATM   30  C   UNL     1       7.811  22.377  53.074  1.00  0.00     0.030 A 
ENDBRANCH   1  25
BRANCH   5  31
HETATM   31  C   UNL     1       7.285  26.096  57.944  1.00  0.00     0.168 C 
BRANCH  31  32
HETATM   32  C   UNL     1       7.410  27.616  57.852  1.00  0.00     0.140 C 
HETATM   33  O   UNL     1       6.120  28.169  57.522  1.00  0.00    -0.384 OA
HETATM   34  C   UNL     1       6.289  29.133  56.473  1.00  0.00     0.168 C 
HETATM   35  C   UNL     1       7.770  29.431  56.401  1.00  0.00     0.029 C 
HETATM   36  C   UNL     1       8.371  28.099  56.777  1.00  0.00     0.036 C 
ENDBRANCH  31  32
ENDBRANCH   5  31
TORSDOF 6
ENDMDL
MODEL 8
REMARK VINA RESULT:      -8.5      2.457      8.083
REMARK  6 active torsions:
REMARK  status: ('A' for Active; 'I' for Inactive)
REMARK    1  A    between atoms: C_4  and  C_5 
REMARK    2  A    between atoms: C_5  and  N_6 
REMARK    3  A    between atoms: C_10  and  C_11 
REMARK    4  A    between atoms: C_11  and  C_12 
REMARK    5  A    between atoms: N_21  and  C_22 
REMARK    6  A    between atoms: C_22  and  C_23 
ROOT
HETATM    1  C   UNL     1       5.275  28.781  55.405  1.00  0.00     0.164 A 
HETATM    2  N   UNL     1       6.439  29.096  54.589  1.00  0.00    -0.319 N 
HETATM    3  C   UNL     1       7.385  28.099  54.627  1.00  0.00     0.326 A 
HETATM    4  O   UNL     1       8.464  28.196  54.071  1.00  0.00    -0.247 OA
HETATM    5  N   UNL     1       6.892  27.046  55.320  1.00  0.00    -0.265 N 
HETATM    6  C   UNL     1       5.680  27.365  55.870  1.00  0.00     0.263 A 
HETATM    7  O   UNL     1       4.991  26.626  56.560  1.00  0.00    -0.270 OA
HETATM    8  H   UNL     1       6.817  30.040  54.624  1.00  0.00     0.166 HD
ENDROOT
BRANCH   1   9
HETATM    9  C   UNL     1       3.948  28.717  54.565  1.00  0.00     0.033 C 
HETATM   10  C   UNL     1       3.858  27.551  53.561  1.00  0.00     0.036 C 
HETATM   11  C   UNL     1       4.772  27.695  52.353  1.00  0.00     0.235 C 
HETATM   12  N   UNL     1       4.622  29.035  51.675  1.00  0.00    -0.067 N 
HETATM   13  H   UNL     1       3.749  28.978  51.138  1.00  0.00     0.280 HD
HETATM   14  C   UNL     1       4.516  30.242  52.583  1.00  0.00     0.235 C 
HETATM   15  C   UNL     1       3.598  29.988  53.769  1.00  0.00     0.036 C 
BRANCH  12  16
HETATM   16  C   UNL     1       5.735  29.282  50.651  1.00  0.00     0.274 C 
BRANCH  16  17
HETATM   17  C   UNL     1       5.266  29.750  49.295  1.00  0.00    -0.026 A 
HETATM   18  C   UNL     1       5.337  31.131  49.009  1.00  0.00     0.016 A 
HETATM   19  C   UNL     1       4.967  31.639  47.761  1.00  0.00    -0.061 A 
HETATM   20  C   UNL     1       5.070  33.106  47.458  1.00  0.00     0.048 C 
HETATM   21  C   UNL     1       4.510  30.754  46.785  1.00  0.00     0.007 A 
HETATM   22  C   UNL     1       4.415  29.388  47.058  1.00  0.00     0.008 A 
HETATM   23  C   UNL     1       4.800  28.866  48.302  1.00  0.00    -0.054 A 
HETATM   24  C   UNL     1       4.613  27.393  48.549  1.00  0.00     0.049 C 
ENDBRANCH  16  17
ENDBRANCH  12  16
ENDBRANCH   1   9
BRANCH   1  25
HETATM   25  C   UNL     1       5.189  29.796  56.540  1.00  0.00     0.072 A 
HETATM   26  N   UNL     1       3.930  29.997  57.036  1.00  0.00    -0.262 NA
HETATM   27  C   UNL     1       3.790  30.885  58.049  1.00  0.00     0.117 A 
HETATM   28  C   UNL     1       4.842  31.587  58.605  1.00  0.00     0.019 A 
HETATM   29  C   UNL     1       6.116  31.363  58.101  1.00  0.00     0.003 A 
HETATM   30  C   UNL     1       6.300  30.452  57.064  1.00  0.00     0.030 A 
ENDBRANCH   1  25
BRANCH   5  31
HETATM   31  C   UNL     1       7.552  25.762  55.444  1.00  0.00     0.168 C 
BRANCH  31  32
HETATM   32  C   UNL     1       7.073  24.706  54.448  1.00  0.00     0.140 C 
HETATM   33  O   UNL     1       7.022  23.429  55.115  1.00  0.00    -0.384 OA
HETATM   34  C   UNL     1       7.637  22.446  54.270  1.00  0.00     0.168 C 
HETATM   35  C   UNL     1       7.757  23.074  52.899  1.00  0.00     0.029 C 
HETATM   36  C   UNL     1       7.985  24.525  53.244  1.00  0.00     0.036 C 
ENDBRANCH  31  32
ENDBRANCH   5  31
TORSDOF 6
ENDMDL
MODEL 9
REMARK VINA RESULT:      -8.4      2.120      3.346
REMARK  6 active torsions:
REMARK  status: ('A' for Active; 'I' for Inactive)
REMARK    1  A    between atoms: C_4  and  C_5 
REMARK    2  A    between atoms: C_5  and  N_6 
REMARK    3  A    between atoms: C_10  and  C_11 
REMARK    4  A    between atoms: C_11  and  C_12 
REMARK    5  A    between atoms: N_21  and  C_22 
REMARK    6  A    between atoms: C_22  and  C_23 
ROOT
HETATM    1  C   UNL     1       4.842  28.379  53.517  1.00  0.00     0.164 A 
HETATM    2  N   UNL     1       5.757  29.293  52.848  1.00  0.00    -0.319 N 
HETATM    3  C   UNL     1       5.341  29.607  51.576  1.00  0.00     0.326 A 
HETATM    4  O   UNL     1       6.000  30.299  50.821  1.00  0.00    -0.247 OA
HETATM    5  N   UNL     1       4.118  29.067  51.364  1.00  0.00    -0.265 N 
HETATM    6  C   UNL     1       3.757  28.277  52.422  1.00  0.00     0.263 A 
HETATM    7  O   UNL     1       2.714  27.646  52.521  1.00  0.00    -0.270 OA
HETATM    8  H   UNL     1       6.758  29.132  52.939  1.00  0.00     0.166 HD
ENDROOT
BRANCH   1   9
HETATM    9  C   UNL     1       4.230  28.991  54.830  1.00  0.00     0.033 C 
HETATM   10  C   UNL     1       4.920  30.269  55.346  1.00  0.00     0.036 C 
HETATM   11  C   UNL     1       6.301  30.037  55.940  1.00  0.00     0.235 C 
HETATM   12  N   UNL     1       6.304  28.937  56.975  1.00  0.00    -0.067 N 
HETATM   13  H   UNL     1       5.896  29.351  57.821  1.00  0.00     0.280 HD
HETATM   14  C   UNL     1       5.500  27.698  56.644  1.00  0.00     0.235 C 
HETATM   15  C   UNL     1       4.148  28.038  56.037  1.00  0.00     0.036 C 
BRANCH  12  16
HETATM   16  C   UNL     1       7.729  28.517  57.354  1.00  0.00     0.274 C 
BRANCH  16  17
HETATM   17  C   UNL     1       8.597  29.619  57.906  1.00  0.00    -0.026 A 
HETATM   18  C   UNL     1       8.243  30.182  59.152  1.00  0.00     0.016 A 
HETATM   19  C   UNL     1       9.021  31.174  59.754  1.00  0.00    -0.061 A 
HETATM   20  C   UNL     1       8.649  31.748  61.091  1.00  0.00     0.048 C 
HETATM   21  C   UNL     1      10.168  31.619  59.097  1.00  0.00     0.007 A 
HETATM   22  C   UNL     1      10.523  31.087  57.856  1.00  0.00     0.008 A 
HETATM   23  C   UNL     1       9.757  30.078  57.250  1.00  0.00    -0.054 A 
HETATM   24  C   UNL     1      10.162  29.595  55.884  1.00  0.00     0.049 C 
ENDBRANCH  16  17
ENDBRANCH  12  16
ENDBRANCH   1   9
BRANCH   1  25
HETATM   25  C   UNL     1       5.572  27.067  53.780  1.00  0.00     0.072 A 
HETATM   26  N   UNL     1       6.908  27.196  54.046  1.00  0.00    -0.262 NA
HETATM   27  C   UNL     1       7.610  26.065  54.291  1.00  0.00     0.117 A 
HETATM   28  C   UNL     1       7.053  24.801  54.293  1.00  0.00     0.019 A 
HETATM   29  C   UNL     1       5.694  24.685  54.034  1.00  0.00     0.003 A 
HETATM   30  C   UNL     1       4.937  25.827  53.784  1.00  0.00     0.030 A 
ENDBRANCH   1  25
BRANCH   5  31
HETATM   31  C   UNL     1       3.305  29.309  50.189  1.00  0.00     0.168 C 
BRANCH  31  32
HETATM   32  C   UNL     1       3.666  28.443  48.982  1.00  0.00     0.140 C 
HETATM   33  O   UNL     1       2.457  27.878  48.438  1.00  0.00    -0.384 OA
HETATM   34  C   UNL     1       2.674  26.482  48.192  1.00  0.00     0.168 C 
HETATM   35  C   UNL     1       4.169  26.262  48.263  1.00  0.00     0.029 C 
HETATM   36  C   UNL     1       4.579  27.271  49.306  1.00  0.00     0.036 C 
ENDBRANCH  31  32
ENDBRANCH   5  31
TORSDOF 6
ENDMDL
MODEL 10
REMARK VINA RESULT:      -8.3      4.623      7.299
REMARK  6 active torsions:
REMARK  status: ('A' for Active; 'I' for Inactive)
REMARK    1  A    between atoms: C_4  and  C_5 
REMARK    2  A    between atoms: C_5  and  N_6 
REMARK    3  A    between atoms: C_10  and  C_11 
REMARK    4  A    between atoms: C_11  and  C_12 
REMARK    5  A    between atoms: N_21  and  C_22 
REMARK    6  A    between atoms: C_22  and  C_23 
ROOT
HETATM    1  C   UNL     1       3.958  30.933  55.522  1.00  0.00     0.164 A 
HETATM    2  N   UNL     1       5.098  31.836  55.453  1.00  0.00    -0.319 N 
HETATM    3  C   UNL     1       4.719  33.157  55.500  1.00  0.00     0.326 A 
HETATM    4  O   UNL     1       5.512  34.073  55.385  1.00  0.00    -0.247 OA
HETATM    5  N   UNL     1       3.387  33.227  55.730  1.00  0.00    -0.265 N 
HETATM    6  C   UNL     1       2.832  31.976  55.702  1.00  0.00     0.263 A 
HETATM    7  O   UNL     1       1.649  31.713  55.864  1.00  0.00    -0.270 OA
HETATM    8  H   UNL     1       5.841  31.632  54.788  1.00  0.00     0.166 HD
ENDROOT
BRANCH   1   9
HETATM    9  C   UNL     1       4.018  29.980  56.770  1.00  0.00     0.033 C 
HETATM   10  C   UNL     1       3.414  30.551  58.067  1.00  0.00     0.036 C 
HETATM   11  C   UNL     1       4.239  31.657  58.707  1.00  0.00     0.235 C 
HETATM   12  N   UNL     1       5.686  31.265  58.884  1.00  0.00    -0.067 N 
HETATM   13  H   UNL     1       5.705  30.638  59.697  1.00  0.00     0.280 HD
HETATM   14  C   UNL     1       6.332  30.529  57.730  1.00  0.00     0.235 C 
HETATM   15  C   UNL     1       5.418  29.461  57.149  1.00  0.00     0.036 C 
BRANCH  12  16
HETATM   16  C   UNL     1       6.560  32.467  59.256  1.00  0.00     0.274 C 
BRANCH  16  17
HETATM   17  C   UNL     1       7.119  32.447  60.657  1.00  0.00    -0.026 A 
HETATM   18  C   UNL     1       6.249  32.770  61.722  1.00  0.00     0.016 A 
HETATM   19  C   UNL     1       6.676  32.728  63.052  1.00  0.00    -0.061 A 
HETATM   20  C   UNL     1       5.737  33.049  64.180  1.00  0.00     0.048 C 
HETATM   21  C   UNL     1       7.995  32.367  63.323  1.00  0.00     0.007 A 
HETATM   22  C   UNL     1       8.873  32.063  62.281  1.00  0.00     0.008 A 
HETATM   23  C   UNL     1       8.450  32.086  60.942  1.00  0.00    -0.054 A 
HETATM   24  C   UNL     1       9.465  31.808  59.867  1.00  0.00     0.049 C 
ENDBRANCH  16  17
ENDBRANCH  12  16
ENDBRANCH   1   9
BRANCH   1  25
HETATM   25  C   UNL     1       3.871  30.160  54.211  1.00  0.00     0.072 A 
HETATM   26  N   UNL     1       3.733  30.939  53.094  1.00  0.00    -0.262 NA
HETATM   27  C   UNL     1       3.653  30.310  51.897  1.00  0.00     0.117 A 
HETATM   28  C   UNL     1       3.712  28.938  51.746  1.00  0.00     0.019 A 
HETATM   29  C   UNL     1       3.866  28.160  52.886  1.00  0.00     0.003 A 
HETATM   30  C   UNL     1       3.957  28.772  54.134  1.00  0.00     0.030 A 
ENDBRANCH   1  25
BRANCH   5  31
HETATM   31  C   UNL     1       2.660  34.455  55.984  1.00  0.00     0.168 C 
BRANCH  31  32
HETATM   32  C   UNL     1       2.739  34.949  57.428  1.00  0.00     0.140 C 
HETATM   33  O   UNL     1       1.451  34.771  58.050  1.00  0.00    -0.384 OA
HETATM   34  C   UNL     1       1.111  35.974  58.754  1.00  0.00     0.168 C 
HETATM   35  C   UNL     1       2.384  36.785  58.853  1.00  0.00     0.029 C 
HETATM   36  C   UNL     1       3.080  36.426  57.564  1.00  0.00     0.036 C 
ENDBRANCH  31  32
ENDBRANCH   5  31
TORSDOF 6
ENDMDL
