MODEL 1
REMARK VINA RESULT:      -9.0      0.000      0.000
REMARK  6 active torsions:
REMARK  status: ('A' for Active; 'I' for Inactive)
REMARK    1  A    between atoms: C_2  and  C_3 
REMARK    2  A    between atoms: C_13  and  C_14 
REMARK       I    between atoms: C_14  and  N_15 
REMARK    3  A    between atoms: N_15  and  C_16 
REMARK    4  A    between atoms: C_16  and  C_17 
REMARK    5  A    between atoms: C_17  and  C_18 
REMARK    6  A    between atoms: C_18  and  C_19 
ROOT
HETATM    1  C   UNL     1       9.591  31.465  58.925  1.00  0.00     0.251 C 
HETATM    2  N   UNL     1       9.431  30.200  58.399  1.00  0.00    -0.357 N 
HETATM    3  O   UNL     1      10.243  32.348  58.381  1.00  0.00    -0.268 OA
HETATM    4  H   UNL     1       8.720  29.591  58.777  1.00  0.00     0.162 HD
ENDROOT
BRANCH   1   5
HETATM    5  C   UNL     1       8.891  31.753  60.210  1.00  0.00     0.032 A 
HETATM    6  C   UNL     1       9.569  31.901  61.422  1.00  0.00     0.017 A 
HETATM    7  C   UNL     1       8.858  32.177  62.597  1.00  0.00     0.008 A 
HETATM    8  C   UNL     1       7.461  32.321  62.579  1.00  0.00    -0.052 A 
HETATM    9  C   UNL     1       6.791  32.186  61.354  1.00  0.00     0.008 A 
HETATM   10  C   UNL     1       7.501  31.912  60.181  1.00  0.00     0.017 A 
BRANCH   8  11
HETATM   11  C   UNL     1       6.717  32.590  63.874  1.00  0.00     0.044 C 
HETATM   12  C   UNL     1       5.268  33.007  63.582  1.00  0.00     0.241 C 
HETATM   13  N   UNL     1       4.541  33.259  64.869  1.00  0.00    -0.074 N 
HETATM   14  H   UNL     1       4.459  32.380  65.399  1.00  0.00     0.277 HD
HETATM   15  H   UNL     1       3.575  33.543  64.656  1.00  0.00     0.277 HD
HETATM   16  C   UNL     1       5.176  34.303  65.728  1.00  0.00     0.232 C 
HETATM   17  C   UNL     1       6.606  33.892  66.045  1.00  0.00     0.028 C 
HETATM   18  C   UNL     1       7.414  33.629  64.773  1.00  0.00     0.013 C 
ENDBRANCH   8  11
ENDBRANCH   1   5
BRANCH   2  19
HETATM   19  C   UNL     1       9.991  29.838  57.110  1.00  0.00     0.123 C 
BRANCH  19  20
HETATM   20  C   UNL     1       8.966  29.271  56.130  1.00  0.00     0.026 C 
BRANCH  20  21
HETATM   21  C   UNL     1       7.607  29.024  56.785  1.00  0.00     0.061 C 
BRANCH  21  22
HETATM   22  C   UNL     1       7.324  27.566  56.953  1.00  0.00     0.044 A 
HETATM   23  N   UNL     1       8.323  26.750  57.459  1.00  0.00    -0.229 NA
HETATM   24  C   UNL     1       7.895  25.517  57.561  1.00  0.00     0.164 A 
HETATM   25  N   UNL     1       8.652  24.514  58.028  1.00  0.00    -0.378 N 
HETATM   26  S   UNL     1       6.285  25.250  57.027  1.00  0.00    -0.062 SA
HETATM   27  H   UNL     1       9.648  24.692  58.066  1.00  0.00     0.158 HD
HETATM   28  H   UNL     1       8.400  23.566  57.778  1.00  0.00     0.158 HD
HETATM   29  C   UNL     1       6.142  26.915  56.656  1.00  0.00     0.080 A 
ENDBRANCH  21  22
ENDBRANCH  20  21
ENDBRANCH  19  20
ENDBRANCH   2  19
TORSDOF 6
ENDMDL
MODEL 2
REMARK VINA RESULT:      -9.0      1.636      2.268
REMARK  6 active torsions:
REMARK  status: ('A' for Active; 'I' for Inactive)
REMARK    1  A    between atoms: C_2  and  C_3 
REMARK    2  A    between atoms: C_13  and  C_14 
REMARK       I    between atoms: C_14  and  N_15 
REMARK    3  A    between atoms: N_15  and  C_16 
REMARK    4  A    between atoms: C_16  and  C_17 
REMARK    5  A    between atoms: C_17  and  C_18 
REMARK    6  A    between atoms: C_18  and  C_19 
ROOT
HETATM    1  C   UNL     1       9.618  31.435  58.866  1.00  0.00     0.251 C 
HETATM    2  N   UNL     1       9.516  30.156  58.362  1.00  0.00    -0.357 N 
HETATM    3  O   UNL     1      10.274  32.324  58.335  1.00  0.00    -0.268 OA
HETATM    4  H   UNL     1       8.804  29.536  58.719  1.00  0.00     0.162 HD
ENDROOT
BRANCH   1   5
HETATM    5  C   UNL     1       8.850  31.732  60.110  1.00  0.00     0.032 A 
HETATM    6  C   UNL     1       7.533  32.199  60.090  1.00  0.00     0.017 A 
HETATM    7  C   UNL     1       6.860  32.454  61.292  1.00  0.00     0.008 A 
HETATM    8  C   UNL     1       7.485  32.238  62.530  1.00  0.00    -0.052 A 
HETATM    9  C   UNL     1       8.801  31.754  62.539  1.00  0.00     0.008 A 
HETATM   10  C   UNL     1       9.473  31.498  61.341  1.00  0.00     0.017 A 
BRANCH   8  11
HETATM   11  C   UNL     1       6.738  32.553  63.814  1.00  0.00     0.044 C 
HETATM   12  C   UNL     1       5.291  32.963  63.505  1.00  0.00     0.241 C 
HETATM   13  N   UNL     1       4.563  33.261  64.781  1.00  0.00    -0.074 N 
HETATM   14  H   UNL     1       4.477  32.401  65.340  1.00  0.00     0.277 HD
HETATM   15  H   UNL     1       3.597  33.540  64.556  1.00  0.00     0.277 HD
HETATM   16  C   UNL     1       5.198  34.333  65.605  1.00  0.00     0.232 C 
HETATM   17  C   UNL     1       6.626  33.929  65.938  1.00  0.00     0.028 C 
HETATM   18  C   UNL     1       7.436  33.621  64.678  1.00  0.00     0.013 C 
ENDBRANCH   8  11
ENDBRANCH   1   5
BRANCH   2  19
HETATM   19  C   UNL     1      10.147  29.781  57.110  1.00  0.00     0.123 C 
BRANCH  19  20
HETATM   20  C   UNL     1       9.166  29.293  56.046  1.00  0.00     0.026 C 
BRANCH  20  21
HETATM   21  C   UNL     1       8.357  28.083  56.511  1.00  0.00     0.061 C 
BRANCH  21  22
HETATM   22  C   UNL     1       6.887  28.357  56.510  1.00  0.00     0.044 A 
HETATM   23  N   UNL     1       6.354  29.117  57.538  1.00  0.00    -0.229 NA
HETATM   24  C   UNL     1       5.066  29.276  57.365  1.00  0.00     0.164 A 
HETATM   25  N   UNL     1       4.293  29.977  58.208  1.00  0.00    -0.378 N 
HETATM   26  S   UNL     1       4.408  28.500  55.983  1.00  0.00    -0.062 SA
HETATM   27  H   UNL     1       4.694  30.171  59.117  1.00  0.00     0.158 HD
HETATM   28  H   UNL     1       3.298  29.792  58.213  1.00  0.00     0.158 HD
HETATM   29  C   UNL     1       5.968  27.928  55.572  1.00  0.00     0.080 A 
ENDBRANCH  21  22
ENDBRANCH  20  21
ENDBRANCH  19  20
ENDBRANCH   2  19
TORSDOF 6
ENDMDL
MODEL 3
REMARK VINA RESULT:      -8.8      3.859     10.289
REMARK  6 active torsions:
REMARK  status: ('A' for Active; 'I' for Inactive)
REMARK    1  A    between atoms: C_2  and  C_3 
REMARK    2  A    between atoms: C_13  and  C_14 
REMARK       I    between atoms: C_14  and  N_15 
REMARK    3  A    between atoms: N_15  and  C_16 
REMARK    4  A    between atoms: C_16  and  C_17 
REMARK    5  A    between atoms: C_17  and  C_18 
REMARK    6  A    between atoms: C_18  and  C_19 
ROOT
HETATM    1  C   UNL     1       7.426  27.667  56.918  1.00  0.00     0.251 C 
HETATM    2  N   UNL     1       8.623  28.337  57.066  1.00  0.00    -0.357 N 
HETATM    3  O   UNL     1       6.335  28.167  57.162  1.00  0.00    -0.268 OA
HETATM    4  H   UNL     1       9.462  27.953  56.656  1.00  0.00     0.162 HD
ENDROOT
BRANCH   1   5
HETATM    5  C   UNL     1       7.496  26.271  56.400  1.00  0.00     0.032 A 
HETATM    6  C   UNL     1       7.193  25.941  55.076  1.00  0.00     0.017 A 
HETATM    7  C   UNL     1       7.284  24.611  54.645  1.00  0.00     0.008 A 
HETATM    8  C   UNL     1       7.686  23.592  55.524  1.00  0.00    -0.052 A 
HETATM    9  C   UNL     1       8.003  23.936  56.846  1.00  0.00     0.008 A 
HETATM   10  C   UNL     1       7.915  25.263  57.276  1.00  0.00     0.017 A 
BRANCH   8  11
HETATM   11  C   UNL     1       7.744  22.157  55.033  1.00  0.00     0.044 C 
HETATM   12  C   UNL     1       8.938  21.424  55.663  1.00  0.00     0.241 C 
HETATM   13  N   UNL     1       8.976  20.005  55.179  1.00  0.00    -0.074 N 
HETATM   14  H   UNL     1       8.148  19.499  55.521  1.00  0.00     0.277 HD
HETATM   15  H   UNL     1       9.784  19.530  55.605  1.00  0.00     0.277 HD
HETATM   16  C   UNL     1       9.063  19.875  53.694  1.00  0.00     0.232 C 
HETATM   17  C   UNL     1       7.874  20.577  53.057  1.00  0.00     0.028 C 
HETATM   18  C   UNL     1       7.778  22.038  53.498  1.00  0.00     0.013 C 
ENDBRANCH   8  11
ENDBRANCH   1   5
BRANCH   2  19
HETATM   19  C   UNL     1       8.668  29.729  57.477  1.00  0.00     0.123 C 
BRANCH  19  20
HETATM   20  C   UNL     1      10.061  30.207  57.882  1.00  0.00     0.026 C 
BRANCH  20  21
HETATM   21  C   UNL     1      10.033  31.573  58.565  1.00  0.00     0.061 C 
BRANCH  21  22
HETATM   22  C   UNL     1       9.308  31.532  59.872  1.00  0.00     0.044 A 
HETATM   23  N   UNL     1       9.515  30.449  60.711  1.00  0.00    -0.229 NA
HETATM   24  C   UNL     1       8.824  30.589  61.814  1.00  0.00     0.164 A 
HETATM   25  N   UNL     1       8.840  29.690  62.809  1.00  0.00    -0.378 N 
HETATM   26  S   UNL     1       7.859  32.006  61.903  1.00  0.00    -0.062 SA
HETATM   27  H   UNL     1       9.209  28.778  62.575  1.00  0.00     0.158 HD
HETATM   28  H   UNL     1       8.063  29.680  63.459  1.00  0.00     0.158 HD
HETATM   29  C   UNL     1       8.429  32.479  60.359  1.00  0.00     0.080 A 
ENDBRANCH  21  22
ENDBRANCH  20  21
ENDBRANCH  19  20
ENDBRANCH   2  19
TORSDOF 6
ENDMDL
MODEL 4
REMARK VINA RESULT:      -8.7      1.175      1.297
REMARK  6 active torsions:
REMARK  status: ('A' for Active; 'I' for Inactive)
REMARK    1  A    between atoms: C_2  and  C_3 
REMARK    2  A    between atoms: C_13  and  C_14 
REMARK       I    between atoms: C_14  and  N_15 
REMARK    3  A    between atoms: N_15  and  C_16 
REMARK    4  A    between atoms: C_16  and  C_17 
REMARK    5  A    between atoms: C_17  and  C_18 
REMARK    6  A    between atoms: C_18  and  C_19 
ROOT
HETATM    1  C   UNL     1       9.539  31.493  58.906  1.00  0.00     0.251 C 
HETATM    2  N   UNL     1       9.267  30.281  58.307  1.00  0.00    -0.357 N 
HETATM    3  O   UNL     1      10.287  32.335  58.424  1.00  0.00    -0.268 OA
HETATM    4  H   UNL     1       8.492  29.725  58.639  1.00  0.00     0.162 HD
ENDROOT
BRANCH   1   5
HETATM    5  C   UNL     1       8.844  31.778  60.194  1.00  0.00     0.032 A 
HETATM    6  C   UNL     1       9.514  31.835  61.418  1.00  0.00     0.017 A 
HETATM    7  C   UNL     1       8.807  32.114  62.595  1.00  0.00     0.008 A 
HETATM    8  C   UNL     1       7.424  32.350  62.568  1.00  0.00    -0.052 A 
HETATM    9  C   UNL     1       6.762  32.307  61.332  1.00  0.00     0.008 A 
HETATM   10  C   UNL     1       7.467  32.030  60.157  1.00  0.00     0.017 A 
BRANCH   8  11
HETATM   11  C   UNL     1       6.682  32.619  63.864  1.00  0.00     0.044 C 
HETATM   12  C   UNL     1       5.233  33.041  63.575  1.00  0.00     0.241 C 
HETATM   13  N   UNL     1       4.510  33.293  64.864  1.00  0.00    -0.074 N 
HETATM   14  H   UNL     1       4.425  32.413  65.393  1.00  0.00     0.277 HD
HETATM   15  H   UNL     1       3.544  33.579  64.653  1.00  0.00     0.277 HD
HETATM   16  C   UNL     1       5.149  34.333  65.724  1.00  0.00     0.232 C 
HETATM   17  C   UNL     1       6.577  33.918  66.038  1.00  0.00     0.028 C 
HETATM   18  C   UNL     1       7.383  33.655  64.764  1.00  0.00     0.013 C 
ENDBRANCH   8  11
ENDBRANCH   1   5
BRANCH   2  19
HETATM   19  C   UNL     1       9.817  29.936  57.009  1.00  0.00     0.123 C 
BRANCH  19  20
HETATM   20  C   UNL     1       8.973  28.929  56.231  1.00  0.00     0.026 C 
BRANCH  20  21
HETATM   21  C   UNL     1       8.592  27.712  57.073  1.00  0.00     0.061 C 
BRANCH  21  22
HETATM   22  C   UNL     1       7.456  26.948  56.473  1.00  0.00     0.044 A 
HETATM   23  N   UNL     1       6.496  26.415  57.319  1.00  0.00    -0.229 NA
HETATM   24  C   UNL     1       5.568  25.804  56.625  1.00  0.00     0.164 A 
HETATM   25  N   UNL     1       4.511  25.201  57.187  1.00  0.00    -0.378 N 
HETATM   26  S   UNL     1       5.803  25.799  54.925  1.00  0.00    -0.062 SA
HETATM   27  H   UNL     1       4.582  25.017  58.180  1.00  0.00     0.158 HD
HETATM   28  H   UNL     1       4.029  24.486  56.657  1.00  0.00     0.158 HD
HETATM   29  C   UNL     1       7.242  26.705  55.131  1.00  0.00     0.080 A 
ENDBRANCH  21  22
ENDBRANCH  20  21
ENDBRANCH  19  20
ENDBRANCH   2  19
TORSDOF 6
ENDMDL
MODEL 5
REMARK VINA RESULT:      -8.6      1.684      2.015
REMARK  6 active torsions:
REMARK  status: ('A' for Active; 'I' for Inactive)
REMARK    1  A    between atoms: C_2  and  C_3 
REMARK    2  A    between atoms: C_13  and  C_14 
REMARK       I    between atoms: C_14  and  N_15 
REMARK    3  A    between atoms: N_15  and  C_16 
REMARK    4  A    between atoms: C_16  and  C_17 
REMARK    5  A    between atoms: C_17  and  C_18 
REMARK    6  A    between atoms: C_18  and  C_19 
ROOT
HETATM    1  C   UNL     1       9.581  31.395  58.858  1.00  0.00     0.251 C 
HETATM    2  N   UNL     1       9.390  30.138  58.323  1.00  0.00    -0.357 N 
HETATM    3  O   UNL     1      10.262  32.263  58.326  1.00  0.00    -0.268 OA
HETATM    4  H   UNL     1       8.660  29.546  58.691  1.00  0.00     0.162 HD
ENDROOT
BRANCH   1   5
HETATM    5  C   UNL     1       8.878  31.694  60.139  1.00  0.00     0.032 A 
HETATM    6  C   UNL     1       9.535  31.720  61.372  1.00  0.00     0.017 A 
HETATM    7  C   UNL     1       8.822  32.014  62.542  1.00  0.00     0.008 A 
HETATM    8  C   UNL     1       7.447  32.296  62.499  1.00  0.00    -0.052 A 
HETATM    9  C   UNL     1       6.801  32.283  61.255  1.00  0.00     0.008 A 
HETATM   10  C   UNL     1       7.511  31.991  60.087  1.00  0.00     0.017 A 
BRANCH   8  11
HETATM   11  C   UNL     1       6.698  32.581  63.788  1.00  0.00     0.044 C 
HETATM   12  C   UNL     1       5.258  33.020  63.485  1.00  0.00     0.241 C 
HETATM   13  N   UNL     1       4.527  33.287  64.767  1.00  0.00    -0.074 N 
HETATM   14  H   UNL     1       4.427  32.411  65.298  1.00  0.00     0.277 HD
HETATM   15  H   UNL     1       3.567  33.586  64.546  1.00  0.00     0.277 HD
HETATM   16  C   UNL     1       5.172  34.323  65.627  1.00  0.00     0.232 C 
HETATM   17  C   UNL     1       6.593  33.890  65.955  1.00  0.00     0.028 C 
HETATM   18  C   UNL     1       7.405  33.611  64.690  1.00  0.00     0.013 C 
ENDBRANCH   8  11
ENDBRANCH   1   5
BRANCH   2  19
HETATM   19  C   UNL     1       9.951  29.768  57.036  1.00  0.00     0.123 C 
BRANCH  19  20
HETATM   20  C   UNL     1       8.943  29.124  56.087  1.00  0.00     0.026 C 
BRANCH  20  21
HETATM   21  C   UNL     1       8.021  28.134  56.799  1.00  0.00     0.061 C 
BRANCH  21  22
HETATM   22  C   UNL     1       6.613  28.226  56.306  1.00  0.00     0.044 A 
HETATM   23  N   UNL     1       6.256  27.499  55.182  1.00  0.00    -0.229 NA
HETATM   24  C   UNL     1       4.988  27.678  54.909  1.00  0.00     0.164 A 
HETATM   25  N   UNL     1       4.370  27.088  53.875  1.00  0.00    -0.378 N 
HETATM   26  S   UNL     1       4.154  28.752  55.956  1.00  0.00    -0.062 SA
HETATM   27  H   UNL     1       4.974  26.695  53.164  1.00  0.00     0.158 HD
HETATM   28  H   UNL     1       3.517  27.507  53.524  1.00  0.00     0.158 HD
HETATM   29  C   UNL     1       5.592  28.974  56.858  1.00  0.00     0.080 A 
ENDBRANCH  21  22
ENDBRANCH  20  21
ENDBRANCH  19  20
ENDBRANCH   2  19
TORSDOF 6
ENDMDL
MODEL 6
REMARK VINA RESULT:      -8.5      5.664     10.051
REMARK  6 active torsions:
REMARK  status: ('A' for Active; 'I' for Inactive)
REMARK    1  A    between atoms: C_2  and  C_3 
REMARK    2  A    between atoms: C_13  and  C_14 
REMARK       I    between atoms: C_14  and  N_15 
REMARK    3  A    between atoms: N_15  and  C_16 
REMARK    4  A    between atoms: C_16  and  C_17 
REMARK    5  A    between atoms: C_17  and  C_18 
REMARK    6  A    between atoms: C_18  and  C_19 
ROOT
HETATM    1  C   UNL     1       7.344  27.600  57.401  1.00  0.00     0.251 C 
HETATM    2  N   UNL     1       6.368  28.407  56.855  1.00  0.00    -0.357 N 
HETATM    3  O   UNL     1       8.099  27.959  58.297  1.00  0.00    -0.268 OA
HETATM    4  H   UNL     1       5.649  27.996  56.277  1.00  0.00     0.162 HD
ENDROOT
BRANCH   1   5
HETATM    5  C   UNL     1       7.439  26.208  56.875  1.00  0.00     0.032 A 
HETATM    6  C   UNL     1       8.429  25.311  57.284  1.00  0.00     0.017 A 
HETATM    7  C   UNL     1       8.463  24.013  56.758  1.00  0.00     0.008 A 
HETATM    8  C   UNL     1       7.506  23.586  55.824  1.00  0.00    -0.052 A 
HETATM    9  C   UNL     1       6.507  24.489  55.431  1.00  0.00     0.008 A 
HETATM   10  C   UNL     1       6.471  25.784  55.957  1.00  0.00     0.017 A 
BRANCH   8  11
HETATM   11  C   UNL     1       7.589  22.184  55.250  1.00  0.00     0.044 C 
HETATM   12  C   UNL     1       8.707  21.388  55.940  1.00  0.00     0.241 C 
HETATM   13  N   UNL     1       8.771  20.002  55.371  1.00  0.00    -0.074 N 
HETATM   14  H   UNL     1       7.907  19.492  55.602  1.00  0.00     0.277 HD
HETATM   15  H   UNL     1       9.528  19.485  55.840  1.00  0.00     0.277 HD
HETATM   16  C   UNL     1       8.996  19.963  53.896  1.00  0.00     0.232 C 
HETATM   17  C   UNL     1       7.882  20.728  53.197  1.00  0.00     0.028 C 
HETATM   18  C   UNL     1       7.766  22.161  53.720  1.00  0.00     0.013 C 
ENDBRANCH   8  11
ENDBRANCH   1   5
BRANCH   2  19
HETATM   19  C   UNL     1       6.127  29.749  57.353  1.00  0.00     0.123 C 
BRANCH  19  20
HETATM   20  C   UNL     1       5.581  30.709  56.298  1.00  0.00     0.026 C 
BRANCH  20  21
HETATM   21  C   UNL     1       4.101  30.470  56.001  1.00  0.00     0.061 C 
BRANCH  21  22
HETATM   22  C   UNL     1       3.898  29.761  54.702  1.00  0.00     0.044 A 
HETATM   23  N   UNL     1       4.114  28.393  54.652  1.00  0.00    -0.229 NA
HETATM   24  C   UNL     1       3.867  27.937  53.449  1.00  0.00     0.164 A 
HETATM   25  N   UNL     1       3.988  26.644  53.115  1.00  0.00    -0.378 N 
HETATM   26  S   UNL     1       3.395  29.119  52.297  1.00  0.00    -0.062 SA
HETATM   27  H   UNL     1       4.517  26.069  53.759  1.00  0.00     0.158 HD
HETATM   28  H   UNL     1       4.110  26.410  52.138  1.00  0.00     0.158 HD
HETATM   29  C   UNL     1       3.505  30.327  53.505  1.00  0.00     0.080 A 
ENDBRANCH  21  22
ENDBRANCH  20  21
ENDBRANCH  19  20
ENDBRANCH   2  19
TORSDOF 6
ENDMDL
MODEL 7
REMARK VINA RESULT:      -8.5      9.730     11.890
REMARK  6 active torsions:
REMARK  status: ('A' for Active; 'I' for Inactive)
REMARK    1  A    between atoms: C_2  and  C_3 
REMARK    2  A    between atoms: C_13  and  C_14 
REMARK       I    between atoms: C_14  and  N_15 
REMARK    3  A    between atoms: N_15  and  C_16 
REMARK    4  A    between atoms: C_16  and  C_17 
REMARK    5  A    between atoms: C_17  and  C_18 
REMARK    6  A    between atoms: C_18  and  C_19 
ROOT
HETATM    1  C   UNL     1       6.006  27.242  51.950  1.00  0.00     0.251 C 
HETATM    2  N   UNL     1       5.477  27.030  50.694  1.00  0.00    -0.357 N 
HETATM    3  O   UNL     1       5.996  28.329  52.516  1.00  0.00    -0.268 OA
HETATM    4  H   UNL     1       5.325  26.085  50.371  1.00  0.00     0.162 HD
ENDROOT
BRANCH   1   5
HETATM    5  C   UNL     1       6.584  26.056  52.646  1.00  0.00     0.032 A 
HETATM    6  C   UNL     1       6.318  25.763  53.986  1.00  0.00     0.017 A 
HETATM    7  C   UNL     1       6.886  24.630  54.583  1.00  0.00     0.008 A 
HETATM    8  C   UNL     1       7.719  23.768  53.852  1.00  0.00    -0.052 A 
HETATM    9  C   UNL     1       7.967  24.063  52.504  1.00  0.00     0.008 A 
HETATM   10  C   UNL     1       7.400  25.192  51.906  1.00  0.00     0.017 A 
BRANCH   8  11
HETATM   11  C   UNL     1       8.343  22.567  54.538  1.00  0.00     0.044 C 
HETATM   12  C   UNL     1       8.006  21.278  53.773  1.00  0.00     0.241 C 
HETATM   13  N   UNL     1       8.637  20.101  54.454  1.00  0.00    -0.074 N 
HETATM   14  H   UNL     1       9.662  20.177  54.399  1.00  0.00     0.277 HD
HETATM   15  H   UNL     1       8.397  19.247  53.933  1.00  0.00     0.277 HD
HETATM   16  C   UNL     1       8.223  19.934  55.879  1.00  0.00     0.232 C 
HETATM   17  C   UNL     1       8.573  21.194  56.655  1.00  0.00     0.028 C 
HETATM   18  C   UNL     1       7.950  22.439  56.022  1.00  0.00     0.013 C 
ENDBRANCH   8  11
ENDBRANCH   1   5
BRANCH   2  19
HETATM   19  C   UNL     1       4.808  28.091  49.963  1.00  0.00     0.123 C 
BRANCH  19  20
HETATM   20  C   UNL     1       5.657  28.701  48.850  1.00  0.00     0.026 C 
BRANCH  20  21
HETATM   21  C   UNL     1       5.405  28.041  47.495  1.00  0.00     0.061 C 
BRANCH  21  22
HETATM   22  C   UNL     1       4.117  27.282  47.472  1.00  0.00     0.044 A 
HETATM   23  N   UNL     1       4.149  25.916  47.706  1.00  0.00    -0.229 NA
HETATM   24  C   UNL     1       2.937  25.421  47.672  1.00  0.00     0.164 A 
HETATM   25  N   UNL     1       2.669  24.122  47.872  1.00  0.00    -0.378 N 
HETATM   26  S   UNL     1       1.691  26.549  47.326  1.00  0.00    -0.062 SA
HETATM   27  H   UNL     1       3.459  23.492  47.802  1.00  0.00     0.158 HD
HETATM   28  H   UNL     1       1.798  23.752  47.514  1.00  0.00     0.158 HD
HETATM   29  C   UNL     1       2.858  27.799  47.240  1.00  0.00     0.080 A 
ENDBRANCH  21  22
ENDBRANCH  20  21
ENDBRANCH  19  20
ENDBRANCH   2  19
TORSDOF 6
ENDMDL
MODEL 8
REMARK VINA RESULT:      -7.9      3.112      8.631
REMARK  6 active torsions:
REMARK  status: ('A' for Active; 'I' for Inactive)
REMARK    1  A    between atoms: C_2  and  C_3 
REMARK    2  A    between atoms: C_13  and  C_14 
REMARK       I    between atoms: C_14  and  N_15 
REMARK    3  A    between atoms: N_15  and  C_16 
REMARK    4  A    between atoms: C_16  and  C_17 
REMARK    5  A    between atoms: C_17  and  C_18 
REMARK    6  A    between atoms: C_18  and  C_19 
ROOT
HETATM    1  C   UNL     1       8.161  30.941  59.316  1.00  0.00     0.251 C 
HETATM    2  N   UNL     1       8.740  30.357  60.424  1.00  0.00    -0.357 N 
HETATM    3  O   UNL     1       7.996  32.149  59.193  1.00  0.00    -0.268 OA
HETATM    4  H   UNL     1       9.039  29.394  60.379  1.00  0.00     0.162 HD
ENDROOT
BRANCH   1   5
HETATM    5  C   UNL     1       7.755  30.027  58.209  1.00  0.00     0.032 A 
HETATM    6  C   UNL     1       6.449  29.973  57.715  1.00  0.00     0.017 A 
HETATM    7  C   UNL     1       6.128  29.098  56.669  1.00  0.00     0.008 A 
HETATM    8  C   UNL     1       7.106  28.272  56.093  1.00  0.00    -0.052 A 
HETATM    9  C   UNL     1       8.417  28.344  56.586  1.00  0.00     0.008 A 
HETATM   10  C   UNL     1       8.738  29.218  57.629  1.00  0.00     0.017 A 
BRANCH   8  11
HETATM   11  C   UNL     1       6.719  27.313  54.983  1.00  0.00     0.044 C 
HETATM   12  C   UNL     1       5.194  27.282  54.808  1.00  0.00     0.241 C 
HETATM   13  N   UNL     1       4.826  26.339  53.701  1.00  0.00    -0.074 N 
HETATM   14  H   UNL     1       5.184  26.700  52.806  1.00  0.00     0.277 HD
HETATM   15  H   UNL     1       3.802  26.326  53.602  1.00  0.00     0.277 HD
HETATM   16  C   UNL     1       5.313  24.943  53.909  1.00  0.00     0.232 C 
HETATM   17  C   UNL     1       6.826  24.955  54.060  1.00  0.00     0.028 C 
HETATM   18  C   UNL     1       7.275  25.890  55.184  1.00  0.00     0.013 C 
ENDBRANCH   8  11
ENDBRANCH   1   5
BRANCH   2  19
HETATM   19  C   UNL     1       9.255  31.157  61.520  1.00  0.00     0.123 C 
BRANCH  19  20
HETATM   20  C   UNL     1       8.416  31.071  62.792  1.00  0.00     0.026 C 
BRANCH  20  21
HETATM   21  C   UNL     1       7.863  32.431  63.220  1.00  0.00     0.061 C 
BRANCH  21  22
HETATM   22  C   UNL     1       6.519  32.702  62.625  1.00  0.00     0.044 A 
HETATM   23  N   UNL     1       5.556  31.708  62.684  1.00  0.00    -0.229 NA
HETATM   24  C   UNL     1       4.439  32.124  62.139  1.00  0.00     0.164 A 
HETATM   25  N   UNL     1       3.334  31.368  62.065  1.00  0.00    -0.378 N 
HETATM   26  S   UNL     1       4.484  33.713  61.493  1.00  0.00    -0.062 SA
HETATM   27  H   UNL     1       3.465  30.377  62.219  1.00  0.00     0.158 HD
HETATM   28  H   UNL     1       2.641  31.601  61.365  1.00  0.00     0.158 HD
HETATM   29  C   UNL     1       6.111  33.866  62.003  1.00  0.00     0.080 A 
ENDBRANCH  21  22
ENDBRANCH  20  21
ENDBRANCH  19  20
ENDBRANCH   2  19
TORSDOF 6
ENDMDL
MODEL 9
REMARK VINA RESULT:      -7.9      3.245      9.639
REMARK  6 active torsions:
REMARK  status: ('A' for Active; 'I' for Inactive)
REMARK    1  A    between atoms: C_2  and  C_3 
REMARK    2  A    between atoms: C_13  and  C_14 
REMARK       I    between atoms: C_14  and  N_15 
REMARK    3  A    between atoms: N_15  and  C_16 
REMARK    4  A    between atoms: C_16  and  C_17 
REMARK    5  A    between atoms: C_17  and  C_18 
REMARK    6  A    between atoms: C_18  and  C_19 
ROOT
HETATM    1  C   UNL     1       7.602  30.804  58.977  1.00  0.00     0.251 C 
HETATM    2  N   UNL     1       8.012  30.545  60.269  1.00  0.00    -0.357 N 
HETATM    3  O   UNL     1       7.411  31.933  58.540  1.00  0.00    -0.268 OA
HETATM    4  H   UNL     1       8.353  29.625  60.507  1.00  0.00     0.162 HD
ENDROOT
BRANCH   1   5
HETATM    5  C   UNL     1       7.423  29.627  58.079  1.00  0.00     0.032 A 
HETATM    6  C   UNL     1       8.489  28.829  57.658  1.00  0.00     0.017 A 
HETATM    7  C   UNL     1       8.258  27.732  56.818  1.00  0.00     0.008 A 
HETATM    8  C   UNL     1       6.959  27.408  56.394  1.00  0.00    -0.052 A 
HETATM    9  C   UNL     1       5.894  28.206  56.835  1.00  0.00     0.008 A 
HETATM   10  C   UNL     1       6.123  29.300  57.674  1.00  0.00     0.017 A 
BRANCH   8  11
HETATM   11  C   UNL     1       6.746  26.231  55.460  1.00  0.00     0.044 C 
HETATM   12  C   UNL     1       7.125  24.917  56.159  1.00  0.00     0.241 C 
HETATM   13  N   UNL     1       6.900  23.762  55.229  1.00  0.00    -0.074 N 
HETATM   14  H   UNL     1       5.894  23.670  55.027  1.00  0.00     0.277 HD
HETATM   15  H   UNL     1       7.164  22.891  55.710  1.00  0.00     0.277 HD
HETATM   16  C   UNL     1       7.660  23.860  53.948  1.00  0.00     0.232 C 
HETATM   17  C   UNL     1       7.277  25.146  53.233  1.00  0.00     0.028 C 
HETATM   18  C   UNL     1       7.494  26.373  54.121  1.00  0.00     0.013 C 
ENDBRANCH   8  11
ENDBRANCH   1   5
BRANCH   2  19
HETATM   19  C   UNL     1       8.305  31.618  61.201  1.00  0.00     0.123 C 
BRANCH  19  20
HETATM   20  C   UNL     1       7.365  31.662  62.404  1.00  0.00     0.026 C 
BRANCH  20  21
HETATM   21  C   UNL     1       7.907  32.533  63.537  1.00  0.00     0.061 C 
BRANCH  21  22
HETATM   22  C   UNL     1       6.812  33.102  64.380  1.00  0.00     0.044 A 
HETATM   23  N   UNL     1       7.145  33.695  65.587  1.00  0.00    -0.229 NA
HETATM   24  C   UNL     1       6.072  34.158  66.178  1.00  0.00     0.164 A 
HETATM   25  N   UNL     1       6.100  34.788  67.361  1.00  0.00    -0.378 N 
HETATM   26  S   UNL     1       4.597  33.884  65.344  1.00  0.00    -0.062 SA
HETATM   27  H   UNL     1       6.947  34.674  67.903  1.00  0.00     0.158 HD
HETATM   28  H   UNL     1       5.248  34.821  67.907  1.00  0.00     0.158 HD
HETATM   29  C   UNL     1       5.463  33.109  64.086  1.00  0.00     0.080 A 
ENDBRANCH  21  22
ENDBRANCH  20  21
ENDBRANCH  19  20
ENDBRANCH   2  19
TORSDOF 6
ENDMDL
MODEL 10
REMARK VINA RESULT:      -7.8      3.139      9.050
REMARK  6 active torsions:
REMARK  status: ('A' for Active; 'I' for Inactive)
REMARK    1  A    between atoms: C_2  and  C_3 
REMARK    2  A    between atoms: C_13  and  C_14 
REMARK       I    between atoms: C_14  and  N_15 
REMARK    3  A    between atoms: N_15  and  C_16 
REMARK    4  A    between atoms: C_16  and  C_17 
REMARK    5  A    between atoms: C_17  and  C_18 
REMARK    6  A    between atoms: C_18  and  C_19 
ROOT
HETATM    1  C   UNL     1       9.500  31.114  58.819  1.00  0.00     0.251 C 
HETATM    2  N   UNL     1       9.071  30.972  60.122  1.00  0.00    -0.357 N 
HETATM    3  O   UNL     1      10.274  31.990  58.451  1.00  0.00    -0.268 OA
HETATM    4  H   UNL     1       8.609  30.120  60.403  1.00  0.00     0.162 HD
ENDROOT
BRANCH   1   5
HETATM    5  C   UNL     1       9.004  30.110  57.834  1.00  0.00     0.032 A 
HETATM    6  C   UNL     1       9.583  29.939  56.574  1.00  0.00     0.017 A 
HETATM    7  C   UNL     1       9.077  28.974  55.693  1.00  0.00     0.008 A 
HETATM    8  C   UNL     1       7.994  28.159  56.058  1.00  0.00    -0.052 A 
HETATM    9  C   UNL     1       7.430  28.328  57.331  1.00  0.00     0.008 A 
HETATM   10  C   UNL     1       7.935  29.290  58.211  1.00  0.00     0.017 A 
BRANCH   8  11
HETATM   11  C   UNL     1       7.450  27.145  55.070  1.00  0.00     0.044 C 
HETATM   12  C   UNL     1       6.015  27.511  54.661  1.00  0.00     0.241 C 
HETATM   13  N   UNL     1       5.494  26.507  53.677  1.00  0.00    -0.074 N 
HETATM   14  H   UNL     1       6.036  26.563  52.804  1.00  0.00     0.277 HD
HETATM   15  H   UNL     1       4.531  26.763  53.418  1.00  0.00     0.277 HD
HETATM   16  C   UNL     1       5.504  25.102  54.182  1.00  0.00     0.232 C 
HETATM   17  C   UNL     1       6.924  24.717  54.569  1.00  0.00     0.028 C 
HETATM   18  C   UNL     1       7.518  25.694  55.584  1.00  0.00     0.013 C 
ENDBRANCH   8  11
ENDBRANCH   1   5
BRANCH   2  19
HETATM   19  C   UNL     1       9.560  31.837  61.180  1.00  0.00     0.123 C 
BRANCH  19  20
HETATM   20  C   UNL     1       8.829  31.658  62.509  1.00  0.00     0.026 C 
BRANCH  20  21
HETATM   21  C   UNL     1       7.321  31.868  62.378  1.00  0.00     0.061 C 
BRANCH  21  22
HETATM   22  C   UNL     1       6.760  32.639  63.529  1.00  0.00     0.044 A 
HETATM   23  N   UNL     1       5.387  32.812  63.605  1.00  0.00    -0.229 NA
HETATM   24  C   UNL     1       5.073  33.486  64.684  1.00  0.00     0.164 A 
HETATM   25  N   UNL     1       3.810  33.793  65.014  1.00  0.00    -0.378 N 
HETATM   26  S   UNL     1       6.399  33.982  65.653  1.00  0.00    -0.062 SA
HETATM   27  H   UNL     1       3.125  33.704  64.275  1.00  0.00     0.158 HD
HETATM   28  H   UNL     1       3.655  34.570  65.645  1.00  0.00     0.158 HD
HETATM   29  C   UNL     1       7.473  33.217  64.562  1.00  0.00     0.080 A 
ENDBRANCH  21  22
ENDBRANCH  20  21
ENDBRANCH  19  20
ENDBRANCH   2  19
TORSDOF 6
ENDMDL
