MODEL 1
REMARK VINA RESULT:     -10.3      0.000      0.000
REMARK  4 active torsions:
REMARK  status: ('A' for Active; 'I' for Inactive)
REMARK    1  A    between atoms: C_7  and  C_8 
REMARK    2  A    between atoms: C_8  and  C_9 
REMARK       I    between atoms: C_9  and  N_10 
REMARK    3  A    between atoms: N_10  and  C_11 
REMARK    4  A    between atoms: C_13  and  C_14 
ROOT
HETATM    1  C   UNL     1       7.874  26.094  56.971  1.00  0.00     0.226 C 
HETATM    2  N   UNL     1       7.731  27.441  56.664  1.00  0.00    -0.327 N 
HETATM    3  O   UNL     1       8.722  25.611  57.718  1.00  0.00    -0.273 OA
HETATM    4  H   UNL     1       6.952  27.691  56.068  1.00  0.00     0.169 HD
ENDROOT
BRANCH   1   5
HETATM    5  C   UNL     1       6.828  25.214  56.310  1.00  0.00     0.144 C 
BRANCH   5   6
HETATM    6  C   UNL     1       7.243  24.550  55.027  1.00  0.00    -0.015 A 
HETATM    7  C   UNL     1       7.481  25.095  53.772  1.00  0.00     0.013 A 
HETATM    8  C   UNL     1       7.402  26.490  53.254  1.00  0.00     0.068 C 
HETATM    9  N   UNL     1       7.885  24.078  52.940  1.00  0.00    -0.359 N 
HETATM   10  H   UNL     1       8.140  24.192  51.968  1.00  0.00     0.166 HD
HETATM   11  C   UNL     1       7.934  22.884  53.614  1.00  0.00     0.043 A 
HETATM   12  C   UNL     1       7.532  23.143  54.923  1.00  0.00     0.002 A 
HETATM   13  C   UNL     1       8.314  21.612  53.166  1.00  0.00     0.033 A 
HETATM   14  C   UNL     1       7.504  22.069  55.838  1.00  0.00     0.056 A 
HETATM   15  C   UNL     1       7.877  20.799  55.400  1.00  0.00     0.117 A 
HETATM   16  C   UNL     1       8.278  20.566  54.091  1.00  0.00     0.044 A 
HETATM   17  F   UNL     1       7.853  19.777  56.268  1.00  0.00    -0.206 F 
ENDBRANCH   5   6
ENDBRANCH   1   5
BRANCH   2  18
HETATM   18  C   UNL     1       8.521  28.512  57.137  1.00  0.00     0.035 A 
HETATM   19  C   UNL     1       8.138  29.115  58.345  1.00  0.00     0.042 A 
HETATM   20  C   UNL     1       8.885  30.167  58.908  1.00  0.00    -0.021 A 
HETATM   21  C   UNL     1      10.012  30.630  58.218  1.00  0.00     0.012 A 
HETATM   22  C   UNL     1      10.388  30.050  57.007  1.00  0.00     0.003 A 
HETATM   23  C   UNL     1       9.650  28.993  56.473  1.00  0.00     0.029 A 
BRANCH  20  24
HETATM   24  C   UNL     1       8.520  30.764  60.184  1.00  0.00     0.010 A 
HETATM   25  C   UNL     1       9.105  30.635  61.468  1.00  0.00     0.152 A 
HETATM   26  N   UNL     1       8.454  31.322  62.410  1.00  0.00    -0.187 NA
HETATM   27  N   UNL     1       7.441  31.888  61.739  1.00  0.00    -0.289 N 
HETATM   28  H   UNL     1       6.785  32.465  62.256  1.00  0.00     0.188 HD
HETATM   29  C   UNL     1       7.434  31.588  60.406  1.00  0.00     0.123 A 
ENDBRANCH  20  24
ENDBRANCH   2  18
TORSDOF 4
ENDMDL
MODEL 2
REMARK VINA RESULT:      -9.8      4.514      8.600
REMARK  4 active torsions:
REMARK  status: ('A' for Active; 'I' for Inactive)
REMARK    1  A    between atoms: C_7  and  C_8 
REMARK    2  A    between atoms: C_8  and  C_9 
REMARK       I    between atoms: C_9  and  N_10 
REMARK    3  A    between atoms: N_10  and  C_11 
REMARK    4  A    between atoms: C_13  and  C_14 
ROOT
HETATM    1  C   UNL     1       6.239  25.939  52.932  1.00  0.00     0.226 C 
HETATM    2  N   UNL     1       6.265  26.976  52.010  1.00  0.00    -0.327 N 
HETATM    3  O   UNL     1       5.233  25.359  53.336  1.00  0.00    -0.273 OA
HETATM    4  H   UNL     1       7.177  27.322  51.739  1.00  0.00     0.169 HD
ENDROOT
BRANCH   1   5
HETATM    5  C   UNL     1       7.620  25.523  53.407  1.00  0.00     0.144 C 
BRANCH   5   6
HETATM    6  C   UNL     1       7.656  24.524  54.528  1.00  0.00    -0.015 A 
HETATM    7  C   UNL     1       7.494  24.706  55.897  1.00  0.00     0.013 A 
HETATM    8  C   UNL     1       7.245  25.921  56.723  1.00  0.00     0.068 C 
HETATM    9  N   UNL     1       7.566  23.472  56.498  1.00  0.00    -0.359 N 
HETATM   10  H   UNL     1       7.465  23.305  57.490  1.00  0.00     0.166 HD
HETATM   11  C   UNL     1       7.755  22.483  55.565  1.00  0.00     0.043 A 
HETATM   12  C   UNL     1       7.822  23.108  54.322  1.00  0.00     0.002 A 
HETATM   13  C   UNL     1       7.857  21.095  55.732  1.00  0.00     0.033 A 
HETATM   14  C   UNL     1       8.005  22.303  53.178  1.00  0.00     0.056 A 
HETATM   15  C   UNL     1       8.111  20.921  53.335  1.00  0.00     0.117 A 
HETATM   16  C   UNL     1       8.037  20.320  54.585  1.00  0.00     0.044 A 
HETATM   17  F   UNL     1       8.283  20.153  52.250  1.00  0.00    -0.206 F 
ENDBRANCH   5   6
ENDBRANCH   1   5
BRANCH   2  18
HETATM   18  C   UNL     1       5.158  27.570  51.363  1.00  0.00     0.035 A 
HETATM   19  C   UNL     1       4.693  26.961  50.186  1.00  0.00     0.042 A 
HETATM   20  C   UNL     1       3.577  27.464  49.493  1.00  0.00    -0.021 A 
HETATM   21  C   UNL     1       2.950  28.617  49.983  1.00  0.00     0.012 A 
HETATM   22  C   UNL     1       3.417  29.240  51.139  1.00  0.00     0.003 A 
HETATM   23  C   UNL     1       4.512  28.715  51.828  1.00  0.00     0.029 A 
BRANCH  20  24
HETATM   24  C   UNL     1       3.061  26.810  48.300  1.00  0.00     0.010 A 
HETATM   25  C   UNL     1       3.483  25.631  47.635  1.00  0.00     0.152 A 
HETATM   26  N   UNL     1       2.771  25.368  46.537  1.00  0.00    -0.187 NA
HETATM   27  N   UNL     1       1.895  26.381  46.483  1.00  0.00    -0.289 N 
HETATM   28  H   UNL     1       1.238  26.407  45.709  1.00  0.00     0.188 HD
HETATM   29  C   UNL     1       2.025  27.270  47.512  1.00  0.00     0.123 A 
ENDBRANCH  20  24
ENDBRANCH   2  18
TORSDOF 4
ENDMDL
MODEL 3
REMARK VINA RESULT:      -9.6      4.950      7.985
REMARK  4 active torsions:
REMARK  status: ('A' for Active; 'I' for Inactive)
REMARK    1  A    between atoms: C_7  and  C_8 
REMARK    2  A    between atoms: C_8  and  C_9 
REMARK       I    between atoms: C_9  and  N_10 
REMARK    3  A    between atoms: N_10  and  C_11 
REMARK    4  A    between atoms: C_13  and  C_14 
ROOT
HETATM    1  C   UNL     1       5.912  25.595  51.777  1.00  0.00     0.226 C 
HETATM    2  N   UNL     1       5.861  26.428  50.668  1.00  0.00    -0.327 N 
HETATM    3  O   UNL     1       4.949  25.063  52.324  1.00  0.00    -0.273 OA
HETATM    4  H   UNL     1       6.747  26.753  50.302  1.00  0.00     0.169 HD
ENDROOT
BRANCH   1   5
HETATM    5  C   UNL     1       7.325  25.345  52.275  1.00  0.00     0.144 C 
BRANCH   5   6
HETATM    6  C   UNL     1       7.441  24.673  53.614  1.00  0.00    -0.015 A 
HETATM    7  C   UNL     1       7.305  25.196  54.894  1.00  0.00     0.013 A 
HETATM    8  C   UNL     1       7.016  26.571  55.389  1.00  0.00     0.068 C 
HETATM    9  N   UNL     1       7.455  24.164  55.789  1.00  0.00    -0.359 N 
HETATM   10  H   UNL     1       7.388  24.256  56.794  1.00  0.00     0.166 HD
HETATM   11  C   UNL     1       7.671  22.976  55.136  1.00  0.00     0.043 A 
HETATM   12  C   UNL     1       7.674  23.261  53.772  1.00  0.00     0.002 A 
HETATM   13  C   UNL     1       7.847  21.685  55.651  1.00  0.00     0.033 A 
HETATM   14  C   UNL     1       7.868  22.195  52.868  1.00  0.00     0.056 A 
HETATM   15  C   UNL     1       8.049  20.907  53.372  1.00  0.00     0.117 A 
HETATM   16  C   UNL     1       8.037  20.647  54.736  1.00  0.00     0.044 A 
HETATM   17  F   UNL     1       8.232  19.892  52.515  1.00  0.00    -0.206 F 
ENDBRANCH   5   6
ENDBRANCH   1   5
BRANCH   2  18
HETATM   18  C   UNL     1       4.709  26.830  49.956  1.00  0.00     0.035 A 
HETATM   19  C   UNL     1       4.046  27.987  50.397  1.00  0.00     0.042 A 
HETATM   20  C   UNL     1       2.910  28.480  49.730  1.00  0.00    -0.021 A 
HETATM   21  C   UNL     1       2.424  27.770  48.625  1.00  0.00     0.012 A 
HETATM   22  C   UNL     1       3.063  26.609  48.192  1.00  0.00     0.003 A 
HETATM   23  C   UNL     1       4.202  26.146  48.851  1.00  0.00     0.029 A 
BRANCH  20  24
HETATM   24  C   UNL     1       2.248  29.705  50.154  1.00  0.00     0.010 A 
HETATM   25  C   UNL     1       1.144  30.400  49.599  1.00  0.00     0.152 A 
HETATM   26  N   UNL     1       0.847  31.520  50.262  1.00  0.00    -0.187 NA
HETATM   27  N   UNL     1       1.764  31.558  51.239  1.00  0.00    -0.289 N 
HETATM   28  H   UNL     1       1.749  32.343  51.882  1.00  0.00     0.188 HD
HETATM   29  C   UNL     1       2.624  30.497  51.220  1.00  0.00     0.123 A 
ENDBRANCH  20  24
ENDBRANCH   2  18
TORSDOF 4
ENDMDL
MODEL 4
REMARK VINA RESULT:      -9.5      5.897      9.200
REMARK  4 active torsions:
REMARK  status: ('A' for Active; 'I' for Inactive)
REMARK    1  A    between atoms: C_7  and  C_8 
REMARK    2  A    between atoms: C_8  and  C_9 
REMARK       I    between atoms: C_9  and  N_10 
REMARK    3  A    between atoms: N_10  and  C_11 
REMARK    4  A    between atoms: C_13  and  C_14 
ROOT
HETATM    1  C   UNL     1       5.498  25.820  51.524  1.00  0.00     0.226 C 
HETATM    2  N   UNL     1       6.480  25.967  52.494  1.00  0.00    -0.327 N 
HETATM    3  O   UNL     1       4.617  24.963  51.515  1.00  0.00    -0.273 OA
HETATM    4  H   UNL     1       7.110  26.753  52.388  1.00  0.00     0.169 HD
ENDROOT
BRANCH   1   5
HETATM    5  C   UNL     1       5.571  26.872  50.432  1.00  0.00     0.144 C 
BRANCH   5   6
HETATM    6  C   UNL     1       4.273  27.539  50.074  1.00  0.00    -0.015 A 
HETATM    7  C   UNL     1       3.654  28.651  50.632  1.00  0.00     0.013 A 
HETATM    8  C   UNL     1       4.032  29.549  51.758  1.00  0.00     0.068 C 
HETATM    9  N   UNL     1       2.504  28.894  49.919  1.00  0.00    -0.359 N 
HETATM   10  H   UNL     1       1.863  29.656  50.098  1.00  0.00     0.166 HD
HETATM   11  C   UNL     1       2.357  27.986  48.901  1.00  0.00     0.043 A 
HETATM   12  C   UNL     1       3.445  27.119  48.973  1.00  0.00     0.002 A 
HETATM   13  C   UNL     1       1.356  27.882  47.925  1.00  0.00     0.033 A 
HETATM   14  C   UNL     1       3.540  26.084  48.019  1.00  0.00     0.056 A 
HETATM   15  C   UNL     1       2.546  25.970  47.046  1.00  0.00     0.117 A 
HETATM   16  C   UNL     1       1.473  26.850  46.991  1.00  0.00     0.044 A 
HETATM   17  F   UNL     1       2.635  24.989  46.137  1.00  0.00    -0.206 F 
ENDBRANCH   5   6
ENDBRANCH   1   5
BRANCH   2  18
HETATM   18  C   UNL     1       6.666  25.172  53.647  1.00  0.00     0.035 A 
HETATM   19  C   UNL     1       7.211  23.891  53.469  1.00  0.00     0.042 A 
HETATM   20  C   UNL     1       7.461  23.042  54.563  1.00  0.00    -0.021 A 
HETATM   21  C   UNL     1       7.122  23.489  55.846  1.00  0.00     0.012 A 
HETATM   22  C   UNL     1       6.562  24.753  56.031  1.00  0.00     0.003 A 
HETATM   23  C   UNL     1       6.341  25.591  54.938  1.00  0.00     0.029 A 
BRANCH  20  24
HETATM   24  C   UNL     1       8.069  21.732  54.389  1.00  0.00     0.010 A 
HETATM   25  C   UNL     1       8.188  20.912  53.239  1.00  0.00     0.152 A 
HETATM   26  N   UNL     1       8.789  19.747  53.489  1.00  0.00    -0.187 NA
HETATM   27  N   UNL     1       9.050  19.805  54.802  1.00  0.00    -0.289 N 
HETATM   28  H   UNL     1       9.506  19.009  55.237  1.00  0.00     0.188 HD
HETATM   29  C   UNL     1       8.642  20.969  55.388  1.00  0.00     0.123 A 
ENDBRANCH  20  24
ENDBRANCH   2  18
TORSDOF 4
ENDMDL
MODEL 5
REMARK VINA RESULT:      -9.5      3.674      6.058
REMARK  4 active torsions:
REMARK  status: ('A' for Active; 'I' for Inactive)
REMARK    1  A    between atoms: C_7  and  C_8 
REMARK    2  A    between atoms: C_8  and  C_9 
REMARK       I    between atoms: C_9  and  N_10 
REMARK    3  A    between atoms: N_10  and  C_11 
REMARK    4  A    between atoms: C_13  and  C_14 
ROOT
HETATM    1  C   UNL     1       8.403  31.196  59.243  1.00  0.00     0.226 C 
HETATM    2  N   UNL     1       7.719  30.821  60.391  1.00  0.00    -0.327 N 
HETATM    3  O   UNL     1       8.935  32.287  59.044  1.00  0.00    -0.273 OA
HETATM    4  H   UNL     1       7.376  29.869  60.425  1.00  0.00     0.169 HD
ENDROOT
BRANCH   1   5
HETATM    5  C   UNL     1       8.485  30.091  58.205  1.00  0.00     0.144 C 
BRANCH   5   6
HETATM    6  C   UNL     1       7.174  29.500  57.769  1.00  0.00    -0.015 A 
HETATM    7  C   UNL     1       5.976  30.122  57.439  1.00  0.00     0.013 A 
HETATM    8  C   UNL     1       5.565  31.554  57.411  1.00  0.00     0.068 C 
HETATM    9  N   UNL     1       5.085  29.147  57.058  1.00  0.00    -0.359 N 
HETATM   10  H   UNL     1       4.138  29.318  56.750  1.00  0.00     0.166 HD
HETATM   11  C   UNL     1       5.666  27.905  57.111  1.00  0.00     0.043 A 
HETATM   12  C   UNL     1       6.972  28.089  57.559  1.00  0.00     0.002 A 
HETATM   13  C   UNL     1       5.137  26.649  56.786  1.00  0.00     0.033 A 
HETATM   14  C   UNL     1       7.799  26.954  57.694  1.00  0.00     0.056 A 
HETATM   15  C   UNL     1       7.280  25.699  57.376  1.00  0.00     0.117 A 
HETATM   16  C   UNL     1       5.975  25.541  56.927  1.00  0.00     0.044 A 
HETATM   17  F   UNL     1       8.064  24.619  57.501  1.00  0.00    -0.206 F 
ENDBRANCH   5   6
ENDBRANCH   1   5
BRANCH   2  18
HETATM   18  C   UNL     1       7.493  31.605  61.544  1.00  0.00     0.035 A 
HETATM   19  C   UNL     1       6.185  32.063  61.769  1.00  0.00     0.042 A 
HETATM   20  C   UNL     1       5.861  32.823  62.909  1.00  0.00    -0.021 A 
HETATM   21  C   UNL     1       6.885  33.148  63.808  1.00  0.00     0.012 A 
HETATM   22  C   UNL     1       8.191  32.715  63.581  1.00  0.00     0.003 A 
HETATM   23  C   UNL     1       8.491  31.943  62.458  1.00  0.00     0.029 A 
BRANCH  20  24
HETATM   24  C   UNL     1       4.498  33.260  63.172  1.00  0.00     0.010 A 
HETATM   25  C   UNL     1       3.944  33.943  64.283  1.00  0.00     0.152 A 
HETATM   26  N   UNL     1       2.628  34.140  64.171  1.00  0.00    -0.187 NA
HETATM   27  N   UNL     1       2.327  33.575  62.994  1.00  0.00    -0.289 N 
HETATM   28  H   UNL     1       1.359  33.588  62.688  1.00  0.00     0.188 HD
HETATM   29  C   UNL     1       3.408  33.035  62.356  1.00  0.00     0.123 A 
ENDBRANCH  20  24
ENDBRANCH   2  18
TORSDOF 4
ENDMDL
MODEL 6
REMARK VINA RESULT:      -9.3      3.305      9.313
REMARK  4 active torsions:
REMARK  status: ('A' for Active; 'I' for Inactive)
REMARK    1  A    between atoms: C_7  and  C_8 
REMARK    2  A    between atoms: C_8  and  C_9 
REMARK       I    between atoms: C_9  and  N_10 
REMARK    3  A    between atoms: N_10  and  C_11 
REMARK    4  A    between atoms: C_13  and  C_14 
ROOT
HETATM    1  C   UNL     1       8.140  27.860  56.188  1.00  0.00     0.226 C 
HETATM    2  N   UNL     1       7.641  26.566  56.246  1.00  0.00    -0.327 N 
HETATM    3  O   UNL     1       8.287  28.531  55.168  1.00  0.00    -0.273 OA
HETATM    4  H   UNL     1       7.535  26.161  57.168  1.00  0.00     0.169 HD
ENDROOT
BRANCH   1   5
HETATM    5  C   UNL     1       8.477  28.436  57.552  1.00  0.00     0.144 C 
BRANCH   5   6
HETATM    6  C   UNL     1       7.567  29.523  58.049  1.00  0.00    -0.015 A 
HETATM    7  C   UNL     1       6.230  29.773  57.765  1.00  0.00     0.013 A 
HETATM    8  C   UNL     1       5.247  29.084  56.883  1.00  0.00     0.068 C 
HETATM    9  N   UNL     1       5.837  30.860  58.510  1.00  0.00    -0.359 N 
HETATM   10  H   UNL     1       4.905  31.253  58.511  1.00  0.00     0.166 HD
HETATM   11  C   UNL     1       6.870  31.322  59.286  1.00  0.00     0.043 A 
HETATM   12  C   UNL     1       7.970  30.511  59.017  1.00  0.00     0.002 A 
HETATM   13  C   UNL     1       6.903  32.379  60.205  1.00  0.00     0.033 A 
HETATM   14  C   UNL     1       9.176  30.771  59.703  1.00  0.00     0.056 A 
HETATM   15  C   UNL     1       9.218  31.825  60.617  1.00  0.00     0.117 A 
HETATM   16  C   UNL     1       8.107  32.617  60.871  1.00  0.00     0.044 A 
HETATM   17  F   UNL     1      10.362  32.073  61.271  1.00  0.00    -0.206 F 
ENDBRANCH   5   6
ENDBRANCH   1   5
BRANCH   2  18
HETATM   18  C   UNL     1       7.213  25.768  55.163  1.00  0.00     0.035 A 
HETATM   19  C   UNL     1       7.700  24.452  55.095  1.00  0.00     0.042 A 
HETATM   20  C   UNL     1       7.301  23.575  54.070  1.00  0.00    -0.021 A 
HETATM   21  C   UNL     1       6.427  24.052  53.085  1.00  0.00     0.012 A 
HETATM   22  C   UNL     1       5.954  25.363  53.132  1.00  0.00     0.003 A 
HETATM   23  C   UNL     1       6.341  26.213  54.169  1.00  0.00     0.029 A 
BRANCH  20  24
HETATM   24  C   UNL     1       7.765  22.197  54.022  1.00  0.00     0.010 A 
HETATM   25  C   UNL     1       8.126  21.380  52.922  1.00  0.00     0.152 A 
HETATM   26  N   UNL     1       8.472  20.142  53.283  1.00  0.00    -0.187 NA
HETATM   27  N   UNL     1       8.327  20.153  54.615  1.00  0.00    -0.289 N 
HETATM   28  H   UNL     1       8.527  19.300  55.127  1.00  0.00     0.188 HD
HETATM   29  C   UNL     1       7.908  21.356  55.108  1.00  0.00     0.123 A 
ENDBRANCH  20  24
ENDBRANCH   2  18
TORSDOF 4
ENDMDL
MODEL 7
REMARK VINA RESULT:      -9.2      2.513      3.303
REMARK  4 active torsions:
REMARK  status: ('A' for Active; 'I' for Inactive)
REMARK    1  A    between atoms: C_7  and  C_8 
REMARK    2  A    between atoms: C_8  and  C_9 
REMARK       I    between atoms: C_9  and  N_10 
REMARK    3  A    between atoms: N_10  and  C_11 
REMARK    4  A    between atoms: C_13  and  C_14 
ROOT
HETATM    1  C   UNL     1       6.575  26.262  54.304  1.00  0.00     0.226 C 
HETATM    2  N   UNL     1       5.563  26.866  55.039  1.00  0.00    -0.327 N 
HETATM    3  O   UNL     1       7.568  26.825  53.848  1.00  0.00    -0.273 OA
HETATM    4  H   UNL     1       4.831  26.260  55.388  1.00  0.00     0.169 HD
ENDROOT
BRANCH   1   5
HETATM    5  C   UNL     1       6.375  24.768  54.122  1.00  0.00     0.144 C 
BRANCH   5   6
HETATM    6  C   UNL     1       7.175  23.882  55.034  1.00  0.00    -0.015 A 
HETATM    7  C   UNL     1       7.505  24.040  56.375  1.00  0.00     0.013 A 
HETATM    8  C   UNL     1       7.205  25.116  57.360  1.00  0.00     0.068 C 
HETATM    9  N   UNL     1       8.214  22.929  56.768  1.00  0.00    -0.359 N 
HETATM   10  H   UNL     1       8.567  22.770  57.701  1.00  0.00     0.166 HD
HETATM   11  C   UNL     1       8.346  22.040  55.731  1.00  0.00     0.043 A 
HETATM   12  C   UNL     1       7.713  22.609  54.628  1.00  0.00     0.002 A 
HETATM   13  C   UNL     1       8.963  20.782  55.696  1.00  0.00     0.033 A 
HETATM   14  C   UNL     1       7.696  21.882  53.419  1.00  0.00     0.056 A 
HETATM   15  C   UNL     1       8.311  20.631  53.374  1.00  0.00     0.117 A 
HETATM   16  C   UNL     1       8.933  20.083  54.488  1.00  0.00     0.044 A 
HETATM   17  F   UNL     1       8.296  19.938  52.227  1.00  0.00    -0.206 F 
ENDBRANCH   5   6
ENDBRANCH   1   5
BRANCH   2  18
HETATM   18  C   UNL     1       5.470  28.228  55.403  1.00  0.00     0.035 A 
HETATM   19  C   UNL     1       6.172  28.642  56.546  1.00  0.00     0.042 A 
HETATM   20  C   UNL     1       6.163  29.986  56.964  1.00  0.00    -0.021 A 
HETATM   21  C   UNL     1       5.405  30.908  56.232  1.00  0.00     0.012 A 
HETATM   22  C   UNL     1       4.688  30.502  55.107  1.00  0.00     0.003 A 
HETATM   23  C   UNL     1       4.726  29.170  54.692  1.00  0.00     0.029 A 
BRANCH  20  24
HETATM   24  C   UNL     1       6.926  30.430  58.121  1.00  0.00     0.010 A 
HETATM   25  C   UNL     1       6.797  31.589  58.925  1.00  0.00     0.152 A 
HETATM   26  N   UNL     1       7.720  31.662  59.887  1.00  0.00    -0.187 NA
HETATM   27  N   UNL     1       8.453  30.556  59.701  1.00  0.00    -0.289 N 
HETATM   28  H   UNL     1       9.241  30.391  60.319  1.00  0.00     0.188 HD
HETATM   29  C   UNL     1       8.022  29.784  58.659  1.00  0.00     0.123 A 
ENDBRANCH  20  24
ENDBRANCH   2  18
TORSDOF 4
ENDMDL
MODEL 8
REMARK VINA RESULT:      -9.2      5.044      8.348
REMARK  4 active torsions:
REMARK  status: ('A' for Active; 'I' for Inactive)
REMARK    1  A    between atoms: C_7  and  C_8 
REMARK    2  A    between atoms: C_8  and  C_9 
REMARK       I    between atoms: C_9  and  N_10 
REMARK    3  A    between atoms: N_10  and  C_11 
REMARK    4  A    between atoms: C_13  and  C_14 
ROOT
HETATM    1  C   UNL     1       6.847  27.272  53.932  1.00  0.00     0.226 C 
HETATM    2  N   UNL     1       6.414  26.242  54.756  1.00  0.00    -0.327 N 
HETATM    3  O   UNL     1       8.015  27.614  53.758  1.00  0.00    -0.273 OA
HETATM    4  H   UNL     1       5.421  26.049  54.759  1.00  0.00     0.169 HD
ENDROOT
BRANCH   1   5
HETATM    5  C   UNL     1       5.715  27.963  53.192  1.00  0.00     0.144 C 
BRANCH   5   6
HETATM    6  C   UNL     1       5.360  27.389  51.849  1.00  0.00    -0.015 A 
HETATM    7  C   UNL     1       4.990  26.097  51.497  1.00  0.00     0.013 A 
HETATM    8  C   UNL     1       4.827  24.849  52.293  1.00  0.00     0.068 C 
HETATM    9  N   UNL     1       4.720  26.089  50.149  1.00  0.00    -0.359 N 
HETATM   10  H   UNL     1       4.412  25.280  49.626  1.00  0.00     0.166 HD
HETATM   11  C   UNL     1       4.887  27.339  49.608  1.00  0.00     0.043 A 
HETATM   12  C   UNL     1       5.294  28.176  50.645  1.00  0.00     0.002 A 
HETATM   13  C   UNL     1       4.696  27.784  48.293  1.00  0.00     0.033 A 
HETATM   14  C   UNL     1       5.527  29.537  50.353  1.00  0.00     0.056 A 
HETATM   15  C   UNL     1       5.343  29.988  49.046  1.00  0.00     0.117 A 
HETATM   16  C   UNL     1       4.933  29.135  48.030  1.00  0.00     0.044 A 
HETATM   17  F   UNL     1       5.562  31.280  48.766  1.00  0.00    -0.206 F 
ENDBRANCH   5   6
ENDBRANCH   1   5
BRANCH   2  18
HETATM   18  C   UNL     1       7.216  25.394  55.552  1.00  0.00     0.035 A 
HETATM   19  C   UNL     1       7.411  24.078  55.103  1.00  0.00     0.042 A 
HETATM   20  C   UNL     1       8.221  23.174  55.815  1.00  0.00    -0.021 A 
HETATM   21  C   UNL     1       8.808  23.602  57.012  1.00  0.00     0.012 A 
HETATM   22  C   UNL     1       8.603  24.901  57.476  1.00  0.00     0.003 A 
HETATM   23  C   UNL     1       7.816  25.793  56.747  1.00  0.00     0.029 A 
BRANCH  20  24
HETATM   24  C   UNL     1       8.465  21.824  55.329  1.00  0.00     0.010 A 
HETATM   25  C   UNL     1       8.268  21.251  54.048  1.00  0.00     0.152 A 
HETATM   26  N   UNL     1       8.581  19.954  54.003  1.00  0.00    -0.187 NA
HETATM   27  N   UNL     1       8.972  19.683  55.255  1.00  0.00    -0.289 N 
HETATM   28  H   UNL     1       9.255  18.733  55.476  1.00  0.00     0.188 HD
HETATM   29  C   UNL     1       8.923  20.765  56.088  1.00  0.00     0.123 A 
ENDBRANCH  20  24
ENDBRANCH   2  18
TORSDOF 4
ENDMDL
MODEL 9
REMARK VINA RESULT:      -9.2      4.808      7.821
REMARK  4 active torsions:
REMARK  status: ('A' for Active; 'I' for Inactive)
REMARK    1  A    between atoms: C_7  and  C_8 
REMARK    2  A    between atoms: C_8  and  C_9 
REMARK       I    between atoms: C_9  and  N_10 
REMARK    3  A    between atoms: N_10  and  C_11 
REMARK    4  A    between atoms: C_13  and  C_14 
ROOT
HETATM    1  C   UNL     1       5.597  25.586  51.772  1.00  0.00     0.226 C 
HETATM    2  N   UNL     1       4.565  26.149  51.035  1.00  0.00    -0.327 N 
HETATM    3  O   UNL     1       6.798  25.694  51.531  1.00  0.00    -0.273 OA
HETATM    4  H   UNL     1       3.626  26.009  51.387  1.00  0.00     0.169 HD
ENDROOT
BRANCH   1   5
HETATM    5  C   UNL     1       5.115  24.813  52.987  1.00  0.00     0.144 C 
BRANCH   5   6
HETATM    6  C   UNL     1       6.119  24.628  54.090  1.00  0.00    -0.015 A 
HETATM    7  C   UNL     1       6.272  25.316  55.287  1.00  0.00     0.013 A 
HETATM    8  C   UNL     1       5.528  26.458  55.888  1.00  0.00     0.068 C 
HETATM    9  N   UNL     1       7.309  24.735  55.977  1.00  0.00    -0.359 N 
HETATM   10  H   UNL     1       7.630  25.026  56.891  1.00  0.00     0.166 HD
HETATM   11  C   UNL     1       7.832  23.677  55.277  1.00  0.00     0.043 A 
HETATM   12  C   UNL     1       7.113  23.586  54.087  1.00  0.00     0.002 A 
HETATM   13  C   UNL     1       8.869  22.798  55.616  1.00  0.00     0.033 A 
HETATM   14  C   UNL     1       7.450  22.560  53.180  1.00  0.00     0.056 A 
HETATM   15  C   UNL     1       8.484  21.682  53.507  1.00  0.00     0.117 A 
HETATM   16  C   UNL     1       9.184  21.790  54.702  1.00  0.00     0.044 A 
HETATM   17  F   UNL     1       8.805  20.704  52.648  1.00  0.00    -0.206 F 
ENDBRANCH   5   6
ENDBRANCH   1   5
BRANCH   2  18
HETATM   18  C   UNL     1       4.682  26.944  49.873  1.00  0.00     0.035 A 
HETATM   19  C   UNL     1       4.881  28.323  50.050  1.00  0.00     0.042 A 
HETATM   20  C   UNL     1       5.041  29.186  48.950  1.00  0.00    -0.021 A 
HETATM   21  C   UNL     1       4.963  28.647  47.660  1.00  0.00     0.012 A 
HETATM   22  C   UNL     1       4.745  27.283  47.475  1.00  0.00     0.003 A 
HETATM   23  C   UNL     1       4.611  26.436  48.576  1.00  0.00     0.029 A 
BRANCH  20  24
HETATM   24  C   UNL     1       5.295  30.608  49.128  1.00  0.00     0.010 A 
HETATM   25  C   UNL     1       5.744  31.334  50.260  1.00  0.00     0.152 A 
HETATM   26  N   UNL     1       5.823  32.648  50.039  1.00  0.00    -0.187 NA
HETATM   27  N   UNL     1       5.415  32.777  48.769  1.00  0.00    -0.289 N 
HETATM   28  H   UNL     1       5.378  33.708  48.368  1.00  0.00     0.188 HD
HETATM   29  C   UNL     1       5.089  31.589  48.178  1.00  0.00     0.123 A 
ENDBRANCH  20  24
ENDBRANCH   2  18
TORSDOF 4
ENDMDL
MODEL 10
REMARK VINA RESULT:      -9.1      1.999      2.463
REMARK  4 active torsions:
REMARK  status: ('A' for Active; 'I' for Inactive)
REMARK    1  A    between atoms: C_7  and  C_8 
REMARK    2  A    between atoms: C_8  and  C_9 
REMARK       I    between atoms: C_9  and  N_10 
REMARK    3  A    between atoms: N_10  and  C_11 
REMARK    4  A    between atoms: C_13  and  C_14 
ROOT
HETATM    1  C   UNL     1       6.885  26.213  56.597  1.00  0.00     0.226 C 
HETATM    2  N   UNL     1       5.777  26.958  56.978  1.00  0.00    -0.327 N 
HETATM    3  O   UNL     1       7.991  26.664  56.304  1.00  0.00    -0.273 OA
HETATM    4  H   UNL     1       4.947  26.439  57.235  1.00  0.00     0.169 HD
ENDROOT
BRANCH   1   5
HETATM    5  C   UNL     1       6.632  24.716  56.602  1.00  0.00     0.144 C 
BRANCH   5   6
HETATM    6  C   UNL     1       6.816  24.014  55.286  1.00  0.00    -0.015 A 
HETATM    7  C   UNL     1       6.389  24.371  54.013  1.00  0.00     0.013 A 
HETATM    8  C   UNL     1       5.610  25.536  53.507  1.00  0.00     0.068 C 
HETATM    9  N   UNL     1       6.850  23.421  53.133  1.00  0.00    -0.359 N 
HETATM   10  H   UNL     1       6.700  23.438  52.133  1.00  0.00     0.166 HD
HETATM   11  C   UNL     1       7.579  22.460  53.786  1.00  0.00     0.043 A 
HETATM   12  C   UNL     1       7.572  22.797  55.138  1.00  0.00     0.002 A 
HETATM   13  C   UNL     1       8.246  21.336  53.280  1.00  0.00     0.033 A 
HETATM   14  C   UNL     1       8.268  21.964  56.039  1.00  0.00     0.056 A 
HETATM   15  C   UNL     1       8.932  20.841  55.544  1.00  0.00     0.117 A 
HETATM   16  C   UNL     1       8.929  20.527  54.191  1.00  0.00     0.044 A 
HETATM   17  F   UNL     1       9.596  20.049  56.397  1.00  0.00    -0.206 F 
ENDBRANCH   5   6
ENDBRANCH   1   5
BRANCH   2  18
HETATM   18  C   UNL     1       5.695  28.363  57.099  1.00  0.00     0.035 A 
HETATM   19  C   UNL     1       6.742  29.018  57.767  1.00  0.00     0.042 A 
HETATM   20  C   UNL     1       6.760  30.418  57.907  1.00  0.00    -0.021 A 
HETATM   21  C   UNL     1       5.686  31.154  57.392  1.00  0.00     0.012 A 
HETATM   22  C   UNL     1       4.632  30.511  56.746  1.00  0.00     0.003 A 
HETATM   23  C   UNL     1       4.640  29.124  56.596  1.00  0.00     0.029 A 
BRANCH  20  24
HETATM   24  C   UNL     1       7.867  31.105  58.556  1.00  0.00     0.010 A 
HETATM   25  C   UNL     1       7.873  32.150  59.514  1.00  0.00     0.152 A 
HETATM   26  N   UNL     1       9.104  32.544  59.848  1.00  0.00    -0.187 NA
HETATM   27  N   UNL     1       9.896  31.763  59.100  1.00  0.00    -0.289 N 
HETATM   28  H   UNL     1      10.900  31.887  59.173  1.00  0.00     0.188 HD
HETATM   29  C   UNL     1       9.208  30.886  58.311  1.00  0.00     0.123 A 
ENDBRANCH  20  24
ENDBRANCH   2  18
TORSDOF 4
ENDMDL
