MODEL 1
REMARK VINA RESULT:      -8.1      0.000      0.000
REMARK  8 active torsions:
REMARK  status: ('A' for Active; 'I' for Inactive)
REMARK    1  A    between atoms: C_2  and  C_3 
REMARK    2  A    between atoms: C_6  and  C_7 
REMARK       I    between atoms: C_7  and  N_8 
REMARK    3  A    between atoms: C_12  and  O_13 
REMARK    4  A    between atoms: O_13  and  C_14 
REMARK    5  A    between atoms: C_14  and  C_15 
REMARK    6  A    between atoms: C_15  and  O_16 
REMARK    7  A    between atoms: C_18  and  N_19 
REMARK       I    between atoms: N_19  and  C_20 
REMARK    8  A    between atoms: C_20  and  C_21 
ROOT
HETATM    1  C   UNL     1       5.020  28.607  50.654  1.00  0.00     0.274 C 
HETATM    2  N   UNL     1       5.180  28.411  52.035  1.00  0.00    -0.347 N 
HETATM    3  C   UNL     1       4.235  27.723  52.915  1.00  0.00     0.127 C 
HETATM    4  C   UNL     1       4.939  26.607  53.682  1.00  0.00     0.037 C 
HETATM    5  C   UNL     1       6.177  27.106  54.459  1.00  0.00     0.019 C 
HETATM    6  C   UNL     1       5.825  28.001  55.714  1.00  0.00     0.162 C 
HETATM    7  C   UNL     1       6.706  27.499  56.906  1.00  0.00     0.148 C 
HETATM    8  C   UNL     1       7.164  26.147  56.444  1.00  0.00    -0.026 A 
HETATM    9  C   UNL     1       6.911  25.937  55.090  1.00  0.00    -0.038 A 
HETATM   10  C   UNL     1       7.819  25.188  57.211  1.00  0.00     0.010 A 
HETATM   11  C   UNL     1       8.235  24.006  56.599  1.00  0.00     0.001 A 
HETATM   12  C   UNL     1       8.001  23.798  55.235  1.00  0.00     0.001 A 
HETATM   13  C   UNL     1       7.337  24.764  54.475  1.00  0.00     0.009 A 
HETATM   14  C   UNL     1       7.113  27.856  53.483  1.00  0.00     0.037 C 
HETATM   15  C   UNL     1       6.374  28.937  52.690  1.00  0.00     0.127 C 
HETATM   16  O   UNL     1       5.963  28.988  49.957  1.00  0.00    -0.266 OA
ENDROOT
BRANCH   6  17
HETATM   17  O   UNL     1       4.422  27.876  56.031  1.00  0.00    -0.380 OA
BRANCH  17  18
HETATM   18  C   UNL     1       3.819  29.122  56.393  1.00  0.00     0.194 C 
BRANCH  18  19
HETATM   19  C   UNL     1       4.348  30.224  55.480  1.00  0.00     0.193 C 
BRANCH  19  20
HETATM   20  O   UNL     1       3.283  30.722  54.672  1.00  0.00    -0.394 OA
HETATM   21  C   UNL     1       3.768  31.456  53.557  1.00  0.00     0.201 C 
ENDBRANCH  19  20
ENDBRANCH  18  19
ENDBRANCH  17  18
ENDBRANCH   6  17
BRANCH   7  22
HETATM   22  N   UNL     1       7.864  28.327  57.212  1.00  0.00    -0.350 N 
HETATM   23  C   UNL     1       7.749  29.475  57.954  1.00  0.00     0.221 C 
HETATM   24  O   UNL     1       6.669  30.000  58.207  1.00  0.00    -0.273 OA
HETATM   25  H   UNL     1       8.769  27.880  57.153  1.00  0.00     0.163 HD
BRANCH  23  26
HETATM   26  C   UNL     1       9.054  30.035  58.507  1.00  0.00     0.070 C 
HETATM   27  C   UNL     1      10.163  29.906  57.464  1.00  0.00     0.019 C 
HETATM   28  C   UNL     1       8.909  31.473  58.992  1.00  0.00     0.019 C 
ENDBRANCH  23  26
ENDBRANCH   7  22
BRANCH   1  29
HETATM   29  C   UNL     1       3.725  28.328  50.013  1.00  0.00     0.154 A 
HETATM   30  N   UNL     1       2.573  28.934  50.349  1.00  0.00    -0.123 NA
HETATM   31  O   UNL     1       1.602  28.410  49.519  1.00  0.00    -0.217 OA
HETATM   32  C   UNL     1       2.168  27.534  48.647  1.00  0.00     0.084 A 
HETATM   33  C   UNL     1       3.515  27.464  48.902  1.00  0.00     0.075 A 
BRANCH  32  34
HETATM   34  C   UNL     1       1.267  26.865  47.666  1.00  0.00     0.037 C 
HETATM   35  C   UNL     1       2.046  25.963  46.708  1.00  0.00     0.016 C 
HETATM   36  C   UNL     1       0.450  27.899  46.891  1.00  0.00     0.016 C 
ENDBRANCH  32  34
ENDBRANCH   1  29
TORSDOF 8
ENDMDL
MODEL 2
REMARK VINA RESULT:      -7.9      4.196      6.957
REMARK  8 active torsions:
REMARK  status: ('A' for Active; 'I' for Inactive)
REMARK    1  A    between atoms: C_2  and  C_3 
REMARK    2  A    between atoms: C_6  and  C_7 
REMARK       I    between atoms: C_7  and  N_8 
REMARK    3  A    between atoms: C_12  and  O_13 
REMARK    4  A    between atoms: O_13  and  C_14 
REMARK    5  A    between atoms: C_14  and  C_15 
REMARK    6  A    between atoms: C_15  and  O_16 
REMARK    7  A    between atoms: C_18  and  N_19 
REMARK       I    between atoms: N_19  and  C_20 
REMARK    8  A    between atoms: C_20  and  C_21 
ROOT
HETATM    1  C   UNL     1       5.654  24.962  56.020  1.00  0.00     0.274 C 
HETATM    2  N   UNL     1       5.961  26.324  56.164  1.00  0.00    -0.347 N 
HETATM    3  C   UNL     1       6.872  27.089  55.311  1.00  0.00     0.127 C 
HETATM    4  C   UNL     1       6.170  28.325  54.756  1.00  0.00     0.037 C 
HETATM    5  C   UNL     1       5.555  29.209  55.864  1.00  0.00     0.019 C 
HETATM    6  C   UNL     1       6.627  29.978  56.736  1.00  0.00     0.162 C 
HETATM    7  C   UNL     1       6.137  31.458  56.879  1.00  0.00     0.148 C 
HETATM    8  C   UNL     1       5.113  31.583  55.789  1.00  0.00    -0.026 A 
HETATM    9  C   UNL     1       4.759  30.347  55.252  1.00  0.00    -0.038 A 
HETATM   10  C   UNL     1       4.506  32.757  55.354  1.00  0.00     0.010 A 
HETATM   11  C   UNL     1       3.520  32.681  54.370  1.00  0.00     0.001 A 
HETATM   12  C   UNL     1       3.148  31.440  53.841  1.00  0.00     0.001 A 
HETATM   13  C   UNL     1       3.766  30.267  54.280  1.00  0.00     0.009 A 
HETATM   14  C   UNL     1       4.637  28.336  56.751  1.00  0.00     0.037 C 
HETATM   15  C   UNL     1       5.348  27.077  57.254  1.00  0.00     0.127 C 
HETATM   16  O   UNL     1       4.708  24.461  56.632  1.00  0.00    -0.266 OA
ENDROOT
BRANCH   6  17
HETATM   17  O   UNL     1       7.916  29.930  56.088  1.00  0.00    -0.380 OA
BRANCH  17  18
HETATM   18  C   UNL     1       8.972  29.550  56.975  1.00  0.00     0.194 C 
BRANCH  18  19
HETATM   19  C   UNL     1      10.304  29.620  56.233  1.00  0.00     0.193 C 
BRANCH  19  20
HETATM   20  O   UNL     1      11.244  30.355  57.014  1.00  0.00    -0.394 OA
HETATM   21  C   UNL     1      10.599  31.195  57.961  1.00  0.00     0.201 C 
ENDBRANCH  19  20
ENDBRANCH  18  19
ENDBRANCH  17  18
ENDBRANCH   6  17
BRANCH   7  22
HETATM   22  N   UNL     1       5.528  31.787  58.159  1.00  0.00    -0.350 N 
HETATM   23  C   UNL     1       6.265  32.315  59.190  1.00  0.00     0.221 C 
HETATM   24  O   UNL     1       7.492  32.327  59.194  1.00  0.00    -0.273 OA
HETATM   25  H   UNL     1       4.526  31.927  58.163  1.00  0.00     0.163 HD
BRANCH  23  26
HETATM   26  C   UNL     1       5.459  32.949  60.317  1.00  0.00     0.070 C 
HETATM   27  C   UNL     1       4.004  32.491  60.244  1.00  0.00     0.019 C 
HETATM   28  C   UNL     1       6.063  32.670  61.689  1.00  0.00     0.019 C 
ENDBRANCH  23  26
ENDBRANCH   7  22
BRANCH   1  29
HETATM   29  C   UNL     1       6.443  24.118  55.109  1.00  0.00     0.154 A 
HETATM   30  N   UNL     1       6.476  24.278  53.775  1.00  0.00    -0.123 NA
HETATM   31  O   UNL     1       7.328  23.306  53.288  1.00  0.00    -0.217 OA
HETATM   32  C   UNL     1       7.853  22.598  54.322  1.00  0.00     0.084 A 
HETATM   33  C   UNL     1       7.343  23.088  55.499  1.00  0.00     0.075 A 
BRANCH  32  34
HETATM   34  C   UNL     1       8.804  21.499  53.987  1.00  0.00     0.037 C 
HETATM   35  C   UNL     1       8.244  20.578  52.903  1.00  0.00     0.016 C 
HETATM   36  C   UNL     1       9.169  20.701  55.239  1.00  0.00     0.016 C 
ENDBRANCH  32  34
ENDBRANCH   1  29
TORSDOF 8
ENDMDL
MODEL 3
REMARK VINA RESULT:      -7.4      6.059     10.333
REMARK  8 active torsions:
REMARK  status: ('A' for Active; 'I' for Inactive)
REMARK    1  A    between atoms: C_2  and  C_3 
REMARK    2  A    between atoms: C_6  and  C_7 
REMARK       I    between atoms: C_7  and  N_8 
REMARK    3  A    between atoms: C_12  and  O_13 
REMARK    4  A    between atoms: O_13  and  C_14 
REMARK    5  A    between atoms: C_14  and  C_15 
REMARK    6  A    between atoms: C_15  and  O_16 
REMARK    7  A    between atoms: C_18  and  N_19 
REMARK       I    between atoms: N_19  and  C_20 
REMARK    8  A    between atoms: C_20  and  C_21 
ROOT
HETATM    1  C   UNL     1       3.874  31.110  58.733  1.00  0.00     0.274 C 
HETATM    2  N   UNL     1       4.525  31.789  59.774  1.00  0.00    -0.347 N 
HETATM    3  C   UNL     1       5.871  32.360  59.711  1.00  0.00     0.127 C 
HETATM    4  C   UNL     1       5.841  33.835  60.102  1.00  0.00     0.037 C 
HETATM    5  C   UNL     1       5.188  34.074  61.481  1.00  0.00     0.019 C 
HETATM    6  C   UNL     1       6.065  33.577  62.698  1.00  0.00     0.162 C 
HETATM    7  C   UNL     1       6.052  34.712  63.777  1.00  0.00     0.148 C 
HETATM    8  C   UNL     1       5.577  35.908  63.005  1.00  0.00    -0.026 A 
HETATM    9  C   UNL     1       5.065  35.562  61.756  1.00  0.00    -0.038 A 
HETATM   10  C   UNL     1       5.569  37.227  63.446  1.00  0.00     0.010 A 
HETATM   11  C   UNL     1       5.026  38.210  62.618  1.00  0.00     0.001 A 
HETATM   12  C   UNL     1       4.493  37.866  61.371  1.00  0.00     0.001 A 
HETATM   13  C   UNL     1       4.510  36.539  60.935  1.00  0.00     0.009 A 
HETATM   14  C   UNL     1       3.789  33.415  61.495  1.00  0.00     0.037 C 
HETATM   15  C   UNL     1       3.838  31.950  61.052  1.00  0.00     0.127 C 
HETATM   16  O   UNL     1       2.667  30.869  58.794  1.00  0.00    -0.266 OA
ENDROOT
BRANCH   6  17
HETATM   17  O   UNL     1       7.414  33.311  62.258  1.00  0.00    -0.380 OA
BRANCH  17  18
HETATM   18  C   UNL     1       8.116  32.411  63.121  1.00  0.00     0.194 C 
BRANCH  18  19
HETATM   19  C   UNL     1       8.020  30.995  62.561  1.00  0.00     0.193 C 
BRANCH  19  20
HETATM   20  O   UNL     1       9.249  30.653  61.923  1.00  0.00    -0.394 OA
HETATM   21  C   UNL     1       9.136  30.693  60.508  1.00  0.00     0.201 C 
ENDBRANCH  19  20
ENDBRANCH  18  19
ENDBRANCH  17  18
ENDBRANCH   6  17
BRANCH   7  22
HETATM   22  N   UNL     1       5.167  34.480  64.908  1.00  0.00    -0.350 N 
HETATM   23  C   UNL     1       5.659  34.193  66.157  1.00  0.00     0.221 C 
HETATM   24  O   UNL     1       6.831  33.886  66.358  1.00  0.00    -0.273 OA
HETATM   25  H   UNL     1       4.229  34.849  64.834  1.00  0.00     0.163 HD
BRANCH  23  26
HETATM   26  C   UNL     1       4.667  34.339  67.305  1.00  0.00     0.070 C 
HETATM   27  C   UNL     1       5.407  34.672  68.599  1.00  0.00     0.019 C 
HETATM   28  C   UNL     1       3.580  35.366  67.003  1.00  0.00     0.019 C 
ENDBRANCH  23  26
ENDBRANCH   7  22
BRANCH   1  29
HETATM   29  C   UNL     1       4.624  30.701  57.534  1.00  0.00     0.154 A 
HETATM   30  N   UNL     1       4.679  31.420  56.399  1.00  0.00    -0.123 NA
HETATM   31  O   UNL     1       5.481  30.710  55.528  1.00  0.00    -0.217 OA
HETATM   32  C   UNL     1       5.955  29.596  56.146  1.00  0.00     0.084 A 
HETATM   33  C   UNL     1       5.462  29.556  57.426  1.00  0.00     0.075 A 
BRANCH  32  34
HETATM   34  C   UNL     1       6.847  28.701  55.355  1.00  0.00     0.037 C 
HETATM   35  C   UNL     1       6.515  27.227  55.585  1.00  0.00     0.016 C 
HETATM   36  C   UNL     1       8.316  28.981  55.676  1.00  0.00     0.016 C 
ENDBRANCH  32  34
ENDBRANCH   1  29
TORSDOF 8
ENDMDL
MODEL 4
REMARK VINA RESULT:      -7.1      5.132      8.825
REMARK  8 active torsions:
REMARK  status: ('A' for Active; 'I' for Inactive)
REMARK    1  A    between atoms: C_2  and  C_3 
REMARK    2  A    between atoms: C_6  and  C_7 
REMARK       I    between atoms: C_7  and  N_8 
REMARK    3  A    between atoms: C_12  and  O_13 
REMARK    4  A    between atoms: O_13  and  C_14 
REMARK    5  A    between atoms: C_14  and  C_15 
REMARK    6  A    between atoms: C_15  and  O_16 
REMARK    7  A    between atoms: C_18  and  N_19 
REMARK       I    between atoms: N_19  and  C_20 
REMARK    8  A    between atoms: C_20  and  C_21 
ROOT
HETATM    1  C   UNL     1       3.249  30.409  57.168  1.00  0.00     0.274 C 
HETATM    2  N   UNL     1       3.972  31.092  58.158  1.00  0.00    -0.347 N 
HETATM    3  C   UNL     1       5.269  31.743  57.973  1.00  0.00     0.127 C 
HETATM    4  C   UNL     1       5.201  33.201  58.420  1.00  0.00     0.037 C 
HETATM    5  C   UNL     1       4.691  33.357  59.869  1.00  0.00     0.019 C 
HETATM    6  C   UNL     1       5.723  32.874  60.965  1.00  0.00     0.162 C 
HETATM    7  C   UNL     1       5.766  33.970  62.081  1.00  0.00     0.148 C 
HETATM    8  C   UNL     1       5.143  35.160  61.412  1.00  0.00    -0.026 A 
HETATM    9  C   UNL     1       4.517  34.825  60.213  1.00  0.00    -0.038 A 
HETATM   10  C   UNL     1       5.111  36.463  61.901  1.00  0.00     0.010 A 
HETATM   11  C   UNL     1       4.428  37.438  61.174  1.00  0.00     0.001 A 
HETATM   12  C   UNL     1       3.781  37.102  59.980  1.00  0.00     0.001 A 
HETATM   13  C   UNL     1       3.823  35.793  59.494  1.00  0.00     0.009 A 
HETATM   14  C   UNL     1       3.341  32.616  60.009  1.00  0.00     0.037 C 
HETATM   15  C   UNL     1       3.421  31.171  59.508  1.00  0.00     0.127 C 
HETATM   16  O   UNL     1       2.070  30.095  57.350  1.00  0.00    -0.266 OA
ENDROOT
BRANCH   6  17
HETATM   17  O   UNL     1       7.027  32.701  60.372  1.00  0.00    -0.380 OA
BRANCH  17  18
HETATM   18  C   UNL     1       7.845  31.767  61.084  1.00  0.00     0.194 C 
BRANCH  18  19
HETATM   19  C   UNL     1       9.312  32.028  60.756  1.00  0.00     0.193 C 
BRANCH  19  20
HETATM   20  O   UNL     1       9.420  32.520  59.422  1.00  0.00    -0.394 OA
HETATM   21  C   UNL     1       9.978  31.551  58.546  1.00  0.00     0.201 C 
ENDBRANCH  19  20
ENDBRANCH  18  19
ENDBRANCH  17  18
ENDBRANCH   6  17
BRANCH   7  22
HETATM   22  N   UNL     1       5.024  33.651  63.292  1.00  0.00    -0.350 N 
HETATM   23  C   UNL     1       5.579  33.813  64.537  1.00  0.00     0.221 C 
HETATM   24  O   UNL     1       6.778  34.007  64.712  1.00  0.00    -0.273 OA
HETATM   25  H   UNL     1       4.016  33.625  63.214  1.00  0.00     0.163 HD
BRANCH  23  26
HETATM   26  C   UNL     1       4.596  33.801  65.702  1.00  0.00     0.070 C 
HETATM   27  C   UNL     1       5.310  34.188  66.996  1.00  0.00     0.019 C 
HETATM   28  C   UNL     1       3.384  34.691  65.446  1.00  0.00     0.019 C 
ENDBRANCH  23  26
ENDBRANCH   7  22
BRANCH   1  29
HETATM   29  C   UNL     1       3.884  30.083  55.881  1.00  0.00     0.154 A 
HETATM   30  N   UNL     1       3.925  30.919  54.830  1.00  0.00    -0.123 NA
HETATM   31  O   UNL     1       4.608  30.255  53.830  1.00  0.00    -0.217 OA
HETATM   32  C   UNL     1       5.027  29.046  54.288  1.00  0.00     0.084 A 
HETATM   33  C   UNL     1       4.616  28.898  55.590  1.00  0.00     0.075 A 
BRANCH  32  34
HETATM   34  C   UNL     1       5.789  28.181  53.343  1.00  0.00     0.037 C 
HETATM   35  C   UNL     1       7.247  28.022  53.773  1.00  0.00     0.016 C 
HETATM   36  C   UNL     1       5.702  28.730  51.919  1.00  0.00     0.016 C 
ENDBRANCH  32  34
ENDBRANCH   1  29
TORSDOF 8
ENDMDL
MODEL 5
REMARK VINA RESULT:      -7.0      8.595     14.919
REMARK  8 active torsions:
REMARK  status: ('A' for Active; 'I' for Inactive)
REMARK    1  A    between atoms: C_2  and  C_3 
REMARK    2  A    between atoms: C_6  and  C_7 
REMARK       I    between atoms: C_7  and  N_8 
REMARK    3  A    between atoms: C_12  and  O_13 
REMARK    4  A    between atoms: O_13  and  C_14 
REMARK    5  A    between atoms: C_14  and  C_15 
REMARK    6  A    between atoms: C_15  and  O_16 
REMARK    7  A    between atoms: C_18  and  N_19 
REMARK       I    between atoms: N_19  and  C_20 
REMARK    8  A    between atoms: C_20  and  C_21 
ROOT
HETATM    1  C   UNL     1       6.450  34.222  65.509  1.00  0.00     0.274 C 
HETATM    2  N   UNL     1       5.637  34.695  64.467  1.00  0.00    -0.347 N 
HETATM    3  C   UNL     1       4.375  35.417  64.629  1.00  0.00     0.127 C 
HETATM    4  C   UNL     1       4.415  36.736  63.863  1.00  0.00     0.037 C 
HETATM    5  C   UNL     1       4.774  36.550  62.372  1.00  0.00     0.019 C 
HETATM    6  C   UNL     1       3.628  35.873  61.518  1.00  0.00     0.162 C 
HETATM    7  C   UNL     1       3.484  36.697  60.195  1.00  0.00     0.148 C 
HETATM    8  C   UNL     1       4.187  37.982  60.517  1.00  0.00    -0.026 A 
HETATM    9  C   UNL     1       4.930  37.898  61.694  1.00  0.00    -0.038 A 
HETATM   10  C   UNL     1       4.185  39.142  59.749  1.00  0.00     0.010 A 
HETATM   11  C   UNL     1       4.953  40.229  60.168  1.00  0.00     0.001 A 
HETATM   12  C   UNL     1       5.716  40.143  61.338  1.00  0.00     0.001 A 
HETATM   13  C   UNL     1       5.707  38.976  62.106  1.00  0.00     0.009 A 
HETATM   14  C   UNL     1       6.093  35.748  62.270  1.00  0.00     0.037 C 
HETATM   15  C   UNL     1       6.046  34.454  63.086  1.00  0.00     0.127 C 
HETATM   16  O   UNL     1       7.600  33.835  65.288  1.00  0.00    -0.266 OA
ENDROOT
BRANCH   6  17
HETATM   17  O   UNL     1       2.390  35.882  62.260  1.00  0.00    -0.380 OA
BRANCH  17  18
HETATM   18  C   UNL     1       1.737  34.610  62.272  1.00  0.00     0.194 C 
BRANCH  18  19
HETATM   19  C   UNL     1       2.652  33.566  61.638  1.00  0.00     0.193 C 
BRANCH  19  20
HETATM   20  O   UNL     1       3.138  32.684  62.648  1.00  0.00    -0.394 OA
HETATM   21  C   UNL     1       4.016  31.704  62.113  1.00  0.00     0.201 C 
ENDBRANCH  19  20
ENDBRANCH  18  19
ENDBRANCH  17  18
ENDBRANCH   6  17
BRANCH   7  22
HETATM   22  N   UNL     1       4.092  36.091  59.020  1.00  0.00    -0.350 N 
HETATM   23  C   UNL     1       3.365  35.306  58.160  1.00  0.00     0.221 C 
HETATM   24  O   UNL     1       2.249  34.875  58.433  1.00  0.00    -0.273 OA
HETATM   25  H   UNL     1       4.944  36.516  58.680  1.00  0.00     0.163 HD
BRANCH  23  26
HETATM   26  C   UNL     1       4.008  35.047  56.802  1.00  0.00     0.070 C 
HETATM   27  C   UNL     1       4.938  36.201  56.434  1.00  0.00     0.019 C 
HETATM   28  C   UNL     1       4.734  33.707  56.751  1.00  0.00     0.019 C 
ENDBRANCH  23  26
ENDBRANCH   7  22
BRANCH   1  29
HETATM   29  C   UNL     1       5.947  34.213  66.893  1.00  0.00     0.154 A 
HETATM   30  N   UNL     1       4.721  33.791  67.245  1.00  0.00    -0.123 NA
HETATM   31  O   UNL     1       4.641  33.930  68.616  1.00  0.00    -0.217 OA
HETATM   32  C   UNL     1       5.828  34.381  69.101  1.00  0.00     0.084 A 
HETATM   33  C   UNL     1       6.698  34.552  68.053  1.00  0.00     0.075 A 
BRANCH  32  34
HETATM   34  C   UNL     1       5.931  34.591  70.573  1.00  0.00     0.037 C 
HETATM   35  C   UNL     1       7.006  35.620  70.922  1.00  0.00     0.016 C 
HETATM   36  C   UNL     1       6.196  33.268  71.291  1.00  0.00     0.016 C 
ENDBRANCH  32  34
ENDBRANCH   1  29
TORSDOF 8
ENDMDL
MODEL 6
REMARK VINA RESULT:      -6.8      2.335      8.955
REMARK  8 active torsions:
REMARK  status: ('A' for Active; 'I' for Inactive)
REMARK    1  A    between atoms: C_2  and  C_3 
REMARK    2  A    between atoms: C_6  and  C_7 
REMARK       I    between atoms: C_7  and  N_8 
REMARK    3  A    between atoms: C_12  and  O_13 
REMARK    4  A    between atoms: O_13  and  C_14 
REMARK    5  A    between atoms: C_14  and  C_15 
REMARK    6  A    between atoms: C_15  and  O_16 
REMARK    7  A    between atoms: C_18  and  N_19 
REMARK       I    between atoms: N_19  and  C_20 
REMARK    8  A    between atoms: C_20  and  C_21 
ROOT
HETATM    1  C   UNL     1       4.963  28.467  54.996  1.00  0.00     0.274 C 
HETATM    2  N   UNL     1       4.920  28.840  53.643  1.00  0.00    -0.347 N 
HETATM    3  C   UNL     1       6.058  28.851  52.723  1.00  0.00     0.127 C 
HETATM    4  C   UNL     1       5.744  28.025  51.478  1.00  0.00     0.037 C 
HETATM    5  C   UNL     1       4.443  28.476  50.777  1.00  0.00     0.019 C 
HETATM    6  C   UNL     1       4.562  29.874  50.048  1.00  0.00     0.162 C 
HETATM    7  C   UNL     1       3.914  29.719  48.632  1.00  0.00     0.148 C 
HETATM    8  C   UNL     1       3.858  28.231  48.446  1.00  0.00    -0.026 A 
HETATM    9  C   UNL     1       4.111  27.540  49.629  1.00  0.00    -0.038 A 
HETATM   10  C   UNL     1       3.543  27.555  47.271  1.00  0.00     0.010 A 
HETATM   11  C   UNL     1       3.472  26.162  47.294  1.00  0.00     0.001 A 
HETATM   12  C   UNL     1       3.706  25.465  48.484  1.00  0.00     0.001 A 
HETATM   13  C   UNL     1       4.027  26.152  49.658  1.00  0.00     0.009 A 
HETATM   14  C   UNL     1       3.292  28.481  51.809  1.00  0.00     0.037 C 
HETATM   15  C   UNL     1       3.649  29.273  53.069  1.00  0.00     0.127 C 
HETATM   16  O   UNL     1       3.925  28.267  55.629  1.00  0.00    -0.266 OA
ENDROOT
BRANCH   6  17
HETATM   17  O   UNL     1       5.950  30.254  49.932  1.00  0.00    -0.380 OA
BRANCH  17  18
HETATM   18  C   UNL     1       6.125  31.621  49.549  1.00  0.00     0.194 C 
BRANCH  18  19
HETATM   19  C   UNL     1       5.142  32.492  50.325  1.00  0.00     0.193 C 
BRANCH  19  20
HETATM   20  O   UNL     1       4.220  33.091  49.416  1.00  0.00    -0.394 OA
HETATM   21  C   UNL     1       3.051  33.551  50.079  1.00  0.00     0.201 C 
ENDBRANCH  19  20
ENDBRANCH  18  19
ENDBRANCH  17  18
ENDBRANCH   6  17
BRANCH   7  22
HETATM   22  N   UNL     1       2.576  30.276  48.500  1.00  0.00    -0.350 N 
HETATM   23  C   UNL     1       2.206  30.998  47.392  1.00  0.00     0.221 C 
HETATM   24  O   UNL     1       3.014  31.416  46.569  1.00  0.00    -0.273 OA
HETATM   25  H   UNL     1       1.850  29.854  49.064  1.00  0.00     0.163 HD
BRANCH  23  26
HETATM   26  C   UNL     1       0.706  31.200  47.210  1.00  0.00     0.070 C 
HETATM   27  C   UNL     1       0.073  29.938  46.626  1.00  0.00     0.019 C 
HETATM   28  C   UNL     1       0.017  31.623  48.504  1.00  0.00     0.019 C 
ENDBRANCH  23  26
ENDBRANCH   7  22
BRANCH   1  29
HETATM   29  C   UNL     1       6.258  28.281  55.670  1.00  0.00     0.154 A 
HETATM   30  N   UNL     1       6.857  27.089  55.833  1.00  0.00    -0.123 NA
HETATM   31  O   UNL     1       8.043  27.336  56.496  1.00  0.00    -0.217 OA
HETATM   32  C   UNL     1       8.191  28.674  56.685  1.00  0.00     0.084 A 
HETATM   33  C   UNL     1       7.100  29.319  56.159  1.00  0.00     0.075 A 
BRANCH  32  34
HETATM   34  C   UNL     1       9.422  29.134  57.388  1.00  0.00     0.037 C 
HETATM   35  C   UNL     1       9.104  30.174  58.462  1.00  0.00     0.016 C 
HETATM   36  C   UNL     1      10.441  29.683  56.389  1.00  0.00     0.016 C 
ENDBRANCH  32  34
ENDBRANCH   1  29
TORSDOF 8
ENDMDL
MODEL 7
REMARK VINA RESULT:      -6.8      3.248      8.276
REMARK  8 active torsions:
REMARK  status: ('A' for Active; 'I' for Inactive)
REMARK    1  A    between atoms: C_2  and  C_3 
REMARK    2  A    between atoms: C_6  and  C_7 
REMARK       I    between atoms: C_7  and  N_8 
REMARK    3  A    between atoms: C_12  and  O_13 
REMARK    4  A    between atoms: O_13  and  C_14 
REMARK    5  A    between atoms: C_14  and  C_15 
REMARK    6  A    between atoms: C_15  and  O_16 
REMARK    7  A    between atoms: C_18  and  N_19 
REMARK       I    between atoms: N_19  and  C_20 
REMARK    8  A    between atoms: C_20  and  C_21 
ROOT
HETATM    1  C   UNL     1       6.726  26.179  53.937  1.00  0.00     0.274 C 
HETATM    2  N   UNL     1       6.447  26.958  52.803  1.00  0.00    -0.347 N 
HETATM    3  C   UNL     1       6.125  26.444  51.471  1.00  0.00     0.127 C 
HETATM    4  C   UNL     1       4.808  27.038  50.977  1.00  0.00     0.037 C 
HETATM    5  C   UNL     1       4.802  28.582  51.006  1.00  0.00     0.019 C 
HETATM    6  C   UNL     1       5.728  29.245  49.910  1.00  0.00     0.162 C 
HETATM    7  C   UNL     1       4.908  30.398  49.241  1.00  0.00     0.148 C 
HETATM    8  C   UNL     1       3.495  30.083  49.636  1.00  0.00    -0.026 A 
HETATM    9  C   UNL     1       3.429  29.112  50.634  1.00  0.00    -0.038 A 
HETATM   10  C   UNL     1       2.343  30.689  49.144  1.00  0.00     0.010 A 
HETATM   11  C   UNL     1       1.108  30.317  49.675  1.00  0.00     0.001 A 
HETATM   12  C   UNL     1       1.038  29.356  50.690  1.00  0.00     0.001 A 
HETATM   13  C   UNL     1       2.199  28.749  51.174  1.00  0.00     0.009 A 
HETATM   14  C   UNL     1       5.188  29.060  52.425  1.00  0.00     0.037 C 
HETATM   15  C   UNL     1       6.485  28.413  52.919  1.00  0.00     0.127 C 
HETATM   16  O   UNL     1       6.758  26.686  55.060  1.00  0.00    -0.266 OA
ENDROOT
BRANCH   6  17
HETATM   17  O   UNL     1       6.113  28.260  48.927  1.00  0.00    -0.380 OA
BRANCH  17  18
HETATM   18  C   UNL     1       5.430  28.419  47.680  1.00  0.00     0.194 C 
BRANCH  18  19
HETATM   19  C   UNL     1       4.580  27.182  47.408  1.00  0.00     0.193 C 
BRANCH  19  20
HETATM   20  O   UNL     1       3.211  27.564  47.287  1.00  0.00    -0.394 OA
HETATM   21  C   UNL     1       2.357  26.704  48.027  1.00  0.00     0.201 C 
ENDBRANCH  19  20
ENDBRANCH  18  19
ENDBRANCH  17  18
ENDBRANCH   6  17
BRANCH   7  22
HETATM   22  N   UNL     1       5.250  31.740  49.688  1.00  0.00    -0.350 N 
HETATM   23  C   UNL     1       5.526  32.746  48.794  1.00  0.00     0.221 C 
HETATM   24  O   UNL     1       5.731  32.540  47.602  1.00  0.00    -0.273 OA
HETATM   25  H   UNL     1       4.964  31.994  50.624  1.00  0.00     0.163 HD
BRANCH  23  26
HETATM   26  C   UNL     1       5.501  34.159  49.366  1.00  0.00     0.070 C 
HETATM   27  C   UNL     1       5.695  34.116  50.880  1.00  0.00     0.019 C 
HETATM   28  C   UNL     1       6.524  35.071  48.698  1.00  0.00     0.019 C 
ENDBRANCH  23  26
ENDBRANCH   7  22
BRANCH   1  29
HETATM   29  C   UNL     1       6.955  24.731  53.800  1.00  0.00     0.154 A 
HETATM   30  N   UNL     1       6.385  23.965  52.855  1.00  0.00    -0.123 NA
HETATM   31  O   UNL     1       6.855  22.682  53.057  1.00  0.00    -0.217 OA
HETATM   32  C   UNL     1       7.747  22.679  54.083  1.00  0.00     0.084 A 
HETATM   33  C   UNL     1       7.865  23.956  54.573  1.00  0.00     0.075 A 
BRANCH  32  34
HETATM   34  C   UNL     1       8.366  21.373  54.448  1.00  0.00     0.037 C 
HETATM   35  C   UNL     1       8.394  20.410  53.261  1.00  0.00     0.016 C 
HETATM   36  C   UNL     1       7.640  20.744  55.638  1.00  0.00     0.016 C 
ENDBRANCH  32  34
ENDBRANCH   1  29
TORSDOF 8
ENDMDL
MODEL 8
REMARK VINA RESULT:      -6.7      3.101      8.988
REMARK  8 active torsions:
REMARK  status: ('A' for Active; 'I' for Inactive)
REMARK    1  A    between atoms: C_2  and  C_3 
REMARK    2  A    between atoms: C_6  and  C_7 
REMARK       I    between atoms: C_7  and  N_8 
REMARK    3  A    between atoms: C_12  and  O_13 
REMARK    4  A    between atoms: O_13  and  C_14 
REMARK    5  A    between atoms: C_14  and  C_15 
REMARK    6  A    between atoms: C_15  and  O_16 
REMARK    7  A    between atoms: C_18  and  N_19 
REMARK       I    between atoms: N_19  and  C_20 
REMARK    8  A    between atoms: C_20  and  C_21 
ROOT
HETATM    1  C   UNL     1       4.714  27.751  53.615  1.00  0.00     0.274 C 
HETATM    2  N   UNL     1       4.545  28.449  52.409  1.00  0.00    -0.347 N 
HETATM    3  C   UNL     1       5.337  28.258  51.193  1.00  0.00     0.127 C 
HETATM    4  C   UNL     1       4.424  27.973  50.004  1.00  0.00     0.037 C 
HETATM    5  C   UNL     1       3.340  29.056  49.810  1.00  0.00     0.019 C 
HETATM    6  C   UNL     1       3.903  30.437  49.285  1.00  0.00     0.162 C 
HETATM    7  C   UNL     1       2.960  30.918  48.133  1.00  0.00     0.148 C 
HETATM    8  C   UNL     1       2.210  29.671  47.765  1.00  0.00    -0.026 A 
HETATM    9  C   UNL     1       2.384  28.654  48.702  1.00  0.00    -0.038 A 
HETATM   10  C   UNL     1       1.379  29.499  46.662  1.00  0.00     0.010 A 
HETATM   11  C   UNL     1       0.705  28.288  46.509  1.00  0.00     0.001 A 
HETATM   12  C   UNL     1       0.860  27.271  47.457  1.00  0.00     0.001 A 
HETATM   13  C   UNL     1       1.701  27.450  48.559  1.00  0.00     0.009 A 
HETATM   14  C   UNL     1       2.568  29.237  51.138  1.00  0.00     0.037 C 
HETATM   15  C   UNL     1       3.507  29.472  52.324  1.00  0.00     0.127 C 
HETATM   16  O   UNL     1       3.862  27.809  54.503  1.00  0.00    -0.266 OA
ENDROOT
BRANCH   6  17
HETATM   17  O   UNL     1       5.252  30.267  48.800  1.00  0.00    -0.380 OA
BRANCH  17  18
HETATM   18  C   UNL     1       6.111  31.358  49.145  1.00  0.00     0.194 C 
BRANCH  18  19
HETATM   19  C   UNL     1       5.639  31.977  50.457  1.00  0.00     0.193 C 
BRANCH  19  20
HETATM   20  O   UNL     1       5.809  33.392  50.402  1.00  0.00    -0.394 OA
HETATM   21  C   UNL     1       5.239  33.946  49.225  1.00  0.00     0.201 C 
ENDBRANCH  19  20
ENDBRANCH  18  19
ENDBRANCH  17  18
ENDBRANCH   6  17
BRANCH   7  22
HETATM   22  N   UNL     1       2.015  31.962  48.501  1.00  0.00    -0.350 N 
HETATM   23  C   UNL     1       1.803  33.054  47.697  1.00  0.00     0.221 C 
HETATM   24  O   UNL     1       2.539  33.343  46.758  1.00  0.00    -0.273 OA
HETATM   25  H   UNL     1       1.300  31.712  49.171  1.00  0.00     0.163 HD
BRANCH  23  26
HETATM   26  C   UNL     1       0.549  33.863  48.004  1.00  0.00     0.070 C 
HETATM   27  C   UNL     1      -0.077  34.375  46.708  1.00  0.00     0.019 C 
HETATM   28  C   UNL     1      -0.458  33.077  48.837  1.00  0.00     0.019 C 
ENDBRANCH  23  26
ENDBRANCH   7  22
BRANCH   1  29
HETATM   29  C   UNL     1       5.905  26.910  53.822  1.00  0.00     0.154 A 
HETATM   30  N   UNL     1       7.117  27.390  54.146  1.00  0.00    -0.123 NA
HETATM   31  O   UNL     1       7.952  26.295  54.258  1.00  0.00    -0.217 OA
HETATM   32  C   UNL     1       7.240  25.155  54.058  1.00  0.00     0.084 A 
HETATM   33  C   UNL     1       5.933  25.488  53.802  1.00  0.00     0.075 A 
BRANCH  32  34
HETATM   34  C   UNL     1       7.979  23.863  54.142  1.00  0.00     0.037 C 
HETATM   35  C   UNL     1       7.753  23.002  52.899  1.00  0.00     0.016 C 
HETATM   36  C   UNL     1       7.588  23.099  55.407  1.00  0.00     0.016 C 
ENDBRANCH  32  34
ENDBRANCH   1  29
TORSDOF 8
ENDMDL
MODEL 9
REMARK VINA RESULT:      -6.5      4.741      9.882
REMARK  8 active torsions:
REMARK  status: ('A' for Active; 'I' for Inactive)
REMARK    1  A    between atoms: C_2  and  C_3 
REMARK    2  A    between atoms: C_6  and  C_7 
REMARK       I    between atoms: C_7  and  N_8 
REMARK    3  A    between atoms: C_12  and  O_13 
REMARK    4  A    between atoms: O_13  and  C_14 
REMARK    5  A    between atoms: C_14  and  C_15 
REMARK    6  A    between atoms: C_15  and  O_16 
REMARK    7  A    between atoms: C_18  and  N_19 
REMARK       I    between atoms: N_19  and  C_20 
REMARK    8  A    between atoms: C_20  and  C_21 
ROOT
HETATM    1  C   UNL     1       5.766  29.524  57.406  1.00  0.00     0.274 C 
HETATM    2  N   UNL     1       4.885  30.533  56.987  1.00  0.00    -0.347 N 
HETATM    3  C   UNL     1       5.209  31.955  56.869  1.00  0.00     0.127 C 
HETATM    4  C   UNL     1       4.878  32.461  55.467  1.00  0.00     0.037 C 
HETATM    5  C   UNL     1       3.414  32.177  55.061  1.00  0.00     0.019 C 
HETATM    6  C   UNL     1       2.354  33.060  55.834  1.00  0.00     0.162 C 
HETATM    7  C   UNL     1       1.336  33.600  54.775  1.00  0.00     0.148 C 
HETATM    8  C   UNL     1       2.056  33.392  53.475  1.00  0.00    -0.026 A 
HETATM    9  C   UNL     1       3.180  32.579  53.617  1.00  0.00    -0.038 A 
HETATM   10  C   UNL     1       1.673  33.879  52.229  1.00  0.00     0.010 A 
HETATM   11  C   UNL     1       2.428  33.531  51.109  1.00  0.00     0.001 A 
HETATM   12  C   UNL     1       3.546  32.700  51.243  1.00  0.00     0.001 A 
HETATM   13  C   UNL     1       3.926  32.220  52.499  1.00  0.00     0.009 A 
HETATM   14  C   UNL     1       3.125  30.670  55.246  1.00  0.00     0.037 C 
HETATM   15  C   UNL     1       3.512  30.175  56.642  1.00  0.00     0.127 C 
HETATM   16  O   UNL     1       5.481  28.334  57.254  1.00  0.00    -0.266 OA
ENDROOT
BRANCH   6  17
HETATM   17  O   UNL     1       3.018  34.154  56.504  1.00  0.00    -0.380 OA
BRANCH  17  18
HETATM   18  C   UNL     1       2.352  34.561  57.702  1.00  0.00     0.194 C 
BRANCH  18  19
HETATM   19  C   UNL     1       3.212  34.194  58.908  1.00  0.00     0.193 C 
BRANCH  19  20
HETATM   20  O   UNL     1       2.733  32.979  59.481  1.00  0.00    -0.394 OA
HETATM   21  C   UNL     1       3.701  32.380  60.331  1.00  0.00     0.201 C 
ENDBRANCH  19  20
ENDBRANCH  18  19
ENDBRANCH  17  18
ENDBRANCH   6  17
BRANCH   7  22
HETATM   22  N   UNL     1       0.057  32.908  54.738  1.00  0.00    -0.350 N 
HETATM   23  C   UNL     1      -1.026  33.364  55.447  1.00  0.00     0.221 C 
HETATM   24  O   UNL     1      -0.938  34.220  56.322  1.00  0.00    -0.273 OA
HETATM   25  H   UNL     1      -0.108  32.299  53.947  1.00  0.00     0.163 HD
BRANCH  23  26
HETATM   26  C   UNL     1      -2.374  32.780  55.038  1.00  0.00     0.070 C 
HETATM   27  C   UNL     1      -3.455  33.210  56.028  1.00  0.00     0.019 C 
HETATM   28  C   UNL     1      -2.752  33.144  53.606  1.00  0.00     0.019 C 
ENDBRANCH  23  26
ENDBRANCH   7  22
BRANCH   1  29
HETATM   29  C   UNL     1       7.063  29.877  58.006  1.00  0.00     0.154 A 
HETATM   30  N   UNL     1       8.250  29.652  57.419  1.00  0.00    -0.123 NA
HETATM   31  O   UNL     1       9.211  30.129  58.288  1.00  0.00    -0.217 OA
HETATM   32  C   UNL     1       8.611  30.690  59.371  1.00  0.00     0.084 A 
HETATM   33  C   UNL     1       7.250  30.578  59.230  1.00  0.00     0.075 A 
BRANCH  32  34
HETATM   34  C   UNL     1       9.495  31.264  60.424  1.00  0.00     0.037 C 
HETATM   35  C   UNL     1       9.487  30.413  61.694  1.00  0.00     0.016 C 
HETATM   36  C   UNL     1       9.096  32.707  60.737  1.00  0.00     0.016 C 
ENDBRANCH  32  34
ENDBRANCH   1  29
TORSDOF 8
ENDMDL
MODEL 10
REMARK VINA RESULT:      -6.4      4.596      7.749
REMARK  8 active torsions:
REMARK  status: ('A' for Active; 'I' for Inactive)
REMARK    1  A    between atoms: C_2  and  C_3 
REMARK    2  A    between atoms: C_6  and  C_7 
REMARK       I    between atoms: C_7  and  N_8 
REMARK    3  A    between atoms: C_12  and  O_13 
REMARK    4  A    between atoms: O_13  and  C_14 
REMARK    5  A    between atoms: C_14  and  C_15 
REMARK    6  A    between atoms: C_15  and  O_16 
REMARK    7  A    between atoms: C_18  and  N_19 
REMARK       I    between atoms: N_19  and  C_20 
REMARK    8  A    between atoms: C_20  and  C_21 
ROOT
HETATM    1  C   UNL     1       6.695  29.080  56.564  1.00  0.00     0.274 C 
HETATM    2  N   UNL     1       5.774  30.127  56.720  1.00  0.00    -0.347 N 
HETATM    3  C   UNL     1       4.319  29.984  56.774  1.00  0.00     0.127 C 
HETATM    4  C   UNL     1       3.767  30.636  58.039  1.00  0.00     0.037 C 
HETATM    5  C   UNL     1       4.197  32.113  58.184  1.00  0.00     0.019 C 
HETATM    6  C   UNL     1       3.498  33.086  57.152  1.00  0.00     0.162 C 
HETATM    7  C   UNL     1       3.017  34.344  57.950  1.00  0.00     0.148 C 
HETATM    8  C   UNL     1       3.053  33.876  59.375  1.00  0.00    -0.026 A 
HETATM    9  C   UNL     1       3.733  32.668  59.518  1.00  0.00    -0.038 A 
HETATM   10  C   UNL     1       2.536  34.547  60.479  1.00  0.00     0.010 A 
HETATM   11  C   UNL     1       2.718  33.995  61.748  1.00  0.00     0.001 A 
HETATM   12  C   UNL     1       3.417  32.792  61.899  1.00  0.00     0.001 A 
HETATM   13  C   UNL     1       3.928  32.123  60.784  1.00  0.00     0.009 A 
HETATM   14  C   UNL     1       5.737  32.200  58.079  1.00  0.00     0.037 C 
HETATM   15  C   UNL     1       6.271  31.496  56.829  1.00  0.00     0.127 C 
HETATM   16  O   UNL     1       7.899  29.263  56.761  1.00  0.00    -0.266 OA
ENDROOT
BRANCH   6  17
HETATM   17  O   UNL     1       2.379  32.422  56.527  1.00  0.00    -0.380 OA
BRANCH  17  18
HETATM   18  C   UNL     1       2.302  32.663  55.119  1.00  0.00     0.194 C 
BRANCH  18  19
HETATM   19  C   UNL     1       0.988  33.368  54.798  1.00  0.00     0.193 C 
BRANCH  19  20
HETATM   20  O   UNL     1      -0.085  32.692  55.452  1.00  0.00    -0.394 OA
HETATM   21  C   UNL     1      -1.350  33.141  54.990  1.00  0.00     0.201 C 
ENDBRANCH  19  20
ENDBRANCH  18  19
ENDBRANCH  17  18
ENDBRANCH   6  17
BRANCH   7  22
HETATM   22  N   UNL     1       3.854  35.526  57.804  1.00  0.00    -0.350 N 
HETATM   23  C   UNL     1       3.311  36.765  57.569  1.00  0.00     0.221 C 
HETATM   24  O   UNL     1       2.140  36.927  57.238  1.00  0.00    -0.273 OA
HETATM   25  H   UNL     1       4.784  35.475  58.198  1.00  0.00     0.163 HD
BRANCH  23  26
HETATM   26  C   UNL     1       4.243  37.947  57.806  1.00  0.00     0.070 C 
HETATM   27  C   UNL     1       4.618  38.032  59.284  1.00  0.00     0.019 C 
HETATM   28  C   UNL     1       5.482  37.895  56.917  1.00  0.00     0.019 C 
ENDBRANCH  23  26
ENDBRANCH   7  22
BRANCH   1  29
HETATM   29  C   UNL     1       6.229  27.734  56.190  1.00  0.00     0.154 A 
HETATM   30  N   UNL     1       5.649  26.875  57.045  1.00  0.00    -0.123 NA
HETATM   31  O   UNL     1       5.352  25.741  56.315  1.00  0.00    -0.217 OA
HETATM   32  C   UNL     1       5.699  25.930  55.014  1.00  0.00     0.084 A 
HETATM   33  C   UNL     1       6.237  27.186  54.877  1.00  0.00     0.075 A 
BRANCH  32  34
HETATM   34  C   UNL     1       5.450  24.806  54.068  1.00  0.00     0.037 C 
HETATM   35  C   UNL     1       6.721  23.999  53.803  1.00  0.00     0.016 C 
HETATM   36  C   UNL     1       4.855  25.324  52.758  1.00  0.00     0.016 C 
ENDBRANCH  32  34
ENDBRANCH   1  29
TORSDOF 8
ENDMDL
