MODEL 1
REMARK VINA RESULT:     -10.6      0.000      0.000
REMARK  5 active torsions:
REMARK  status: ('A' for Active; 'I' for Inactive)
REMARK    1  A    between atoms: C_4  and  C_5 
REMARK    2  A    between atoms: C_17  and  C_18 
REMARK    3  A    between atoms: C_18  and  N_19 
REMARK       I    between atoms: N_19  and  C_20 
REMARK    4  A    between atoms: C_20  and  C_21 
REMARK    5  A    between atoms: C_21  and  C_22 
ROOT
HETATM    1  C   UNL     1       4.593  26.266  49.859  1.00  0.00     0.048 C 
HETATM    2  C   UNL     1       5.202  26.370  51.227  1.00  0.00    -0.060 A 
HETATM    3  C   UNL     1       5.779  25.240  51.843  1.00  0.00     0.024 A 
HETATM    4  C   UNL     1       6.384  25.308  53.115  1.00  0.00     0.034 A 
HETATM    5  C   UNL     1       6.406  26.557  53.725  1.00  0.00     0.088 A 
HETATM    6  C   UNL     1       5.844  27.677  53.125  1.00  0.00    -0.021 A 
HETATM    7  C   UNL     1       6.081  28.876  53.958  1.00  0.00     0.075 C 
HETATM    8  C   UNL     1       6.619  28.213  55.234  1.00  0.00     0.151 C 
HETATM    9  O   UNL     1       7.016  26.851  54.920  1.00  0.00    -0.342 OA
HETATM   10  C   UNL     1       5.241  27.606  51.881  1.00  0.00     0.017 A 
ENDROOT
BRANCH   8  11
HETATM   11  C   UNL     1       7.834  28.951  55.812  1.00  0.00     0.155 C 
BRANCH  11  12
HETATM   12  N   UNL     1       7.658  29.398  57.183  1.00  0.00    -0.359 N 
HETATM   13  C   UNL     1       8.727  29.747  57.979  1.00  0.00     0.219 C 
HETATM   14  O   UNL     1       9.890  29.690  57.598  1.00  0.00    -0.274 OA
HETATM   15  H   UNL     1       6.715  29.537  57.527  1.00  0.00     0.162 HD
BRANCH  13  16
HETATM   16  C   UNL     1       8.308  30.185  59.365  1.00  0.00     0.128 C 
BRANCH  16  17
HETATM   17  C   UNL     1       8.278  31.709  59.543  1.00  0.00     0.094 C 
HETATM   18  N   UNL     1       6.922  32.197  59.303  1.00  0.00    -0.362 N 
HETATM   19  C   UNL     1       5.975  32.323  60.267  1.00  0.00     0.168 C 
HETATM   20  H   UNL     1       6.594  32.292  58.348  1.00  0.00     0.162 HD
HETATM   21  S   UNL     1       4.392  32.632  59.880  1.00  0.00    -0.041 SA
HETATM   22  N   UNL     1       6.375  32.214  61.557  1.00  0.00    -0.363 N 
HETATM   23  C   UNL     1       7.712  31.833  61.981  1.00  0.00     0.081 C 
HETATM   24  H   UNL     1       5.633  32.251  62.245  1.00  0.00     0.162 HD
HETATM   25  C   UNL     1       8.052  32.480  63.320  1.00  0.00     0.032 C 
HETATM   26  C   UNL     1       8.742  32.206  60.916  1.00  0.00     0.050 C 
ENDBRANCH  16  17
ENDBRANCH  13  16
ENDBRANCH  11  12
ENDBRANCH   8  11
BRANCH   4  27
HETATM   27  C   UNL     1       6.963  24.084  53.687  1.00  0.00     0.112 A 
HETATM   28  S   UNL     1       6.939  23.781  55.383  1.00  0.00    -0.067 SA
HETATM   29  C   UNL     1       7.671  22.246  55.134  1.00  0.00     0.035 A 
HETATM   30  C   UNL     1       7.870  22.057  53.767  1.00  0.00     0.075 A 
HETATM   31  C   UNL     1       8.038  21.273  56.079  1.00  0.00     0.021 A 
HETATM   32  N   UNL     1       7.452  23.099  52.958  1.00  0.00    -0.239 NA
HETATM   33  C   UNL     1       8.457  20.853  53.327  1.00  0.00     0.033 A 
HETATM   34  C   UNL     1       8.827  19.878  54.258  1.00  0.00     0.002 A 
HETATM   35  C   UNL     1       8.619  20.088  55.617  1.00  0.00     0.002 A 
ENDBRANCH   4  27
TORSDOF 5
ENDMDL
MODEL 2
REMARK VINA RESULT:     -10.5      1.587      2.195
REMARK  5 active torsions:
REMARK  status: ('A' for Active; 'I' for Inactive)
REMARK    1  A    between atoms: C_4  and  C_5 
REMARK    2  A    between atoms: C_17  and  C_18 
REMARK    3  A    between atoms: C_18  and  N_19 
REMARK       I    between atoms: N_19  and  C_20 
REMARK    4  A    between atoms: C_20  and  C_21 
REMARK    5  A    between atoms: C_21  and  C_22 
ROOT
HETATM    1  C   UNL     1       3.198  28.644  52.360  1.00  0.00     0.048 C 
HETATM    2  C   UNL     1       4.135  28.209  53.449  1.00  0.00    -0.060 A 
HETATM    3  C   UNL     1       4.756  26.944  53.398  1.00  0.00     0.024 A 
HETATM    4  C   UNL     1       5.662  26.514  54.389  1.00  0.00     0.034 A 
HETATM    5  C   UNL     1       5.935  27.415  55.412  1.00  0.00     0.088 A 
HETATM    6  C   UNL     1       5.333  28.666  55.469  1.00  0.00    -0.021 A 
HETATM    7  C   UNL     1       5.865  29.438  56.613  1.00  0.00     0.075 C 
HETATM    8  C   UNL     1       6.649  28.335  57.338  1.00  0.00     0.151 C 
HETATM    9  O   UNL     1       6.846  27.224  56.423  1.00  0.00    -0.342 OA
HETATM   10  C   UNL     1       4.434  29.081  54.500  1.00  0.00     0.017 A 
ENDROOT
BRANCH   8  11
HETATM   11  C   UNL     1       8.024  28.813  57.821  1.00  0.00     0.155 C 
BRANCH  11  12
HETATM   12  N   UNL     1       8.009  29.424  59.140  1.00  0.00    -0.359 N 
HETATM   13  C   UNL     1       8.834  30.478  59.464  1.00  0.00     0.219 C 
HETATM   14  O   UNL     1       9.643  30.960  58.679  1.00  0.00    -0.274 OA
HETATM   15  H   UNL     1       7.308  29.118  59.804  1.00  0.00     0.162 HD
BRANCH  13  16
HETATM   16  C   UNL     1       8.645  30.956  60.887  1.00  0.00     0.128 C 
BRANCH  16  17
HETATM   17  C   UNL     1       8.111  32.392  60.986  1.00  0.00     0.094 C 
HETATM   18  N   UNL     1       7.135  32.619  59.923  1.00  0.00    -0.362 N 
HETATM   19  C   UNL     1       5.804  32.389  60.047  1.00  0.00     0.168 C 
HETATM   20  H   UNL     1       7.465  32.796  58.980  1.00  0.00     0.162 HD
HETATM   21  S   UNL     1       4.800  32.420  58.728  1.00  0.00    -0.041 SA
HETATM   22  N   UNL     1       5.322  32.161  61.293  1.00  0.00    -0.363 N 
HETATM   23  C   UNL     1       6.140  32.003  62.483  1.00  0.00     0.081 C 
HETATM   24  H   UNL     1       4.336  31.932  61.340  1.00  0.00     0.162 HD
HETATM   25  C   UNL     1       5.384  32.483  63.718  1.00  0.00     0.032 C 
HETATM   26  C   UNL     1       7.465  32.747  62.329  1.00  0.00     0.050 C 
ENDBRANCH  16  17
ENDBRANCH  13  16
ENDBRANCH  11  12
ENDBRANCH   8  11
BRANCH   4  27
HETATM   27  C   UNL     1       6.266  25.180  54.263  1.00  0.00     0.112 A 
HETATM   28  S   UNL     1       6.776  24.560  52.739  1.00  0.00    -0.067 SA
HETATM   29  C   UNL     1       7.373  23.139  53.499  1.00  0.00     0.035 A 
HETATM   30  C   UNL     1       7.160  23.240  54.873  1.00  0.00     0.075 A 
HETATM   31  C   UNL     1       7.993  22.017  52.924  1.00  0.00     0.021 A 
HETATM   32  N   UNL     1       6.545  24.405  55.294  1.00  0.00    -0.239 NA
HETATM   33  C   UNL     1       7.580  22.180  55.704  1.00  0.00     0.033 A 
HETATM   34  C   UNL     1       8.197  21.058  55.143  1.00  0.00     0.002 A 
HETATM   35  C   UNL     1       8.401  20.980  53.769  1.00  0.00     0.002 A 
ENDBRANCH   4  27
TORSDOF 5
ENDMDL
MODEL 3
REMARK VINA RESULT:     -10.4      1.770      4.841
REMARK  5 active torsions:
REMARK  status: ('A' for Active; 'I' for Inactive)
REMARK    1  A    between atoms: C_4  and  C_5 
REMARK    2  A    between atoms: C_17  and  C_18 
REMARK    3  A    between atoms: C_18  and  N_19 
REMARK       I    between atoms: N_19  and  C_20 
REMARK    4  A    between atoms: C_20  and  C_21 
REMARK    5  A    between atoms: C_21  and  C_22 
ROOT
HETATM    1  C   UNL     1       7.981  21.622  53.331  1.00  0.00     0.048 C 
HETATM    2  C   UNL     1       7.689  23.043  53.718  1.00  0.00    -0.060 A 
HETATM    3  C   UNL     1       7.038  23.912  52.818  1.00  0.00     0.024 A 
HETATM    4  C   UNL     1       6.724  25.244  53.159  1.00  0.00     0.034 A 
HETATM    5  C   UNL     1       7.068  25.654  54.441  1.00  0.00     0.088 A 
HETATM    6  C   UNL     1       7.706  24.804  55.337  1.00  0.00    -0.021 A 
HETATM    7  C   UNL     1       7.878  25.475  56.644  1.00  0.00     0.075 C 
HETATM    8  C   UNL     1       7.487  26.910  56.262  1.00  0.00     0.151 C 
HETATM    9  O   UNL     1       6.778  26.878  54.994  1.00  0.00    -0.342 OA
HETATM   10  C   UNL     1       8.023  23.500  54.997  1.00  0.00     0.017 A 
ENDROOT
BRANCH   8  11
HETATM   11  C   UNL     1       6.580  27.570  57.307  1.00  0.00     0.155 C 
BRANCH  11  12
HETATM   12  N   UNL     1       7.298  28.302  58.337  1.00  0.00    -0.359 N 
HETATM   13  C   UNL     1       7.822  29.556  58.109  1.00  0.00     0.219 C 
HETATM   14  O   UNL     1       7.734  30.129  57.030  1.00  0.00    -0.274 OA
HETATM   15  H   UNL     1       7.335  27.909  59.270  1.00  0.00     0.162 HD
BRANCH  13  16
HETATM   16  C   UNL     1       8.523  30.128  59.321  1.00  0.00     0.128 C 
BRANCH  16  17
HETATM   17  C   UNL     1       8.374  31.650  59.454  1.00  0.00     0.094 C 
HETATM   18  N   UNL     1       6.994  32.028  59.159  1.00  0.00    -0.362 N 
HETATM   19  C   UNL     1       6.011  32.109  60.089  1.00  0.00     0.168 C 
HETATM   20  H   UNL     1       6.691  32.073  58.192  1.00  0.00     0.162 HD
HETATM   21  S   UNL     1       4.422  32.288  59.646  1.00  0.00    -0.041 SA
HETATM   22  N   UNL     1       6.376  32.065  61.393  1.00  0.00    -0.363 N 
HETATM   23  C   UNL     1       7.723  31.797  61.868  1.00  0.00     0.081 C 
HETATM   24  H   UNL     1       5.611  32.065  62.058  1.00  0.00     0.162 HD
HETATM   25  C   UNL     1       7.970  32.503  63.198  1.00  0.00     0.032 C 
HETATM   26  C   UNL     1       8.756  32.216  60.825  1.00  0.00     0.050 C 
ENDBRANCH  16  17
ENDBRANCH  13  16
ENDBRANCH  11  12
ENDBRANCH   8  11
BRANCH   4  27
HETATM   27  C   UNL     1       6.044  26.085  52.163  1.00  0.00     0.112 A 
HETATM   28  S   UNL     1       6.083  27.804  52.255  1.00  0.00    -0.067 SA
HETATM   29  C   UNL     1       5.198  27.919  50.786  1.00  0.00     0.035 A 
HETATM   30  C   UNL     1       4.947  26.632  50.310  1.00  0.00     0.075 A 
HETATM   31  C   UNL     1       4.763  29.064  50.098  1.00  0.00     0.021 A 
HETATM   32  N   UNL     1       5.442  25.604  51.091  1.00  0.00    -0.239 NA
HETATM   33  C   UNL     1       4.233  26.484  49.103  1.00  0.00     0.033 A 
HETATM   34  C   UNL     1       3.794  27.616  48.409  1.00  0.00     0.002 A 
HETATM   35  C   UNL     1       4.058  28.889  48.903  1.00  0.00     0.002 A 
ENDBRANCH   4  27
TORSDOF 5
ENDMDL
MODEL 4
REMARK VINA RESULT:     -10.4      2.705      5.650
REMARK  5 active torsions:
REMARK  status: ('A' for Active; 'I' for Inactive)
REMARK    1  A    between atoms: C_4  and  C_5 
REMARK    2  A    between atoms: C_17  and  C_18 
REMARK    3  A    between atoms: C_18  and  N_19 
REMARK       I    between atoms: N_19  and  C_20 
REMARK    4  A    between atoms: C_20  and  C_21 
REMARK    5  A    between atoms: C_21  and  C_22 
ROOT
HETATM    1  C   UNL     1       8.109  20.695  52.972  1.00  0.00     0.048 C 
HETATM    2  C   UNL     1       7.975  22.059  53.583  1.00  0.00    -0.060 A 
HETATM    3  C   UNL     1       7.354  23.106  52.869  1.00  0.00     0.024 A 
HETATM    4  C   UNL     1       7.186  24.393  53.422  1.00  0.00     0.034 A 
HETATM    5  C   UNL     1       7.644  24.573  54.722  1.00  0.00     0.088 A 
HETATM    6  C   UNL     1       8.253  23.548  55.435  1.00  0.00    -0.021 A 
HETATM    7  C   UNL     1       8.565  23.996  56.810  1.00  0.00     0.075 C 
HETATM    8  C   UNL     1       8.287  25.499  56.670  1.00  0.00     0.151 C 
HETATM    9  O   UNL     1       7.502  25.719  55.467  1.00  0.00    -0.342 OA
HETATM   10  C   UNL     1       8.426  22.288  54.886  1.00  0.00     0.017 A 
ENDROOT
BRANCH   8  11
HETATM   11  C   UNL     1       7.509  26.066  57.865  1.00  0.00     0.155 C 
BRANCH  11  12
HETATM   12  N   UNL     1       6.800  27.302  57.577  1.00  0.00    -0.359 N 
HETATM   13  C   UNL     1       7.420  28.530  57.648  1.00  0.00     0.219 C 
HETATM   14  O   UNL     1       8.593  28.669  57.972  1.00  0.00    -0.274 OA
HETATM   15  H   UNL     1       5.850  27.243  57.231  1.00  0.00     0.162 HD
BRANCH  13  16
HETATM   16  C   UNL     1       6.493  29.676  57.304  1.00  0.00     0.128 C 
BRANCH  16  17
HETATM   17  C   UNL     1       5.006  29.297  57.356  1.00  0.00     0.094 C 
HETATM   18  N   UNL     1       4.355  30.039  58.432  1.00  0.00    -0.362 N 
HETATM   19  C   UNL     1       3.776  31.256  58.278  1.00  0.00     0.168 C 
HETATM   20  H   UNL     1       4.477  29.728  59.390  1.00  0.00     0.162 HD
HETATM   21  S   UNL     1       3.291  32.149  59.589  1.00  0.00    -0.041 SA
HETATM   22  N   UNL     1       3.584  31.703  57.013  1.00  0.00    -0.363 N 
HETATM   23  C   UNL     1       4.078  31.043  55.817  1.00  0.00     0.081 C 
HETATM   24  H   UNL     1       3.207  32.640  56.938  1.00  0.00     0.162 HD
HETATM   25  C   UNL     1       3.151  31.315  54.636  1.00  0.00     0.032 C 
HETATM   26  C   UNL     1       4.235  29.543  56.055  1.00  0.00     0.050 C 
ENDBRANCH  16  17
ENDBRANCH  13  16
ENDBRANCH  11  12
ENDBRANCH   8  11
BRANCH   4  27
HETATM   27  C   UNL     1       6.528  25.428  52.612  1.00  0.00     0.112 A 
HETATM   28  S   UNL     1       6.663  27.100  53.002  1.00  0.00    -0.067 SA
HETATM   29  C   UNL     1       5.750  27.515  51.607  1.00  0.00     0.035 A 
HETATM   30  C   UNL     1       5.417  26.347  50.923  1.00  0.00     0.075 A 
HETATM   31  C   UNL     1       5.361  28.784  51.144  1.00  0.00     0.021 A 
HETATM   32  N   UNL     1       5.875  25.173  51.494  1.00  0.00    -0.239 NA
HETATM   33  C   UNL     1       4.667  26.448  49.733  1.00  0.00     0.033 A 
HETATM   34  C   UNL     1       4.273  27.705  49.263  1.00  0.00     0.002 A 
HETATM   35  C   UNL     1       4.618  28.857  49.962  1.00  0.00     0.002 A 
ENDBRANCH   4  27
TORSDOF 5
ENDMDL
MODEL 5
REMARK VINA RESULT:     -10.4      4.330     10.044
REMARK  5 active torsions:
REMARK  status: ('A' for Active; 'I' for Inactive)
REMARK    1  A    between atoms: C_4  and  C_5 
REMARK    2  A    between atoms: C_17  and  C_18 
REMARK    3  A    between atoms: C_18  and  N_19 
REMARK       I    between atoms: N_19  and  C_20 
REMARK    4  A    between atoms: C_20  and  C_21 
REMARK    5  A    between atoms: C_21  and  C_22 
ROOT
HETATM    1  C   UNL     1       8.422  22.318  56.526  1.00  0.00     0.048 C 
HETATM    2  C   UNL     1       7.799  23.526  55.890  1.00  0.00    -0.060 A 
HETATM    3  C   UNL     1       7.973  24.806  56.458  1.00  0.00     0.024 A 
HETATM    4  C   UNL     1       7.425  25.966  55.873  1.00  0.00     0.034 A 
HETATM    5  C   UNL     1       6.721  25.789  54.687  1.00  0.00     0.088 A 
HETATM    6  C   UNL     1       6.548  24.534  54.117  1.00  0.00    -0.021 A 
HETATM    7  C   UNL     1       5.832  24.653  52.828  1.00  0.00     0.075 C 
HETATM    8  C   UNL     1       5.398  26.123  52.897  1.00  0.00     0.151 C 
HETATM    9  O   UNL     1       6.183  26.793  53.920  1.00  0.00    -0.342 OA
HETATM   10  C   UNL     1       7.077  23.395  54.700  1.00  0.00     0.017 A 
ENDROOT
BRANCH   8  11
HETATM   11  C   UNL     1       5.605  26.861  51.568  1.00  0.00     0.155 C 
BRANCH  11  12
HETATM   12  N   UNL     1       4.533  26.661  50.607  1.00  0.00    -0.359 N 
HETATM   13  C   UNL     1       4.532  27.281  49.377  1.00  0.00     0.219 C 
HETATM   14  O   UNL     1       5.415  28.050  49.016  1.00  0.00    -0.274 OA
HETATM   15  H   UNL     1       3.817  25.978  50.821  1.00  0.00     0.162 HD
BRANCH  13  16
HETATM   16  C   UNL     1       3.322  26.925  48.542  1.00  0.00     0.128 C 
BRANCH  16  17
HETATM   17  C   UNL     1       2.114  27.839  48.791  1.00  0.00     0.094 C 
HETATM   18  N   UNL     1       2.464  29.211  48.431  1.00  0.00    -0.362 N 
HETATM   19  C   UNL     1       2.288  29.744  47.197  1.00  0.00     0.168 C 
HETATM   20  H   UNL     1       3.025  29.761  49.073  1.00  0.00     0.162 HD
HETATM   21  S   UNL     1       2.944  31.214  46.794  1.00  0.00    -0.041 SA
HETATM   22  N   UNL     1       1.534  29.045  46.314  1.00  0.00    -0.363 N 
HETATM   23  C   UNL     1       1.019  27.706  46.542  1.00  0.00     0.081 C 
HETATM   24  H   UNL     1       1.476  29.443  45.384  1.00  0.00     0.162 HD
HETATM   25  C   UNL     1      -0.294  27.504  45.791  1.00  0.00     0.032 C 
HETATM   26  C   UNL     1       0.841  27.443  48.035  1.00  0.00     0.050 C 
ENDBRANCH  16  17
ENDBRANCH  13  16
ENDBRANCH  11  12
ENDBRANCH   8  11
BRANCH   4  27
HETATM   27  C   UNL     1       7.652  27.262  56.529  1.00  0.00     0.112 A 
HETATM   28  S   UNL     1       6.361  28.152  57.240  1.00  0.00    -0.067 SA
HETATM   29  C   UNL     1       7.468  29.350  57.784  1.00  0.00     0.035 A 
HETATM   30  C   UNL     1       8.756  28.981  57.401  1.00  0.00     0.075 A 
HETATM   31  C   UNL     1       7.216  30.531  58.504  1.00  0.00     0.021 A 
HETATM   32  N   UNL     1       8.849  27.790  56.703  1.00  0.00    -0.239 NA
HETATM   33  C   UNL     1       9.834  29.821  57.749  1.00  0.00     0.033 A 
HETATM   34  C   UNL     1       9.596  30.999  58.465  1.00  0.00     0.002 A 
HETATM   35  C   UNL     1       8.302  31.346  58.837  1.00  0.00     0.002 A 
ENDBRANCH   4  27
TORSDOF 5
ENDMDL
MODEL 6
REMARK VINA RESULT:     -10.4      2.162      3.108
REMARK  5 active torsions:
REMARK  status: ('A' for Active; 'I' for Inactive)
REMARK    1  A    between atoms: C_4  and  C_5 
REMARK    2  A    between atoms: C_17  and  C_18 
REMARK    3  A    between atoms: C_18  and  N_19 
REMARK       I    between atoms: N_19  and  C_20 
REMARK    4  A    between atoms: C_20  and  C_21 
REMARK    5  A    between atoms: C_21  and  C_22 
ROOT
HETATM    1  C   UNL     1       3.481  29.440  52.855  1.00  0.00     0.048 C 
HETATM    2  C   UNL     1       4.392  29.007  53.967  1.00  0.00    -0.060 A 
HETATM    3  C   UNL     1       4.990  27.730  53.947  1.00  0.00     0.024 A 
HETATM    4  C   UNL     1       5.871  27.300  54.961  1.00  0.00     0.034 A 
HETATM    5  C   UNL     1       6.143  28.213  55.974  1.00  0.00     0.088 A 
HETATM    6  C   UNL     1       5.563  29.475  56.000  1.00  0.00    -0.021 A 
HETATM    7  C   UNL     1       6.089  30.256  57.140  1.00  0.00     0.075 C 
HETATM    8  C   UNL     1       6.841  29.152  57.897  1.00  0.00     0.151 C 
HETATM    9  O   UNL     1       7.032  28.022  57.003  1.00  0.00    -0.342 OA
HETATM   10  C   UNL     1       4.689  29.890  55.009  1.00  0.00     0.017 A 
ENDROOT
BRANCH   8  11
HETATM   11  C   UNL     1       8.216  29.613  58.396  1.00  0.00     0.155 C 
BRANCH  11  12
HETATM   12  N   UNL     1       8.192  30.229  59.712  1.00  0.00    -0.359 N 
HETATM   13  C   UNL     1       8.565  31.541  59.909  1.00  0.00     0.219 C 
HETATM   14  O   UNL     1       8.956  32.267  59.004  1.00  0.00    -0.274 OA
HETATM   15  H   UNL     1       7.805  29.700  60.484  1.00  0.00     0.162 HD
BRANCH  13  16
HETATM   16  C   UNL     1       8.457  31.970  61.356  1.00  0.00     0.128 C 
BRANCH  16  17
HETATM   17  C   UNL     1       7.100  31.642  61.992  1.00  0.00     0.094 C 
HETATM   18  N   UNL     1       7.103  32.075  63.388  1.00  0.00    -0.362 N 
HETATM   19  C   UNL     1       6.713  33.305  63.806  1.00  0.00     0.168 C 
HETATM   20  H   UNL     1       7.576  31.504  64.080  1.00  0.00     0.162 HD
HETATM   21  S   UNL     1       6.988  33.810  65.362  1.00  0.00    -0.041 SA
HETATM   22  N   UNL     1       6.066  34.094  62.914  1.00  0.00    -0.363 N 
HETATM   23  C   UNL     1       5.884  33.779  61.507  1.00  0.00     0.081 C 
HETATM   24  H   UNL     1       5.845  35.027  63.242  1.00  0.00     0.162 HD
HETATM   25  C   UNL     1       4.594  34.401  60.983  1.00  0.00     0.032 C 
HETATM   26  C   UNL     1       5.891  32.268  61.288  1.00  0.00     0.050 C 
ENDBRANCH  16  17
ENDBRANCH  13  16
ENDBRANCH  11  12
ENDBRANCH   8  11
BRANCH   4  27
HETATM   27  C   UNL     1       6.453  25.953  54.867  1.00  0.00     0.112 A 
HETATM   28  S   UNL     1       6.410  24.857  56.194  1.00  0.00    -0.067 SA
HETATM   29  C   UNL     1       7.157  23.642  55.234  1.00  0.00     0.035 A 
HETATM   30  C   UNL     1       7.374  24.150  53.954  1.00  0.00     0.075 A 
HETATM   31  C   UNL     1       7.521  22.331  55.585  1.00  0.00     0.021 A 
HETATM   32  N   UNL     1       6.958  25.454  53.754  1.00  0.00    -0.239 NA
HETATM   33  C   UNL     1       7.976  23.317  52.988  1.00  0.00     0.033 A 
HETATM   34  C   UNL     1       8.342  22.011  53.325  1.00  0.00     0.002 A 
HETATM   35  C   UNL     1       8.116  21.526  54.609  1.00  0.00     0.002 A 
ENDBRANCH   4  27
TORSDOF 5
ENDMDL
MODEL 7
REMARK VINA RESULT:     -10.2      3.730      8.198
REMARK  5 active torsions:
REMARK  status: ('A' for Active; 'I' for Inactive)
REMARK    1  A    between atoms: C_4  and  C_5 
REMARK    2  A    between atoms: C_17  and  C_18 
REMARK    3  A    between atoms: C_18  and  N_19 
REMARK       I    between atoms: N_19  and  C_20 
REMARK    4  A    between atoms: C_20  and  C_21 
REMARK    5  A    between atoms: C_21  and  C_22 
ROOT
HETATM    1  C   UNL     1       8.395  29.622  58.688  1.00  0.00     0.048 C 
HETATM    2  C   UNL     1       7.626  29.100  57.508  1.00  0.00    -0.060 A 
HETATM    3  C   UNL     1       7.805  27.772  57.066  1.00  0.00     0.024 A 
HETATM    4  C   UNL     1       7.080  27.241  55.979  1.00  0.00     0.034 A 
HETATM    5  C   UNL     1       6.157  28.088  55.377  1.00  0.00     0.088 A 
HETATM    6  C   UNL     1       5.970  29.396  55.807  1.00  0.00    -0.021 A 
HETATM    7  C   UNL     1       4.878  30.034  55.041  1.00  0.00     0.075 C 
HETATM    8  C   UNL     1       4.669  28.982  53.944  1.00  0.00     0.151 C 
HETATM    9  O   UNL     1       5.298  27.740  54.363  1.00  0.00    -0.342 OA
HETATM   10  C   UNL     1       6.691  29.918  56.868  1.00  0.00     0.017 A 
ENDROOT
BRANCH   8  11
HETATM   11  C   UNL     1       3.185  28.704  53.670  1.00  0.00     0.155 C 
BRANCH  11  12
HETATM   12  N   UNL     1       2.872  28.489  52.268  1.00  0.00    -0.359 N 
HETATM   13  C   UNL     1       3.026  29.482  51.326  1.00  0.00     0.219 C 
HETATM   14  O   UNL     1       3.416  30.610  51.603  1.00  0.00    -0.274 OA
HETATM   15  H   UNL     1       2.619  27.555  51.969  1.00  0.00     0.162 HD
BRANCH  13  16
HETATM   16  C   UNL     1       2.645  29.034  49.932  1.00  0.00     0.128 C 
BRANCH  16  17
HETATM   17  C   UNL     1       3.847  28.617  49.073  1.00  0.00     0.094 C 
HETATM   18  N   UNL     1       4.833  27.944  49.915  1.00  0.00    -0.362 N 
HETATM   19  C   UNL     1       4.857  26.607  50.140  1.00  0.00     0.168 C 
HETATM   20  H   UNL     1       5.438  28.502  50.507  1.00  0.00     0.162 HD
HETATM   21  S   UNL     1       5.838  25.950  51.306  1.00  0.00    -0.041 SA
HETATM   22  N   UNL     1       4.072  25.825  49.360  1.00  0.00    -0.363 N 
HETATM   23  C   UNL     1       3.102  26.322  48.399  1.00  0.00     0.081 C 
HETATM   24  H   UNL     1       4.069  24.840  49.598  1.00  0.00     0.162 HD
HETATM   25  C   UNL     1       2.945  25.339  47.243  1.00  0.00     0.032 C 
HETATM   26  C   UNL     1       3.506  27.704  47.890  1.00  0.00     0.050 C 
ENDBRANCH  16  17
ENDBRANCH  13  16
ENDBRANCH  11  12
ENDBRANCH   8  11
BRANCH   4  27
HETATM   27  C   UNL     1       7.326  25.847  55.581  1.00  0.00     0.112 A 
HETATM   28  S   UNL     1       7.176  24.549  56.703  1.00  0.00    -0.067 SA
HETATM   29  C   UNL     1       7.521  23.415  55.458  1.00  0.00     0.035 A 
HETATM   30  C   UNL     1       7.710  24.103  54.260  1.00  0.00     0.075 A 
HETATM   31  C   UNL     1       7.611  22.014  55.532  1.00  0.00     0.021 A 
HETATM   32  N   UNL     1       7.583  25.478  54.341  1.00  0.00    -0.239 NA
HETATM   33  C   UNL     1       8.000  23.367  53.093  1.00  0.00     0.033 A 
HETATM   34  C   UNL     1       8.093  21.973  53.154  1.00  0.00     0.002 A 
HETATM   35  C   UNL     1       7.900  21.307  54.360  1.00  0.00     0.002 A 
ENDBRANCH   4  27
TORSDOF 5
ENDMDL
MODEL 8
REMARK VINA RESULT:      -9.9      2.054      2.655
REMARK  5 active torsions:
REMARK  status: ('A' for Active; 'I' for Inactive)
REMARK    1  A    between atoms: C_4  and  C_5 
REMARK    2  A    between atoms: C_17  and  C_18 
REMARK    3  A    between atoms: C_18  and  N_19 
REMARK       I    between atoms: N_19  and  C_20 
REMARK    4  A    between atoms: C_20  and  C_21 
REMARK    5  A    between atoms: C_21  and  C_22 
ROOT
HETATM    1  C   UNL     1       5.016  27.047  50.069  1.00  0.00     0.048 C 
HETATM    2  C   UNL     1       5.107  26.865  51.556  1.00  0.00    -0.060 A 
HETATM    3  C   UNL     1       5.786  25.755  52.102  1.00  0.00     0.024 A 
HETATM    4  C   UNL     1       5.914  25.567  53.494  1.00  0.00     0.034 A 
HETATM    5  C   UNL     1       5.356  26.547  54.306  1.00  0.00     0.088 A 
HETATM    6  C   UNL     1       4.689  27.646  53.778  1.00  0.00    -0.021 A 
HETATM    7  C   UNL     1       4.270  28.559  54.864  1.00  0.00     0.075 C 
HETATM    8  C   UNL     1       4.564  27.677  56.085  1.00  0.00     0.151 C 
HETATM    9  O   UNL     1       5.442  26.593  55.676  1.00  0.00    -0.342 OA
HETATM   10  C   UNL     1       4.555  27.823  52.411  1.00  0.00     0.017 A 
ENDROOT
BRANCH   8  11
HETATM   11  C   UNL     1       5.247  28.451  57.219  1.00  0.00     0.155 C 
BRANCH  11  12
HETATM   12  N   UNL     1       4.503  29.614  57.673  1.00  0.00    -0.359 N 
HETATM   13  C   UNL     1       5.107  30.837  57.865  1.00  0.00     0.219 C 
HETATM   14  O   UNL     1       6.305  31.025  57.686  1.00  0.00    -0.274 OA
HETATM   15  H   UNL     1       3.497  29.536  57.764  1.00  0.00     0.162 HD
BRANCH  13  16
HETATM   16  C   UNL     1       4.141  31.902  58.335  1.00  0.00     0.128 C 
BRANCH  16  17
HETATM   17  C   UNL     1       3.863  31.854  59.844  1.00  0.00     0.094 C 
HETATM   18  N   UNL     1       5.129  31.764  60.567  1.00  0.00    -0.362 N 
HETATM   19  C   UNL     1       5.842  32.837  60.992  1.00  0.00     0.168 C 
HETATM   20  H   UNL     1       5.606  30.870  60.616  1.00  0.00     0.162 HD
HETATM   21  S   UNL     1       7.387  32.666  61.571  1.00  0.00    -0.041 SA
HETATM   22  N   UNL     1       5.236  34.048  60.953  1.00  0.00    -0.363 N 
HETATM   23  C   UNL     1       3.934  34.304  60.360  1.00  0.00     0.081 C 
HETATM   24  H   UNL     1       5.818  34.833  61.220  1.00  0.00     0.162 HD
HETATM   25  C   UNL     1       3.241  35.461  61.073  1.00  0.00     0.032 C 
HETATM   26  C   UNL     1       3.070  33.046  60.390  1.00  0.00     0.050 C 
ENDBRANCH  16  17
ENDBRANCH  13  16
ENDBRANCH  11  12
ENDBRANCH   8  11
BRANCH   4  27
HETATM   27  C   UNL     1       6.637  24.383  53.982  1.00  0.00     0.112 A 
HETATM   28  S   UNL     1       6.933  24.135  55.660  1.00  0.00    -0.067 SA
HETATM   29  C   UNL     1       7.671  22.620  55.321  1.00  0.00     0.035 A 
HETATM   30  C   UNL     1       7.627  22.395  53.946  1.00  0.00     0.075 A 
HETATM   31  C   UNL     1       8.244  21.693  56.208  1.00  0.00     0.021 A 
HETATM   32  N   UNL     1       7.026  23.394  53.200  1.00  0.00    -0.239 NA
HETATM   33  C   UNL     1       8.174  21.199  53.437  1.00  0.00     0.033 A 
HETATM   34  C   UNL     1       8.747  20.268  54.309  1.00  0.00     0.002 A 
HETATM   35  C   UNL     1       8.780  20.514  55.678  1.00  0.00     0.002 A 
ENDBRANCH   4  27
TORSDOF 5
ENDMDL
MODEL 9
REMARK VINA RESULT:      -9.8      4.288      8.801
REMARK  5 active torsions:
REMARK  status: ('A' for Active; 'I' for Inactive)
REMARK    1  A    between atoms: C_4  and  C_5 
REMARK    2  A    between atoms: C_17  and  C_18 
REMARK    3  A    between atoms: C_18  and  N_19 
REMARK       I    between atoms: N_19  and  C_20 
REMARK    4  A    between atoms: C_20  and  C_21 
REMARK    5  A    between atoms: C_21  and  C_22 
ROOT
HETATM    1  C   UNL     1       8.288  28.874  58.149  1.00  0.00     0.048 C 
HETATM    2  C   UNL     1       7.782  28.183  56.917  1.00  0.00    -0.060 A 
HETATM    3  C   UNL     1       8.045  26.814  56.703  1.00  0.00     0.024 A 
HETATM    4  C   UNL     1       7.562  26.127  55.570  1.00  0.00     0.034 A 
HETATM    5  C   UNL     1       6.788  26.864  54.681  1.00  0.00     0.088 A 
HETATM    6  C   UNL     1       6.520  28.212  54.884  1.00  0.00    -0.021 A 
HETATM    7  C   UNL     1       5.614  28.717  53.830  1.00  0.00     0.075 C 
HETATM    8  C   UNL     1       5.636  27.525  52.864  1.00  0.00     0.151 C 
HETATM    9  O   UNL     1       6.159  26.365  53.566  1.00  0.00    -0.342 OA
HETATM   10  C   UNL     1       7.004  28.887  55.992  1.00  0.00     0.017 A 
ENDROOT
BRANCH   8  11
HETATM   11  C   UNL     1       4.241  27.177  52.327  1.00  0.00     0.155 C 
BRANCH  11  12
HETATM   12  N   UNL     1       3.973  27.698  50.997  1.00  0.00    -0.359 N 
HETATM   13  C   UNL     1       4.351  27.019  49.859  1.00  0.00     0.219 C 
HETATM   14  O   UNL     1       4.949  25.950  49.887  1.00  0.00    -0.274 OA
HETATM   15  H   UNL     1       3.415  28.538  50.913  1.00  0.00     0.162 HD
BRANCH  13  16
HETATM   16  C   UNL     1       3.966  27.745  48.589  1.00  0.00     0.128 C 
BRANCH  16  17
HETATM   17  C   UNL     1       2.848  28.778  48.788  1.00  0.00     0.094 C 
HETATM   18  N   UNL     1       3.150  29.973  48.004  1.00  0.00    -0.362 N 
HETATM   19  C   UNL     1       2.749  30.166  46.722  1.00  0.00     0.168 C 
HETATM   20  H   UNL     1       3.835  30.633  48.355  1.00  0.00     0.162 HD
HETATM   21  S   UNL     1       3.344  31.421  45.816  1.00  0.00    -0.041 SA
HETATM   22  N   UNL     1       1.824  29.312  46.220  1.00  0.00    -0.363 N 
HETATM   23  C   UNL     1       1.336  28.125  46.900  1.00  0.00     0.081 C 
HETATM   24  H   UNL     1       1.595  29.448  45.242  1.00  0.00     0.162 HD
HETATM   25  C   UNL     1      -0.101  27.825  46.485  1.00  0.00     0.032 C 
HETATM   26  C   UNL     1       1.446  28.287  48.414  1.00  0.00     0.050 C 
ENDBRANCH  16  17
ENDBRANCH  13  16
ENDBRANCH  11  12
ENDBRANCH   8  11
BRANCH   4  27
HETATM   27  C   UNL     1       7.880  24.699  55.422  1.00  0.00     0.112 A 
HETATM   28  S   UNL     1       8.098  23.676  56.790  1.00  0.00    -0.067 SA
HETATM   29  C   UNL     1       8.320  22.319  55.758  1.00  0.00     0.035 A 
HETATM   30  C   UNL     1       8.194  22.734  54.433  1.00  0.00     0.075 A 
HETATM   31  C   UNL     1       8.579  20.980  56.095  1.00  0.00     0.021 A 
HETATM   32  N   UNL     1       7.932  24.081  54.256  1.00  0.00    -0.239 NA
HETATM   33  C   UNL     1       8.333  21.778  53.406  1.00  0.00     0.033 A 
HETATM   34  C   UNL     1       8.592  20.442  53.729  1.00  0.00     0.002 A 
HETATM   35  C   UNL     1       8.713  20.050  55.059  1.00  0.00     0.002 A 
ENDBRANCH   4  27
TORSDOF 5
ENDMDL
MODEL 10
REMARK VINA RESULT:      -9.7      4.921      8.633
REMARK  5 active torsions:
REMARK  status: ('A' for Active; 'I' for Inactive)
REMARK    1  A    between atoms: C_4  and  C_5 
REMARK    2  A    between atoms: C_17  and  C_18 
REMARK    3  A    between atoms: C_18  and  N_19 
REMARK       I    between atoms: N_19  and  C_20 
REMARK    4  A    between atoms: C_20  and  C_21 
REMARK    5  A    between atoms: C_21  and  C_22 
ROOT
HETATM    1  C   UNL     1       4.813  28.618  56.467  1.00  0.00     0.048 C 
HETATM    2  C   UNL     1       5.111  27.843  55.217  1.00  0.00    -0.060 A 
HETATM    3  C   UNL     1       5.739  26.582  55.288  1.00  0.00     0.024 A 
HETATM    4  C   UNL     1       6.010  25.815  54.136  1.00  0.00     0.034 A 
HETATM    5  C   UNL     1       5.603  26.355  52.922  1.00  0.00     0.088 A 
HETATM    6  C   UNL     1       4.980  27.594  52.841  1.00  0.00    -0.021 A 
HETATM    7  C   UNL     1       4.589  27.879  51.444  1.00  0.00     0.075 C 
HETATM    8  C   UNL     1       5.325  26.742  50.722  1.00  0.00     0.151 C 
HETATM    9  O   UNL     1       5.699  25.734  51.700  1.00  0.00    -0.342 OA
HETATM   10  C   UNL     1       4.725  28.350  53.973  1.00  0.00     0.017 A 
ENDROOT
BRANCH   8  11
HETATM   11  C   UNL     1       4.462  26.074  49.644  1.00  0.00     0.155 C 
BRANCH  11  12
HETATM   12  N   UNL     1       3.321  26.870  49.223  1.00  0.00    -0.359 N 
HETATM   13  C   UNL     1       2.902  26.905  47.911  1.00  0.00     0.219 C 
HETATM   14  O   UNL     1       3.464  26.288  47.014  1.00  0.00    -0.274 OA
HETATM   15  H   UNL     1       2.773  27.339  49.933  1.00  0.00     0.162 HD
BRANCH  13  16
HETATM   16  C   UNL     1       1.696  27.794  47.704  1.00  0.00     0.128 C 
BRANCH  16  17
HETATM   17  C   UNL     1       1.986  29.028  46.838  1.00  0.00     0.094 C 
HETATM   18  N   UNL     1       0.834  29.926  46.874  1.00  0.00    -0.362 N 
HETATM   19  C   UNL     1       0.670  30.920  47.782  1.00  0.00     0.168 C 
HETATM   20  H   UNL     1       0.021  29.708  46.308  1.00  0.00     0.162 HD
HETATM   21  S   UNL     1      -0.774  31.724  47.924  1.00  0.00    -0.041 SA
HETATM   22  N   UNL     1       1.737  31.250  48.549  1.00  0.00    -0.363 N 
HETATM   23  C   UNL     1       2.998  30.527  48.571  1.00  0.00     0.081 C 
HETATM   24  H   UNL     1       1.561  31.952  49.258  1.00  0.00     0.162 HD
HETATM   25  C   UNL     1       4.149  31.472  48.901  1.00  0.00     0.032 C 
HETATM   26  C   UNL     1       3.236  29.817  47.240  1.00  0.00     0.050 C 
ENDBRANCH  16  17
ENDBRANCH  13  16
ENDBRANCH  11  12
ENDBRANCH   8  11
BRANCH   4  27
HETATM   27  C   UNL     1       6.668  24.510  54.296  1.00  0.00     0.112 A 
HETATM   28  S   UNL     1       7.022  23.862  55.853  1.00  0.00    -0.067 SA
HETATM   29  C   UNL     1       7.634  22.426  55.132  1.00  0.00     0.035 A 
HETATM   30  C   UNL     1       7.510  22.529  53.747  1.00  0.00     0.075 A 
HETATM   31  C   UNL     1       8.178  21.286  55.747  1.00  0.00     0.021 A 
HETATM   32  N   UNL     1       6.950  23.707  53.288  1.00  0.00    -0.239 NA
HETATM   33  C   UNL     1       7.947  21.453  52.946  1.00  0.00     0.033 A 
HETATM   34  C   UNL     1       8.491  20.313  53.547  1.00  0.00     0.002 A 
HETATM   35  C   UNL     1       8.603  20.233  54.931  1.00  0.00     0.002 A 
ENDBRANCH   4  27
TORSDOF 5
ENDMDL
