MODEL 1
REMARK VINA RESULT:     -11.0      0.000      0.000
REMARK  9 active torsions:
REMARK  status: ('A' for Active; 'I' for Inactive)
REMARK    1  A    between atoms: C_2  and  C_3 
REMARK    2  A    between atoms: C_3  and  C_4 
REMARK       I    between atoms: C_4  and  N_6 
REMARK    3  A    between atoms: N_6  and  C_7 
REMARK    4  A    between atoms: C_11  and  C_13 
REMARK    5  A    between atoms: C_15  and  N_16 
REMARK    6  A    between atoms: N_16  and  C_17 
REMARK    7  A    between atoms: C_29  and  O_30 
REMARK    8  A    between atoms: O_30  and  C_31 
REMARK    9  A    between atoms: C_31  and  C_32 
ROOT
HETATM    1  C   UNL     1       6.493  28.293  56.790  1.00  0.00     0.162 A 
HETATM    2  N   UNL     1       5.668  27.930  55.799  1.00  0.00    -0.210 NA
HETATM    3  C   UNL     1       5.740  26.666  55.349  1.00  0.00     0.143 A 
HETATM    4  C   UNL     1       6.630  25.734  55.904  1.00  0.00     0.041 A 
HETATM    5  C   UNL     1       6.747  24.378  55.504  1.00  0.00     0.054 A 
HETATM    6  C   UNL     1       7.646  23.512  56.127  1.00  0.00     0.069 A 
HETATM    7  C   UNL     1       8.464  24.008  57.132  1.00  0.00     0.039 A 
HETATM    8  C   UNL     1       8.362  25.352  57.514  1.00  0.00     0.035 A 
HETATM    9  C   UNL     1       7.455  26.224  56.923  1.00  0.00     0.073 A 
HETATM   10  N   UNL     1       7.404  27.487  57.357  1.00  0.00    -0.228 NA
ENDROOT
BRANCH   1  11
HETATM   11  C   UNL     1       6.346  29.659  57.316  1.00  0.00     0.014 A 
HETATM   12  C   UNL     1       5.539  30.600  56.652  1.00  0.00     0.015 A 
HETATM   13  C   UNL     1       5.373  31.890  57.152  1.00  0.00     0.003 A 
HETATM   14  C   UNL     1       6.026  32.276  58.322  1.00  0.00     0.029 A 
HETATM   15  C   UNL     1       6.852  31.377  58.998  1.00  0.00     0.035 A 
HETATM   16  C   UNL     1       6.998  30.075  58.494  1.00  0.00     0.044 A 
BRANCH  15  17
HETATM   17  N   UNL     1       7.588  31.712  60.154  1.00  0.00    -0.327 N 
HETATM   18  C   UNL     1       8.891  32.175  60.213  1.00  0.00     0.222 C 
HETATM   19  O   UNL     1       9.609  32.474  59.265  1.00  0.00    -0.273 OA
HETATM   20  H   UNL     1       7.099  31.611  61.035  1.00  0.00     0.169 HD
BRANCH  18  21
HETATM   21  C   UNL     1       9.423  32.250  61.632  1.00  0.00     0.103 C 
BRANCH  21  22
HETATM   22  C   UNL     1       8.387  31.710  62.612  1.00  0.00     0.005 C 
HETATM   23  C   UNL     1       7.953  32.769  63.610  1.00  0.00     0.005 C 
ENDBRANCH  21  22
ENDBRANCH  18  21
ENDBRANCH  15  17
ENDBRANCH   1  11
BRANCH   3  24
HETATM   24  N   UNL     1       4.869  26.267  54.302  1.00  0.00    -0.340 N 
HETATM   25  H   UNL     1       3.912  26.282  54.636  1.00  0.00     0.167 HD
BRANCH  24  26
HETATM   26  C   UNL     1       4.966  26.619  52.934  1.00  0.00     0.034 A 
HETATM   27  C   UNL     1       4.991  25.604  51.963  1.00  0.00     0.032 A 
HETATM   28  C   UNL     1       5.134  25.881  50.595  1.00  0.00     0.034 A 
HETATM   29  C   UNL     1       5.282  27.221  50.233  1.00  0.00     0.062 A 
HETATM   30  N   UNL     1       5.444  27.829  49.015  1.00  0.00    -0.278 N 
HETATM   31  C   UNL     1       5.297  28.253  51.160  1.00  0.00     0.013 A 
HETATM   32  H   UNL     1       5.481  27.389  48.105  1.00  0.00     0.189 HD
HETATM   33  N   UNL     1       5.574  29.168  49.081  1.00  0.00    -0.186 NA
HETATM   34  C   UNL     1       5.482  29.422  50.390  1.00  0.00     0.152 A 
HETATM   35  C   UNL     1       5.149  27.953  52.526  1.00  0.00     0.044 A 
ENDBRANCH  24  26
ENDBRANCH   3  24
BRANCH   6  36
HETATM   36  O   UNL     1       7.624  22.229  55.660  1.00  0.00    -0.351 OA
BRANCH  36  37
HETATM   37  C   UNL     1       8.877  21.641  55.312  1.00  0.00     0.180 C 
BRANCH  37  38
HETATM   38  C   UNL     1       9.020  21.708  53.821  1.00  0.00     0.010 A 
HETATM   39  C   UNL     1       8.554  20.567  52.953  1.00  0.00     0.007 A 
HETATM   40  C   UNL     1       7.807  21.873  52.942  1.00  0.00     0.007 A 
ENDBRANCH  37  38
ENDBRANCH  36  37
ENDBRANCH   6  36
TORSDOF 9
ENDMDL
MODEL 2
REMARK VINA RESULT:     -10.9      2.129      2.614
REMARK  9 active torsions:
REMARK  status: ('A' for Active; 'I' for Inactive)
REMARK    1  A    between atoms: C_2  and  C_3 
REMARK    2  A    between atoms: C_3  and  C_4 
REMARK       I    between atoms: C_4  and  N_6 
REMARK    3  A    between atoms: N_6  and  C_7 
REMARK    4  A    between atoms: C_11  and  C_13 
REMARK    5  A    between atoms: C_15  and  N_16 
REMARK    6  A    between atoms: N_16  and  C_17 
REMARK    7  A    between atoms: C_29  and  O_30 
REMARK    8  A    between atoms: O_30  and  C_31 
REMARK    9  A    between atoms: C_31  and  C_32 
ROOT
HETATM    1  C   UNL     1       8.504  28.601  56.969  1.00  0.00     0.162 A 
HETATM    2  N   UNL     1       8.109  28.950  55.737  1.00  0.00    -0.210 NA
HETATM    3  C   UNL     1       7.703  27.976  54.905  1.00  0.00     0.143 A 
HETATM    4  C   UNL     1       7.665  26.631  55.304  1.00  0.00     0.041 A 
HETATM    5  C   UNL     1       7.225  25.551  54.496  1.00  0.00     0.054 A 
HETATM    6  C   UNL     1       7.199  24.245  54.982  1.00  0.00     0.069 A 
HETATM    7  C   UNL     1       7.651  24.003  56.272  1.00  0.00     0.039 A 
HETATM    8  C   UNL     1       8.103  25.066  57.064  1.00  0.00     0.035 A 
HETATM    9  C   UNL     1       8.113  26.378  56.606  1.00  0.00     0.073 A 
HETATM   10  N   UNL     1       8.540  27.341  57.429  1.00  0.00    -0.228 NA
ENDROOT
BRANCH   1  11
HETATM   11  C   UNL     1       8.874  29.690  57.886  1.00  0.00     0.014 A 
HETATM   12  C   UNL     1       9.951  30.544  57.588  1.00  0.00     0.015 A 
HETATM   13  C   UNL     1      10.298  31.593  58.437  1.00  0.00     0.003 A 
HETATM   14  C   UNL     1       9.583  31.803  59.616  1.00  0.00     0.029 A 
HETATM   15  C   UNL     1       8.522  30.965  59.956  1.00  0.00     0.035 A 
HETATM   16  C   UNL     1       8.171  29.922  59.085  1.00  0.00     0.044 A 
BRANCH  15  17
HETATM   17  N   UNL     1       7.790  31.082  61.157  1.00  0.00    -0.327 N 
HETATM   18  C   UNL     1       6.838  32.038  61.468  1.00  0.00     0.222 C 
HETATM   19  O   UNL     1       6.386  32.897  60.720  1.00  0.00    -0.273 OA
HETATM   20  H   UNL     1       7.978  30.379  61.860  1.00  0.00     0.169 HD
BRANCH  18  21
HETATM   21  C   UNL     1       6.394  31.973  62.917  1.00  0.00     0.103 C 
BRANCH  21  22
HETATM   22  C   UNL     1       7.546  32.358  63.839  1.00  0.00     0.005 C 
HETATM   23  C   UNL     1       7.203  33.570  64.689  1.00  0.00     0.005 C 
ENDBRANCH  21  22
ENDBRANCH  18  21
ENDBRANCH  15  17
ENDBRANCH   1  11
BRANCH   3  24
HETATM   24  N   UNL     1       7.280  28.332  53.598  1.00  0.00    -0.340 N 
HETATM   25  H   UNL     1       7.850  27.845  52.916  1.00  0.00     0.167 HD
BRANCH  24  26
HETATM   26  C   UNL     1       5.947  28.512  53.154  1.00  0.00     0.034 A 
HETATM   27  C   UNL     1       4.912  28.589  54.101  1.00  0.00     0.032 A 
HETATM   28  C   UNL     1       3.566  28.718  53.728  1.00  0.00     0.034 A 
HETATM   29  C   UNL     1       3.287  28.738  52.360  1.00  0.00     0.062 A 
HETATM   30  N   UNL     1       2.110  28.845  51.666  1.00  0.00    -0.278 N 
HETATM   31  C   UNL     1       4.274  28.630  51.390  1.00  0.00     0.013 A 
HETATM   32  H   UNL     1       1.177  28.942  52.044  1.00  0.00     0.189 HD
HETATM   33  N   UNL     1       2.254  28.804  50.328  1.00  0.00    -0.186 NA
HETATM   34  C   UNL     1       3.574  28.675  50.164  1.00  0.00     0.152 A 
HETATM   35  C   UNL     1       5.617  28.504  51.787  1.00  0.00     0.044 A 
ENDBRANCH  24  26
ENDBRANCH   3  24
BRANCH   6  36
HETATM   36  O   UNL     1       6.720  23.316  54.104  1.00  0.00    -0.351 OA
BRANCH  36  37
HETATM   37  C   UNL     1       7.663  22.701  53.227  1.00  0.00     0.180 C 
BRANCH  37  38
HETATM   38  C   UNL     1       7.663  21.229  53.507  1.00  0.00     0.010 A 
HETATM   39  C   UNL     1       8.714  20.332  52.903  1.00  0.00     0.007 A 
HETATM   40  C   UNL     1       8.726  20.616  54.381  1.00  0.00     0.007 A 
ENDBRANCH  37  38
ENDBRANCH  36  37
ENDBRANCH   6  36
TORSDOF 9
ENDMDL
MODEL 3
REMARK VINA RESULT:     -10.4      1.641      2.512
REMARK  9 active torsions:
REMARK  status: ('A' for Active; 'I' for Inactive)
REMARK    1  A    between atoms: C_2  and  C_3 
REMARK    2  A    between atoms: C_3  and  C_4 
REMARK       I    between atoms: C_4  and  N_6 
REMARK    3  A    between atoms: N_6  and  C_7 
REMARK    4  A    between atoms: C_11  and  C_13 
REMARK    5  A    between atoms: C_15  and  N_16 
REMARK    6  A    between atoms: N_16  and  C_17 
REMARK    7  A    between atoms: C_29  and  O_30 
REMARK    8  A    between atoms: O_30  and  C_31 
REMARK    9  A    between atoms: C_31  and  C_32 
ROOT
HETATM    1  C   UNL     1       7.170  28.114  57.377  1.00  0.00     0.162 A 
HETATM    2  N   UNL     1       6.180  27.939  56.492  1.00  0.00    -0.210 NA
HETATM    3  C   UNL     1       6.035  26.723  55.939  1.00  0.00     0.143 A 
HETATM    4  C   UNL     1       6.872  25.650  56.284  1.00  0.00     0.041 A 
HETATM    5  C   UNL     1       6.768  24.333  55.766  1.00  0.00     0.054 A 
HETATM    6  C   UNL     1       7.631  23.320  56.181  1.00  0.00     0.069 A 
HETATM    7  C   UNL     1       8.632  23.626  57.092  1.00  0.00     0.039 A 
HETATM    8  C   UNL     1       8.747  24.931  57.589  1.00  0.00     0.035 A 
HETATM    9  C   UNL     1       7.882  25.948  57.206  1.00  0.00     0.073 A 
HETATM   10  N   UNL     1       8.044  27.163  57.741  1.00  0.00    -0.228 NA
ENDROOT
BRANCH   1  11
HETATM   11  C   UNL     1       7.263  29.432  58.024  1.00  0.00     0.014 A 
HETATM   12  C   UNL     1       8.465  29.856  58.618  1.00  0.00     0.015 A 
HETATM   13  C   UNL     1       8.573  31.110  59.215  1.00  0.00     0.003 A 
HETATM   14  C   UNL     1       7.473  31.967  59.246  1.00  0.00     0.029 A 
HETATM   15  C   UNL     1       6.258  31.574  58.685  1.00  0.00     0.035 A 
HETATM   16  C   UNL     1       6.166  30.314  58.072  1.00  0.00     0.044 A 
BRANCH  15  17
HETATM   17  N   UNL     1       5.089  32.363  58.727  1.00  0.00    -0.327 N 
HETATM   18  C   UNL     1       4.774  33.438  57.913  1.00  0.00     0.222 C 
HETATM   19  O   UNL     1       5.408  33.837  56.942  1.00  0.00    -0.273 OA
HETATM   20  H   UNL     1       4.404  32.101  59.424  1.00  0.00     0.169 HD
BRANCH  18  21
HETATM   21  C   UNL     1       3.523  34.167  58.364  1.00  0.00     0.103 C 
BRANCH  21  22
HETATM   22  C   UNL     1       3.580  34.433  59.865  1.00  0.00     0.005 C 
HETATM   23  C   UNL     1       2.191  34.536  60.470  1.00  0.00     0.005 C 
ENDBRANCH  21  22
ENDBRANCH  18  21
ENDBRANCH  15  17
ENDBRANCH   1  11
BRANCH   3  24
HETATM   24  N   UNL     1       4.988  26.522  55.002  1.00  0.00    -0.340 N 
HETATM   25  H   UNL     1       4.119  26.872  55.389  1.00  0.00     0.167 HD
BRANCH  24  26
HETATM   26  C   UNL     1       5.059  26.692  53.598  1.00  0.00     0.034 A 
HETATM   27  C   UNL     1       5.088  25.559  52.769  1.00  0.00     0.032 A 
HETATM   28  C   UNL     1       5.206  25.655  51.374  1.00  0.00     0.034 A 
HETATM   29  C   UNL     1       5.324  26.938  50.836  1.00  0.00     0.062 A 
HETATM   30  N   UNL     1       5.457  27.382  49.546  1.00  0.00    -0.278 N 
HETATM   31  C   UNL     1       5.334  28.083  51.619  1.00  0.00     0.013 A 
HETATM   32  H   UNL     1       5.488  26.826  48.702  1.00  0.00     0.189 HD
HETATM   33  N   UNL     1       5.563  28.719  49.433  1.00  0.00    -0.186 NA
HETATM   34  C   UNL     1       5.486  29.143  50.698  1.00  0.00     0.152 A 
HETATM   35  C   UNL     1       5.211  27.963  53.015  1.00  0.00     0.044 A 
ENDBRANCH  24  26
ENDBRANCH   3  24
BRANCH   6  36
HETATM   36  O   UNL     1       7.390  22.097  55.624  1.00  0.00    -0.351 OA
BRANCH  36  37
HETATM   37  C   UNL     1       8.522  21.275  55.342  1.00  0.00     0.180 C 
BRANCH  37  38
HETATM   38  C   UNL     1       8.878  21.458  53.898  1.00  0.00     0.010 A 
HETATM   39  C   UNL     1       8.334  20.524  52.848  1.00  0.00     0.007 A 
HETATM   40  C   UNL     1       7.849  21.947  52.912  1.00  0.00     0.007 A 
ENDBRANCH  37  38
ENDBRANCH  36  37
ENDBRANCH   6  36
TORSDOF 9
ENDMDL
MODEL 4
REMARK VINA RESULT:     -10.3      2.855      5.766
REMARK  9 active torsions:
REMARK  status: ('A' for Active; 'I' for Inactive)
REMARK    1  A    between atoms: C_2  and  C_3 
REMARK    2  A    between atoms: C_3  and  C_4 
REMARK       I    between atoms: C_4  and  N_6 
REMARK    3  A    between atoms: N_6  and  C_7 
REMARK    4  A    between atoms: C_11  and  C_13 
REMARK    5  A    between atoms: C_15  and  N_16 
REMARK    6  A    between atoms: N_16  and  C_17 
REMARK    7  A    between atoms: C_29  and  O_30 
REMARK    8  A    between atoms: O_30  and  C_31 
REMARK    9  A    between atoms: C_31  and  C_32 
ROOT
HETATM    1  C   UNL     1       7.498  28.586  55.188  1.00  0.00     0.162 A 
HETATM    2  N   UNL     1       7.985  27.471  54.628  1.00  0.00    -0.210 NA
HETATM    3  C   UNL     1       7.332  26.957  53.573  1.00  0.00     0.143 A 
HETATM    4  C   UNL     1       6.185  27.569  53.045  1.00  0.00     0.041 A 
HETATM    5  C   UNL     1       5.455  27.104  51.920  1.00  0.00     0.054 A 
HETATM    6  C   UNL     1       4.336  27.788  51.448  1.00  0.00     0.069 A 
HETATM    7  C   UNL     1       3.913  28.924  52.123  1.00  0.00     0.039 A 
HETATM    8  C   UNL     1       4.622  29.373  53.245  1.00  0.00     0.035 A 
HETATM    9  C   UNL     1       5.754  28.719  53.716  1.00  0.00     0.073 A 
HETATM   10  N   UNL     1       6.388  29.221  54.781  1.00  0.00    -0.228 NA
ENDROOT
BRANCH   1  11
HETATM   11  C   UNL     1       8.270  29.172  56.295  1.00  0.00     0.014 A 
HETATM   12  C   UNL     1       9.668  29.301  56.204  1.00  0.00     0.015 A 
HETATM   13  C   UNL     1      10.409  29.874  57.236  1.00  0.00     0.003 A 
HETATM   14  C   UNL     1       9.769  30.318  58.393  1.00  0.00     0.029 A 
HETATM   15  C   UNL     1       8.387  30.189  58.528  1.00  0.00     0.035 A 
HETATM   16  C   UNL     1       7.649  29.624  57.476  1.00  0.00     0.044 A 
BRANCH  15  17
HETATM   17  N   UNL     1       7.679  30.563  59.690  1.00  0.00    -0.327 N 
HETATM   18  C   UNL     1       7.767  31.764  60.374  1.00  0.00     0.222 C 
HETATM   19  O   UNL     1       8.402  32.758  60.038  1.00  0.00    -0.273 OA
HETATM   20  H   UNL     1       7.028  29.878  60.052  1.00  0.00     0.169 HD
BRANCH  18  21
HETATM   21  C   UNL     1       7.005  31.748  61.685  1.00  0.00     0.103 C 
BRANCH  21  22
HETATM   22  C   UNL     1       7.206  33.065  62.428  1.00  0.00     0.005 C 
HETATM   23  C   UNL     1       7.883  32.853  63.771  1.00  0.00     0.005 C 
ENDBRANCH  21  22
ENDBRANCH  18  21
ENDBRANCH  15  17
ENDBRANCH   1  11
BRANCH   3  24
HETATM   24  N   UNL     1       7.839  25.777  52.968  1.00  0.00    -0.340 N 
HETATM   25  H   UNL     1       8.716  25.988  52.505  1.00  0.00     0.167 HD
BRANCH  24  26
HETATM   26  C   UNL     1       7.816  24.467  53.505  1.00  0.00     0.034 A 
HETATM   27  C   UNL     1       7.598  24.293  54.882  1.00  0.00     0.032 A 
HETATM   28  C   UNL     1       7.610  23.027  55.487  1.00  0.00     0.034 A 
HETATM   29  C   UNL     1       7.880  21.934  54.661  1.00  0.00     0.062 A 
HETATM   30  N   UNL     1       7.970  20.591  54.918  1.00  0.00    -0.278 N 
HETATM   31  C   UNL     1       8.134  22.063  53.303  1.00  0.00     0.013 A 
HETATM   32  H   UNL     1       7.843  20.122  55.806  1.00  0.00     0.189 HD
HETATM   33  N   UNL     1       8.273  19.843  53.841  1.00  0.00    -0.186 NA
HETATM   34  C   UNL     1       8.370  20.743  52.858  1.00  0.00     0.152 A 
HETATM   35  C   UNL     1       8.114  23.341  52.717  1.00  0.00     0.044 A 
ENDBRANCH  24  26
ENDBRANCH   3  24
BRANCH   6  36
HETATM   36  O   UNL     1       3.757  27.243  50.338  1.00  0.00    -0.351 OA
BRANCH  36  37
HETATM   37  C   UNL     1       4.582  26.429  49.506  1.00  0.00     0.180 C 
BRANCH  37  38
HETATM   38  C   UNL     1       3.937  26.344  48.156  1.00  0.00     0.010 A 
HETATM   39  C   UNL     1       3.124  25.135  47.769  1.00  0.00     0.007 A 
HETATM   40  C   UNL     1       2.441  26.453  48.015  1.00  0.00     0.007 A 
ENDBRANCH  37  38
ENDBRANCH  36  37
ENDBRANCH   6  36
TORSDOF 9
ENDMDL
MODEL 5
REMARK VINA RESULT:     -10.3      2.594      9.036
REMARK  9 active torsions:
REMARK  status: ('A' for Active; 'I' for Inactive)
REMARK    1  A    between atoms: C_2  and  C_3 
REMARK    2  A    between atoms: C_3  and  C_4 
REMARK       I    between atoms: C_4  and  N_6 
REMARK    3  A    between atoms: N_6  and  C_7 
REMARK    4  A    between atoms: C_11  and  C_13 
REMARK    5  A    between atoms: C_15  and  N_16 
REMARK    6  A    between atoms: N_16  and  C_17 
REMARK    7  A    between atoms: C_29  and  O_30 
REMARK    8  A    between atoms: O_30  and  C_31 
REMARK    9  A    between atoms: C_31  and  C_32 
ROOT
HETATM    1  C   UNL     1       7.412  27.889  55.945  1.00  0.00     0.162 A 
HETATM    2  N   UNL     1       6.281  28.367  56.480  1.00  0.00    -0.210 NA
HETATM    3  C   UNL     1       6.376  29.386  57.350  1.00  0.00     0.143 A 
HETATM    4  C   UNL     1       7.613  29.960  57.683  1.00  0.00     0.041 A 
HETATM    5  C   UNL     1       7.795  31.052  58.570  1.00  0.00     0.054 A 
HETATM    6  C   UNL     1       9.062  31.575  58.828  1.00  0.00     0.069 A 
HETATM    7  C   UNL     1      10.164  30.983  58.227  1.00  0.00     0.039 A 
HETATM    8  C   UNL     1       9.986  29.892  57.366  1.00  0.00     0.035 A 
HETATM    9  C   UNL     1       8.731  29.373  57.077  1.00  0.00     0.073 A 
HETATM   10  N   UNL     1       8.642  28.343  56.229  1.00  0.00    -0.228 NA
ENDROOT
BRANCH   1  11
HETATM   11  C   UNL     1       7.277  26.823  54.939  1.00  0.00     0.014 A 
HETATM   12  C   UNL     1       7.123  27.138  53.577  1.00  0.00     0.015 A 
HETATM   13  C   UNL     1       7.016  26.138  52.612  1.00  0.00     0.003 A 
HETATM   14  C   UNL     1       7.045  24.796  52.990  1.00  0.00     0.029 A 
HETATM   15  C   UNL     1       7.176  24.444  54.333  1.00  0.00     0.035 A 
HETATM   16  C   UNL     1       7.299  25.460  55.294  1.00  0.00     0.044 A 
BRANCH  15  17
HETATM   17  N   UNL     1       7.158  23.111  54.796  1.00  0.00    -0.327 N 
HETATM   18  C   UNL     1       8.242  22.349  55.198  1.00  0.00     0.222 C 
HETATM   19  O   UNL     1       9.401  22.726  55.321  1.00  0.00    -0.273 OA
HETATM   20  H   UNL     1       6.247  22.673  54.847  1.00  0.00     0.169 HD
BRANCH  18  21
HETATM   21  C   UNL     1       7.876  20.899  55.452  1.00  0.00     0.103 C 
BRANCH  21  22
HETATM   22  C   UNL     1       8.636  19.988  54.494  1.00  0.00     0.005 C 
HETATM   23  C   UNL     1       8.374  20.355  53.044  1.00  0.00     0.005 C 
ENDBRANCH  21  22
ENDBRANCH  18  21
ENDBRANCH  15  17
ENDBRANCH   1  11
BRANCH   3  24
HETATM   24  N   UNL     1       5.186  29.905  57.923  1.00  0.00    -0.340 N 
HETATM   25  H   UNL     1       5.320  30.031  58.920  1.00  0.00     0.167 HD
BRANCH  24  26
HETATM   26  C   UNL     1       4.332  30.889  57.367  1.00  0.00     0.034 A 
HETATM   27  C   UNL     1       3.560  30.570  56.239  1.00  0.00     0.032 A 
HETATM   28  C   UNL     1       2.731  31.512  55.609  1.00  0.00     0.034 A 
HETATM   29  C   UNL     1       2.725  32.804  56.138  1.00  0.00     0.062 A 
HETATM   30  N   UNL     1       2.051  33.940  55.775  1.00  0.00    -0.278 N 
HETATM   31  C   UNL     1       3.498  33.172  57.231  1.00  0.00     0.013 A 
HETATM   32  H   UNL     1       1.391  34.050  55.016  1.00  0.00     0.189 HD
HETATM   33  N   UNL     1       2.333  35.014  56.535  1.00  0.00    -0.186 NA
HETATM   34  C   UNL     1       3.214  34.542  57.422  1.00  0.00     0.152 A 
HETATM   35  C   UNL     1       4.319  32.211  57.847  1.00  0.00     0.044 A 
ENDBRANCH  24  26
ENDBRANCH   3  24
BRANCH   6  36
HETATM   36  O   UNL     1       9.079  32.646  59.674  1.00  0.00    -0.351 OA
BRANCH  36  37
HETATM   37  C   UNL     1       8.105  32.667  60.717  1.00  0.00     0.180 C 
BRANCH  37  38
HETATM   38  C   UNL     1       8.764  32.187  61.975  1.00  0.00     0.010 A 
HETATM   39  C   UNL     1       8.054  32.286  63.301  1.00  0.00     0.007 A 
HETATM   40  C   UNL     1       8.277  30.940  62.667  1.00  0.00     0.007 A 
ENDBRANCH  37  38
ENDBRANCH  36  37
ENDBRANCH   6  36
TORSDOF 9
ENDMDL
MODEL 6
REMARK VINA RESULT:     -10.2      1.069      1.572
REMARK  9 active torsions:
REMARK  status: ('A' for Active; 'I' for Inactive)
REMARK    1  A    between atoms: C_2  and  C_3 
REMARK    2  A    between atoms: C_3  and  C_4 
REMARK       I    between atoms: C_4  and  N_6 
REMARK    3  A    between atoms: N_6  and  C_7 
REMARK    4  A    between atoms: C_11  and  C_13 
REMARK    5  A    between atoms: C_15  and  N_16 
REMARK    6  A    between atoms: N_16  and  C_17 
REMARK    7  A    between atoms: C_29  and  O_30 
REMARK    8  A    between atoms: O_30  and  C_31 
REMARK    9  A    between atoms: C_31  and  C_32 
ROOT
HETATM    1  C   UNL     1       6.197  28.735  56.390  1.00  0.00     0.162 A 
HETATM    2  N   UNL     1       5.354  28.503  55.374  1.00  0.00    -0.210 NA
HETATM    3  C   UNL     1       5.391  27.295  54.787  1.00  0.00     0.143 A 
HETATM    4  C   UNL     1       6.263  26.286  55.227  1.00  0.00     0.041 A 
HETATM    5  C   UNL     1       6.343  24.980  54.679  1.00  0.00     0.054 A 
HETATM    6  C   UNL     1       7.225  24.030  55.192  1.00  0.00     0.069 A 
HETATM    7  C   UNL     1       8.064  24.393  56.237  1.00  0.00     0.039 A 
HETATM    8  C   UNL     1       7.998  25.689  56.766  1.00  0.00     0.035 A 
HETATM    9  C   UNL     1       7.108  26.641  56.284  1.00  0.00     0.073 A 
HETATM   10  N   UNL     1       7.092  27.850  56.855  1.00  0.00    -0.228 NA
ENDROOT
BRANCH   1  11
HETATM   11  C   UNL     1       6.087  30.037  57.064  1.00  0.00     0.014 A 
HETATM   12  C   UNL     1       5.259  31.048  56.544  1.00  0.00     0.015 A 
HETATM   13  C   UNL     1       5.129  32.278  57.185  1.00  0.00     0.003 A 
HETATM   14  C   UNL     1       5.841  32.534  58.357  1.00  0.00     0.029 A 
HETATM   15  C   UNL     1       6.688  31.564  58.893  1.00  0.00     0.035 A 
HETATM   16  C   UNL     1       6.798  30.323  58.247  1.00  0.00     0.044 A 
BRANCH  15  17
HETATM   17  N   UNL     1       7.480  31.770  60.043  1.00  0.00    -0.327 N 
HETATM   18  C   UNL     1       8.808  32.161  60.086  1.00  0.00     0.222 C 
HETATM   19  O   UNL     1       9.507  32.497  59.137  1.00  0.00    -0.273 OA
HETATM   20  H   UNL     1       7.017  31.625  60.931  1.00  0.00     0.169 HD
BRANCH  18  21
HETATM   21  C   UNL     1       9.391  32.099  61.484  1.00  0.00     0.103 C 
BRANCH  21  22
HETATM   22  C   UNL     1       8.349  31.578  62.468  1.00  0.00     0.005 C 
HETATM   23  C   UNL     1       8.000  32.619  63.519  1.00  0.00     0.005 C 
ENDBRANCH  21  22
ENDBRANCH  18  21
ENDBRANCH  15  17
ENDBRANCH   1  11
BRANCH   3  24
HETATM   24  N   UNL     1       4.502  27.034  53.712  1.00  0.00    -0.340 N 
HETATM   25  H   UNL     1       3.625  26.684  54.079  1.00  0.00     0.167 HD
BRANCH  24  26
HETATM   26  C   UNL     1       4.323  27.818  52.546  1.00  0.00     0.034 A 
HETATM   27  C   UNL     1       3.258  28.732  52.489  1.00  0.00     0.032 A 
HETATM   28  C   UNL     1       2.995  29.504  51.348  1.00  0.00     0.034 A 
HETATM   29  C   UNL     1       3.827  29.306  50.244  1.00  0.00     0.062 A 
HETATM   30  N   UNL     1       3.849  29.876  48.998  1.00  0.00    -0.278 N 
HETATM   31  C   UNL     1       4.871  28.391  50.244  1.00  0.00     0.013 A 
HETATM   32  H   UNL     1       3.231  30.592  48.636  1.00  0.00     0.189 HD
HETATM   33  N   UNL     1       4.813  29.397  48.190  1.00  0.00    -0.186 NA
HETATM   34  C   UNL     1       5.434  28.494  48.954  1.00  0.00     0.152 A 
HETATM   35  C   UNL     1       5.118  27.630  51.401  1.00  0.00     0.044 A 
ENDBRANCH  24  26
ENDBRANCH   3  24
BRANCH   6  36
HETATM   36  O   UNL     1       7.168  22.808  54.587  1.00  0.00    -0.351 OA
BRANCH  36  37
HETATM   37  C   UNL     1       8.409  22.183  54.262  1.00  0.00     0.180 C 
BRANCH  37  38
HETATM   38  C   UNL     1       8.381  20.788  54.809  1.00  0.00     0.010 A 
HETATM   39  C   UNL     1       9.143  20.439  56.062  1.00  0.00     0.007 A 
HETATM   40  C   UNL     1       7.639  20.480  56.084  1.00  0.00     0.007 A 
ENDBRANCH  37  38
ENDBRANCH  36  37
ENDBRANCH   6  36
TORSDOF 9
ENDMDL
MODEL 7
REMARK VINA RESULT:      -9.7      3.083      6.096
REMARK  9 active torsions:
REMARK  status: ('A' for Active; 'I' for Inactive)
REMARK    1  A    between atoms: C_2  and  C_3 
REMARK    2  A    between atoms: C_3  and  C_4 
REMARK       I    between atoms: C_4  and  N_6 
REMARK    3  A    between atoms: N_6  and  C_7 
REMARK    4  A    between atoms: C_11  and  C_13 
REMARK    5  A    between atoms: C_15  and  N_16 
REMARK    6  A    between atoms: N_16  and  C_17 
REMARK    7  A    between atoms: C_29  and  O_30 
REMARK    8  A    between atoms: O_30  and  C_31 
REMARK    9  A    between atoms: C_31  and  C_32 
ROOT
HETATM    1  C   UNL     1       4.241  29.633  54.480  1.00  0.00     0.162 A 
HETATM    2  N   UNL     1       4.312  28.304  54.327  1.00  0.00    -0.210 NA
HETATM    3  C   UNL     1       4.189  27.804  53.086  1.00  0.00     0.143 A 
HETATM    4  C   UNL     1       4.013  28.634  51.969  1.00  0.00     0.041 A 
HETATM    5  C   UNL     1       3.902  28.187  50.627  1.00  0.00     0.054 A 
HETATM    6  C   UNL     1       3.750  29.085  49.572  1.00  0.00     0.069 A 
HETATM    7  C   UNL     1       3.671  30.441  49.856  1.00  0.00     0.039 A 
HETATM    8  C   UNL     1       3.762  30.883  51.182  1.00  0.00     0.035 A 
HETATM    9  C   UNL     1       3.938  30.005  52.245  1.00  0.00     0.073 A 
HETATM   10  N   UNL     1       4.036  30.505  53.480  1.00  0.00    -0.228 NA
ENDROOT
BRANCH   1  11
HETATM   11  C   UNL     1       4.452  30.162  55.836  1.00  0.00     0.014 A 
HETATM   12  C   UNL     1       3.358  30.523  56.643  1.00  0.00     0.015 A 
HETATM   13  C   UNL     1       3.544  31.005  57.938  1.00  0.00     0.003 A 
HETATM   14  C   UNL     1       4.833  31.154  58.450  1.00  0.00     0.029 A 
HETATM   15  C   UNL     1       5.943  30.826  57.673  1.00  0.00     0.035 A 
HETATM   16  C   UNL     1       5.743  30.326  56.376  1.00  0.00     0.044 A 
BRANCH  15  17
HETATM   17  N   UNL     1       7.275  31.001  58.103  1.00  0.00    -0.327 N 
HETATM   18  C   UNL     1       8.152  30.020  58.536  1.00  0.00     0.222 C 
HETATM   19  O   UNL     1       7.962  28.809  58.529  1.00  0.00    -0.273 OA
HETATM   20  H   UNL     1       7.627  31.950  58.079  1.00  0.00     0.169 HD
BRANCH  18  21
HETATM   21  C   UNL     1       9.437  30.593  59.101  1.00  0.00     0.103 C 
BRANCH  21  22
HETATM   22  C   UNL     1      10.332  31.096  57.973  1.00  0.00     0.005 C 
HETATM   23  C   UNL     1      11.051  29.955  57.275  1.00  0.00     0.005 C 
ENDBRANCH  21  22
ENDBRANCH  18  21
ENDBRANCH  15  17
ENDBRANCH   1  11
BRANCH   3  24
HETATM   24  N   UNL     1       4.266  26.397  52.909  1.00  0.00    -0.340 N 
HETATM   25  H   UNL     1       3.659  26.121  52.146  1.00  0.00     0.167 HD
BRANCH  24  26
HETATM   26  C   UNL     1       5.428  25.591  52.991  1.00  0.00     0.034 A 
HETATM   27  C   UNL     1       6.329  25.574  51.915  1.00  0.00     0.032 A 
HETATM   28  C   UNL     1       7.473  24.761  51.911  1.00  0.00     0.034 A 
HETATM   29  C   UNL     1       7.669  23.938  53.021  1.00  0.00     0.062 A 
HETATM   30  N   UNL     1       8.655  23.039  53.333  1.00  0.00    -0.278 N 
HETATM   31  C   UNL     1       6.787  23.899  54.092  1.00  0.00     0.013 A 
HETATM   32  H   UNL     1       9.471  22.802  52.784  1.00  0.00     0.189 HD
HETATM   33  N   UNL     1       8.477  22.414  54.512  1.00  0.00    -0.186 NA
HETATM   34  C   UNL     1       7.339  22.942  54.972  1.00  0.00     0.152 A 
HETATM   35  C   UNL     1       5.648  24.724  54.076  1.00  0.00     0.044 A 
ENDBRANCH  24  26
ENDBRANCH   3  24
BRANCH   6  36
HETATM   36  O   UNL     1       3.691  28.512  48.334  1.00  0.00    -0.351 OA
BRANCH  36  37
HETATM   37  C   UNL     1       4.489  27.349  48.117  1.00  0.00     0.180 C 
BRANCH  37  38
HETATM   38  C   UNL     1       3.663  26.357  47.356  1.00  0.00     0.010 A 
HETATM   39  C   UNL     1       3.104  25.136  48.042  1.00  0.00     0.007 A 
HETATM   40  C   UNL     1       2.181  26.242  47.608  1.00  0.00     0.007 A 
ENDBRANCH  37  38
ENDBRANCH  36  37
ENDBRANCH   6  36
TORSDOF 9
ENDMDL
MODEL 8
REMARK VINA RESULT:      -9.6      3.706      9.477
REMARK  9 active torsions:
REMARK  status: ('A' for Active; 'I' for Inactive)
REMARK    1  A    between atoms: C_2  and  C_3 
REMARK    2  A    between atoms: C_3  and  C_4 
REMARK       I    between atoms: C_4  and  N_6 
REMARK    3  A    between atoms: N_6  and  C_7 
REMARK    4  A    between atoms: C_11  and  C_13 
REMARK    5  A    between atoms: C_15  and  N_16 
REMARK    6  A    between atoms: N_16  and  C_17 
REMARK    7  A    between atoms: C_29  and  O_30 
REMARK    8  A    between atoms: O_30  and  C_31 
REMARK    9  A    between atoms: C_31  and  C_32 
ROOT
HETATM    1  C   UNL     1       5.061  27.338  51.318  1.00  0.00     0.162 A 
HETATM    2  N   UNL     1       6.125  26.602  51.667  1.00  0.00    -0.210 NA
HETATM    3  C   UNL     1       6.566  26.691  52.933  1.00  0.00     0.143 A 
HETATM    4  C   UNL     1       5.930  27.507  53.882  1.00  0.00     0.041 A 
HETATM    5  C   UNL     1       6.317  27.635  55.241  1.00  0.00     0.054 A 
HETATM    6  C   UNL     1       5.613  28.454  56.122  1.00  0.00     0.069 A 
HETATM    7  C   UNL     1       4.535  29.183  55.640  1.00  0.00     0.039 A 
HETATM    8  C   UNL     1       4.164  29.071  54.294  1.00  0.00     0.035 A 
HETATM    9  C   UNL     1       4.838  28.242  53.406  1.00  0.00     0.073 A 
HETATM   10  N   UNL     1       4.410  28.175  52.141  1.00  0.00    -0.228 NA
ENDROOT
BRANCH   1  11
HETATM   11  C   UNL     1       4.551  27.168  49.949  1.00  0.00     0.014 A 
HETATM   12  C   UNL     1       4.149  25.903  49.485  1.00  0.00     0.015 A 
HETATM   13  C   UNL     1       3.644  25.732  48.198  1.00  0.00     0.003 A 
HETATM   14  C   UNL     1       3.543  26.825  47.336  1.00  0.00     0.029 A 
HETATM   15  C   UNL     1       3.950  28.092  47.753  1.00  0.00     0.035 A 
HETATM   16  C   UNL     1       4.443  28.254  49.058  1.00  0.00     0.044 A 
BRANCH  15  17
HETATM   17  N   UNL     1       3.930  29.231  46.921  1.00  0.00    -0.327 N 
HETATM   18  C   UNL     1       2.930  30.185  46.830  1.00  0.00     0.222 C 
HETATM   19  O   UNL     1       1.926  30.267  47.529  1.00  0.00    -0.273 OA
HETATM   20  H   UNL     1       4.744  29.366  46.335  1.00  0.00     0.169 HD
BRANCH  18  21
HETATM   21  C   UNL     1       3.157  31.164  45.695  1.00  0.00     0.103 C 
BRANCH  21  22
HETATM   22  C   UNL     1       4.650  31.392  45.485  1.00  0.00     0.005 C 
HETATM   23  C   UNL     1       5.165  32.547  46.326  1.00  0.00     0.005 C 
ENDBRANCH  21  22
ENDBRANCH  18  21
ENDBRANCH  15  17
ENDBRANCH   1  11
BRANCH   3  24
HETATM   24  N   UNL     1       7.691  25.916  53.317  1.00  0.00    -0.340 N 
HETATM   25  H   UNL     1       8.323  26.489  53.866  1.00  0.00     0.167 HD
BRANCH  24  26
HETATM   26  C   UNL     1       7.690  24.563  53.737  1.00  0.00     0.034 A 
HETATM   27  C   UNL     1       7.427  24.262  55.083  1.00  0.00     0.032 A 
HETATM   28  C   UNL     1       7.458  22.948  55.575  1.00  0.00     0.034 A 
HETATM   29  C   UNL     1       7.792  21.940  54.668  1.00  0.00     0.062 A 
HETATM   30  N   UNL     1       7.916  20.583  54.811  1.00  0.00    -0.278 N 
HETATM   31  C   UNL     1       8.092  22.196  53.337  1.00  0.00     0.013 A 
HETATM   32  H   UNL     1       7.771  20.034  55.648  1.00  0.00     0.189 HD
HETATM   33  N   UNL     1       8.281  19.942  53.685  1.00  0.00    -0.186 NA
HETATM   34  C   UNL     1       8.386  20.928  52.789  1.00  0.00     0.152 A 
HETATM   35  C   UNL     1       8.052  23.520  52.866  1.00  0.00     0.044 A 
ENDBRANCH  24  26
ENDBRANCH   3  24
BRANCH   6  36
HETATM   36  O   UNL     1       6.080  28.451  57.405  1.00  0.00    -0.351 OA
BRANCH  36  37
HETATM   37  C   UNL     1       6.839  29.584  57.825  1.00  0.00     0.180 C 
BRANCH  37  38
HETATM   38  C   UNL     1       8.252  29.137  58.048  1.00  0.00     0.010 A 
HETATM   39  C   UNL     1       9.311  29.388  57.005  1.00  0.00     0.007 A 
HETATM   40  C   UNL     1       9.342  30.144  58.305  1.00  0.00     0.007 A 
ENDBRANCH  37  38
ENDBRANCH  36  37
ENDBRANCH   6  36
TORSDOF 9
ENDMDL
MODEL 9
REMARK VINA RESULT:      -9.4      3.823     10.957
REMARK  9 active torsions:
REMARK  status: ('A' for Active; 'I' for Inactive)
REMARK    1  A    between atoms: C_2  and  C_3 
REMARK    2  A    between atoms: C_3  and  C_4 
REMARK       I    between atoms: C_4  and  N_6 
REMARK    3  A    between atoms: N_6  and  C_7 
REMARK    4  A    between atoms: C_11  and  C_13 
REMARK    5  A    between atoms: C_15  and  N_16 
REMARK    6  A    between atoms: N_16  and  C_17 
REMARK    7  A    between atoms: C_29  and  O_30 
REMARK    8  A    between atoms: O_30  and  C_31 
REMARK    9  A    between atoms: C_31  and  C_32 
ROOT
HETATM    1  C   UNL     1       7.675  31.313  59.934  1.00  0.00     0.162 A 
HETATM    2  N   UNL     1       6.496  31.820  59.549  1.00  0.00    -0.210 NA
HETATM    3  C   UNL     1       5.791  32.529  60.446  1.00  0.00     0.143 A 
HETATM    4  C   UNL     1       6.270  32.763  61.744  1.00  0.00     0.041 A 
HETATM    5  C   UNL     1       5.600  33.521  62.739  1.00  0.00     0.054 A 
HETATM    6  C   UNL     1       6.160  33.722  63.999  1.00  0.00     0.069 A 
HETATM    7  C   UNL     1       7.382  33.131  64.289  1.00  0.00     0.039 A 
HETATM    8  C   UNL     1       8.035  32.366  63.314  1.00  0.00     0.035 A 
HETATM    9  C   UNL     1       7.505  32.175  62.044  1.00  0.00     0.073 A 
HETATM   10  N   UNL     1       8.198  31.449  61.162  1.00  0.00    -0.228 NA
ENDROOT
BRANCH   1  11
HETATM   11  C   UNL     1       8.463  30.604  58.914  1.00  0.00     0.014 A 
HETATM   12  C   UNL     1       9.763  31.029  58.588  1.00  0.00     0.015 A 
HETATM   13  C   UNL     1      10.528  30.353  57.640  1.00  0.00     0.003 A 
HETATM   14  C   UNL     1      10.003  29.241  56.981  1.00  0.00     0.029 A 
HETATM   15  C   UNL     1       8.709  28.801  57.262  1.00  0.00     0.035 A 
HETATM   16  C   UNL     1       7.954  29.481  58.231  1.00  0.00     0.044 A 
BRANCH  15  17
HETATM   17  N   UNL     1       8.091  27.721  56.598  1.00  0.00    -0.327 N 
HETATM   18  C   UNL     1       7.860  26.451  57.099  1.00  0.00     0.222 C 
HETATM   19  O   UNL     1       8.060  26.065  58.246  1.00  0.00    -0.273 OA
HETATM   20  H   UNL     1       7.775  27.904  55.654  1.00  0.00     0.169 HD
BRANCH  18  21
HETATM   21  C   UNL     1       7.348  25.489  56.044  1.00  0.00     0.103 C 
BRANCH  21  22
HETATM   22  C   UNL     1       7.555  24.048  56.499  1.00  0.00     0.005 C 
HETATM   23  C   UNL     1       8.864  23.479  55.981  1.00  0.00     0.005 C 
ENDBRANCH  21  22
ENDBRANCH  18  21
ENDBRANCH  15  17
ENDBRANCH   1  11
BRANCH   3  24
HETATM   24  N   UNL     1       4.541  33.075  60.051  1.00  0.00    -0.340 N 
HETATM   25  H   UNL     1       3.853  32.894  60.773  1.00  0.00     0.167 HD
BRANCH  24  26
HETATM   26  C   UNL     1       4.321  34.309  59.394  1.00  0.00     0.034 A 
HETATM   27  C   UNL     1       4.563  34.406  58.014  1.00  0.00     0.032 A 
HETATM   28  C   UNL     1       4.412  35.611  57.311  1.00  0.00     0.034 A 
HETATM   29  C   UNL     1       4.033  36.733  58.051  1.00  0.00     0.062 A 
HETATM   30  N   UNL     1       3.804  38.035  57.691  1.00  0.00    -0.278 N 
HETATM   31  C   UNL     1       3.815  36.690  59.421  1.00  0.00     0.013 A 
HETATM   32  H   UNL     1       3.866  38.439  56.765  1.00  0.00     0.189 HD
HETATM   33  N   UNL     1       3.468  38.839  58.716  1.00  0.00    -0.186 NA
HETATM   34  C   UNL     1       3.474  38.016  59.769  1.00  0.00     0.152 A 
HETATM   35  C   UNL     1       3.971  35.471  60.105  1.00  0.00     0.044 A 
ENDBRANCH  24  26
ENDBRANCH   3  24
BRANCH   6  36
HETATM   36  O   UNL     1       5.418  34.501  64.840  1.00  0.00    -0.351 OA
BRANCH  36  37
HETATM   37  C   UNL     1       4.976  33.906  66.059  1.00  0.00     0.180 C 
BRANCH  37  38
HETATM   38  C   UNL     1       5.481  34.746  67.193  1.00  0.00     0.010 A 
HETATM   39  C   UNL     1       5.386  34.255  68.615  1.00  0.00     0.007 A 
HETATM   40  C   UNL     1       6.728  34.353  67.941  1.00  0.00     0.007 A 
ENDBRANCH  37  38
ENDBRANCH  36  37
ENDBRANCH   6  36
TORSDOF 9
ENDMDL
MODEL 10
REMARK VINA RESULT:      -9.3      3.439     10.140
REMARK  9 active torsions:
REMARK  status: ('A' for Active; 'I' for Inactive)
REMARK    1  A    between atoms: C_2  and  C_3 
REMARK    2  A    between atoms: C_3  and  C_4 
REMARK       I    between atoms: C_4  and  N_6 
REMARK    3  A    between atoms: N_6  and  C_7 
REMARK    4  A    between atoms: C_11  and  C_13 
REMARK    5  A    between atoms: C_15  and  N_16 
REMARK    6  A    between atoms: N_16  and  C_17 
REMARK    7  A    between atoms: C_29  and  O_30 
REMARK    8  A    between atoms: O_30  and  C_31 
REMARK    9  A    between atoms: C_31  and  C_32 
ROOT
HETATM    1  C   UNL     1       7.754  31.160  59.690  1.00  0.00     0.162 A 
HETATM    2  N   UNL     1       6.656  31.803  59.272  1.00  0.00    -0.210 NA
HETATM    3  C   UNL     1       6.040  32.628  60.134  1.00  0.00     0.143 A 
HETATM    4  C   UNL     1       6.531  32.841  61.432  1.00  0.00     0.041 A 
HETATM    5  C   UNL     1       5.955  33.714  62.391  1.00  0.00     0.054 A 
HETATM    6  C   UNL     1       6.522  33.882  63.653  1.00  0.00     0.069 A 
HETATM    7  C   UNL     1       7.652  33.147  63.980  1.00  0.00     0.039 A 
HETATM    8  C   UNL     1       8.211  32.270  63.040  1.00  0.00     0.035 A 
HETATM    9  C   UNL     1       7.675  32.108  61.769  1.00  0.00     0.073 A 
HETATM   10  N   UNL     1       8.277  31.267  60.922  1.00  0.00    -0.228 NA
ENDROOT
BRANCH   1  11
HETATM   11  C   UNL     1       8.453  30.320  58.706  1.00  0.00     0.014 A 
HETATM   12  C   UNL     1       9.763  30.631  58.299  1.00  0.00     0.015 A 
HETATM   13  C   UNL     1      10.445  29.831  57.384  1.00  0.00     0.003 A 
HETATM   14  C   UNL     1       9.825  28.706  56.841  1.00  0.00     0.029 A 
HETATM   15  C   UNL     1       8.519  28.376  57.205  1.00  0.00     0.035 A 
HETATM   16  C   UNL     1       7.849  29.180  58.140  1.00  0.00     0.044 A 
BRANCH  15  17
HETATM   17  N   UNL     1       7.809  27.287  56.658  1.00  0.00    -0.327 N 
HETATM   18  C   UNL     1       7.759  25.990  57.142  1.00  0.00     0.222 C 
HETATM   19  O   UNL     1       8.241  25.577  58.191  1.00  0.00    -0.273 OA
HETATM   20  H   UNL     1       7.270  27.484  55.824  1.00  0.00     0.169 HD
BRANCH  18  21
HETATM   21  C   UNL     1       7.053  25.038  56.196  1.00  0.00     0.103 C 
BRANCH  21  22
HETATM   22  C   UNL     1       7.399  25.379  54.750  1.00  0.00     0.005 C 
HETATM   23  C   UNL     1       8.027  24.198  54.030  1.00  0.00     0.005 C 
ENDBRANCH  21  22
ENDBRANCH  18  21
ENDBRANCH  15  17
ENDBRANCH   1  11
BRANCH   3  24
HETATM   24  N   UNL     1       4.877  33.318  59.703  1.00  0.00    -0.340 N 
HETATM   25  H   UNL     1       4.786  34.182  60.225  1.00  0.00     0.167 HD
BRANCH  24  26
HETATM   26  C   UNL     1       4.403  33.440  58.374  1.00  0.00     0.034 A 
HETATM   27  C   UNL     1       4.545  34.665  57.703  1.00  0.00     0.032 A 
HETATM   28  C   UNL     1       4.054  34.868  56.404  1.00  0.00     0.034 A 
HETATM   29  C   UNL     1       3.386  33.799  55.806  1.00  0.00     0.062 A 
HETATM   30  N   UNL     1       2.793  33.660  54.578  1.00  0.00    -0.278 N 
HETATM   31  C   UNL     1       3.194  32.581  56.443  1.00  0.00     0.013 A 
HETATM   32  H   UNL     1       2.737  34.347  53.838  1.00  0.00     0.189 HD
HETATM   33  N   UNL     1       2.224  32.457  54.375  1.00  0.00    -0.186 NA
HETATM   34  C   UNL     1       2.472  31.802  55.513  1.00  0.00     0.152 A 
HETATM   35  C   UNL     1       3.696  32.399  57.744  1.00  0.00     0.044 A 
ENDBRANCH  24  26
ENDBRANCH   3  24
BRANCH   6  36
HETATM   36  O   UNL     1       5.879  34.779  64.456  1.00  0.00    -0.351 OA
BRANCH  36  37
HETATM   37  C   UNL     1       4.455  34.822  64.374  1.00  0.00     0.180 C 
BRANCH  37  38
HETATM   38  C   UNL     1       3.966  35.841  65.358  1.00  0.00     0.010 A 
HETATM   39  C   UNL     1       3.224  35.415  66.599  1.00  0.00     0.007 A 
HETATM   40  C   UNL     1       4.617  35.972  66.711  1.00  0.00     0.007 A 
ENDBRANCH  37  38
ENDBRANCH  36  37
ENDBRANCH   6  36
TORSDOF 9
ENDMDL
