MODEL 1
REMARK VINA RESULT:      -9.4      0.000      0.000
REMARK  3 active torsions:
REMARK  status: ('A' for Active; 'I' for Inactive)
REMARK    1  A    between atoms: C_6  and  C_7 
REMARK       I    between atoms: C_7  and  N_8 
REMARK    2  A    between atoms: N_8  and  C_9 
REMARK    3  A    between atoms: C_12  and  C_13 
REMARK       I    between atoms: C_13  and  N_14 
ROOT
HETATM    1  C   UNL     1       8.285  25.412  57.076  1.00  0.00     0.280 C 
HETATM    2  N   UNL     1       8.235  26.661  56.482  1.00  0.00    -0.321 N 
HETATM    3  O   UNL     1       8.367  25.201  58.282  1.00  0.00    -0.265 OA
HETATM    4  H   UNL     1       8.127  26.644  55.473  1.00  0.00     0.169 HD
ENDROOT
BRANCH   2   5
HETATM    5  C   UNL     1       8.357  27.923  57.092  1.00  0.00     0.035 A 
HETATM    6  C   UNL     1       7.340  28.536  57.828  1.00  0.00     0.030 A 
HETATM    7  C   UNL     1       7.552  29.778  58.443  1.00  0.00     0.019 A 
HETATM    8  C   UNL     1       8.789  30.418  58.330  1.00  0.00     0.032 A 
HETATM    9  C   UNL     1       9.800  29.821  57.571  1.00  0.00     0.019 A 
HETATM   10  C   UNL     1       9.586  28.580  56.962  1.00  0.00     0.030 A 
BRANCH   8  11
HETATM   11  C   UNL     1       9.071  31.727  58.978  1.00  0.00     0.249 C 
HETATM   12  N   UNL     1       8.153  32.201  59.873  1.00  0.00    -0.366 N 
HETATM   13  H   UNL     1       7.417  31.628  60.260  1.00  0.00     0.159 HD
HETATM   14  H   UNL     1       8.413  33.037  60.381  1.00  0.00     0.159 HD
HETATM   15  O   UNL     1      10.102  32.346  58.753  1.00  0.00    -0.268 OA
ENDBRANCH   8  11
ENDBRANCH   2   5
BRANCH   1  16
HETATM   16  C   UNL     1       8.246  24.330  56.110  1.00  0.00     0.144 A 
HETATM   17  O   UNL     1       8.569  23.057  56.511  1.00  0.00    -0.304 OA
HETATM   18  C   UNL     1       8.403  22.243  55.430  1.00  0.00     0.086 A 
HETATM   19  C   UNL     1       7.986  22.979  54.328  1.00  0.00     0.001 A 
HETATM   20  C   UNL     1       8.607  20.866  55.417  1.00  0.00     0.038 A 
HETATM   21  C   UNL     1       7.753  22.305  53.117  1.00  0.00     0.014 A 
HETATM   22  C   UNL     1       7.898  24.323  54.773  1.00  0.00     0.057 A 
HETATM   23  C   UNL     1       7.945  20.917  53.073  1.00  0.00     0.001 A 
HETATM   24  C   UNL     1       8.366  20.212  54.204  1.00  0.00     0.003 A 
ENDBRANCH   1  16
TORSDOF 3
ENDMDL
MODEL 2
REMARK VINA RESULT:      -8.8      1.680      1.839
REMARK  3 active torsions:
REMARK  status: ('A' for Active; 'I' for Inactive)
REMARK    1  A    between atoms: C_6  and  C_7 
REMARK       I    between atoms: C_7  and  N_8 
REMARK    2  A    between atoms: N_8  and  C_9 
REMARK    3  A    between atoms: C_12  and  C_13 
REMARK       I    between atoms: C_13  and  N_14 
ROOT
HETATM    1  C   UNL     1       7.514  26.339  54.769  1.00  0.00     0.280 C 
HETATM    2  N   UNL     1       7.592  26.604  56.125  1.00  0.00    -0.321 N 
HETATM    3  O   UNL     1       7.332  27.175  53.891  1.00  0.00    -0.265 OA
HETATM    4  H   UNL     1       7.789  25.794  56.703  1.00  0.00     0.169 HD
ENDROOT
BRANCH   2   5
HETATM    5  C   UNL     1       7.392  27.829  56.787  1.00  0.00     0.035 A 
HETATM    6  C   UNL     1       6.152  28.464  56.898  1.00  0.00     0.030 A 
HETATM    7  C   UNL     1       6.024  29.664  57.611  1.00  0.00     0.019 A 
HETATM    8  C   UNL     1       7.139  30.241  58.225  1.00  0.00     0.032 A 
HETATM    9  C   UNL     1       8.387  29.624  58.092  1.00  0.00     0.019 A 
HETATM   10  C   UNL     1       8.510  28.425  57.383  1.00  0.00     0.030 A 
BRANCH   8  11
HETATM   11  C   UNL     1       7.053  31.502  59.008  1.00  0.00     0.249 C 
HETATM   12  N   UNL     1       5.946  31.690  59.788  1.00  0.00    -0.366 N 
HETATM   13  H   UNL     1       5.301  30.947  60.013  1.00  0.00     0.159 HD
HETATM   14  H   UNL     1       5.957  32.502  60.392  1.00  0.00     0.159 HD
HETATM   15  O   UNL     1       7.953  32.332  58.991  1.00  0.00    -0.268 OA
ENDBRANCH   8  11
ENDBRANCH   2   5
BRANCH   1  16
HETATM   16  C   UNL     1       7.660  24.928  54.465  1.00  0.00     0.144 A 
HETATM   17  O   UNL     1       7.683  24.016  55.491  1.00  0.00    -0.304 OA
HETATM   18  C   UNL     1       7.778  22.780  54.925  1.00  0.00     0.086 A 
HETATM   19  C   UNL     1       7.830  22.882  53.541  1.00  0.00     0.001 A 
HETATM   20  C   UNL     1       7.810  21.574  55.621  1.00  0.00     0.038 A 
HETATM   21  C   UNL     1       7.921  21.703  52.781  1.00  0.00     0.014 A 
HETATM   22  C   UNL     1       7.764  24.269  53.254  1.00  0.00     0.057 A 
HETATM   23  C   UNL     1       7.951  20.472  53.453  1.00  0.00     0.001 A 
HETATM   24  C   UNL     1       7.897  20.411  54.848  1.00  0.00     0.003 A 
ENDBRANCH   1  16
TORSDOF 3
ENDMDL
MODEL 3
REMARK VINA RESULT:      -8.6      2.380      8.597
REMARK  3 active torsions:
REMARK  status: ('A' for Active; 'I' for Inactive)
REMARK    1  A    between atoms: C_6  and  C_7 
REMARK       I    between atoms: C_7  and  N_8 
REMARK    2  A    between atoms: N_8  and  C_9 
REMARK    3  A    between atoms: C_12  and  C_13 
REMARK       I    between atoms: C_13  and  N_14 
ROOT
HETATM    1  C   UNL     1       7.482  26.806  55.999  1.00  0.00     0.280 C 
HETATM    2  N   UNL     1       8.193  25.659  56.304  1.00  0.00    -0.321 N 
HETATM    3  O   UNL     1       6.626  26.901  55.126  1.00  0.00    -0.265 OA
HETATM    4  H   UNL     1       8.833  25.755  57.086  1.00  0.00     0.169 HD
ENDROOT
BRANCH   2   5
HETATM    5  C   UNL     1       8.168  24.416  55.646  1.00  0.00     0.035 A 
HETATM    6  C   UNL     1       7.994  24.266  54.268  1.00  0.00     0.030 A 
HETATM    7  C   UNL     1       8.022  22.994  53.678  1.00  0.00     0.019 A 
HETATM    8  C   UNL     1       8.229  21.857  54.464  1.00  0.00     0.032 A 
HETATM    9  C   UNL     1       8.375  22.001  55.848  1.00  0.00     0.019 A 
HETATM   10  C   UNL     1       8.350  23.272  56.432  1.00  0.00     0.030 A 
BRANCH   8  11
HETATM   11  C   UNL     1       8.287  20.488  53.886  1.00  0.00     0.249 C 
HETATM   12  N   UNL     1       7.826  20.320  52.610  1.00  0.00    -0.366 N 
HETATM   13  H   UNL     1       7.646  21.092  51.985  1.00  0.00     0.159 HD
HETATM   14  H   UNL     1       7.972  19.407  52.198  1.00  0.00     0.159 HD
HETATM   15  O   UNL     1       8.761  19.548  54.509  1.00  0.00    -0.268 OA
ENDBRANCH   8  11
ENDBRANCH   2   5
BRANCH   1  16
HETATM   16  C   UNL     1       7.860  27.937  56.827  1.00  0.00     0.144 A 
HETATM   17  O   UNL     1       9.085  28.529  56.640  1.00  0.00    -0.304 OA
HETATM   18  C   UNL     1       9.157  29.580  57.504  1.00  0.00     0.086 A 
HETATM   19  C   UNL     1       7.994  29.668  58.258  1.00  0.00     0.001 A 
HETATM   20  C   UNL     1      10.232  30.457  57.620  1.00  0.00     0.038 A 
HETATM   21  C   UNL     1       7.882  30.704  59.203  1.00  0.00     0.014 A 
HETATM   22  C   UNL     1       7.170  28.601  57.823  1.00  0.00     0.057 A 
HETATM   23  C   UNL     1       8.946  31.607  59.340  1.00  0.00     0.001 A 
HETATM   24  C   UNL     1      10.100  31.483  58.562  1.00  0.00     0.003 A 
ENDBRANCH   1  16
TORSDOF 3
ENDMDL
MODEL 4
REMARK VINA RESULT:      -8.3      4.038     10.236
REMARK  3 active torsions:
REMARK  status: ('A' for Active; 'I' for Inactive)
REMARK    1  A    between atoms: C_6  and  C_7 
REMARK       I    between atoms: C_7  and  N_8 
REMARK    2  A    between atoms: N_8  and  C_9 
REMARK    3  A    between atoms: C_12  and  C_13 
REMARK       I    between atoms: C_13  and  N_14 
ROOT
HETATM    1  C   UNL     1       8.128  31.966  59.848  1.00  0.00     0.280 C 
HETATM    2  N   UNL     1       7.274  30.957  59.437  1.00  0.00    -0.321 N 
HETATM    3  O   UNL     1       9.085  32.392  59.209  1.00  0.00    -0.265 OA
HETATM    4  H   UNL     1       6.512  30.763  60.078  1.00  0.00     0.169 HD
ENDROOT
BRANCH   2   5
HETATM    5  C   UNL     1       7.361  30.157  58.283  1.00  0.00     0.035 A 
HETATM    6  C   UNL     1       8.277  29.115  58.122  1.00  0.00     0.030 A 
HETATM    7  C   UNL     1       8.275  28.333  56.959  1.00  0.00     0.019 A 
HETATM    8  C   UNL     1       7.350  28.586  55.942  1.00  0.00     0.032 A 
HETATM    9  C   UNL     1       6.450  29.647  56.087  1.00  0.00     0.019 A 
HETATM   10  C   UNL     1       6.453  30.422  57.251  1.00  0.00     0.030 A 
BRANCH   8  11
HETATM   11  C   UNL     1       7.292  27.776  54.697  1.00  0.00     0.249 C 
HETATM   12  N   UNL     1       7.035  28.432  53.526  1.00  0.00    -0.366 N 
HETATM   13  H   UNL     1       7.086  29.436  53.437  1.00  0.00     0.159 HD
HETATM   14  H   UNL     1       7.106  27.882  52.679  1.00  0.00     0.159 HD
HETATM   15  O   UNL     1       7.503  26.570  54.704  1.00  0.00    -0.268 OA
ENDBRANCH   8  11
ENDBRANCH   2   5
BRANCH   1  16
HETATM   16  C   UNL     1       7.789  32.488  61.159  1.00  0.00     0.144 A 
HETATM   17  O   UNL     1       6.795  33.427  61.274  1.00  0.00    -0.304 OA
HETATM   18  C   UNL     1       6.654  33.700  62.601  1.00  0.00     0.086 A 
HETATM   19  C   UNL     1       7.557  32.955  63.348  1.00  0.00     0.001 A 
HETATM   20  C   UNL     1       5.734  34.590  63.149  1.00  0.00     0.038 A 
HETATM   21  C   UNL     1       7.554  33.098  64.747  1.00  0.00     0.014 A 
HETATM   22  C   UNL     1       8.291  32.185  62.411  1.00  0.00     0.057 A 
HETATM   23  C   UNL     1       6.635  33.983  65.330  1.00  0.00     0.001 A 
HETATM   24  C   UNL     1       5.743  34.715  64.543  1.00  0.00     0.003 A 
ENDBRANCH   1  16
TORSDOF 3
ENDMDL
MODEL 5
REMARK VINA RESULT:      -8.3      2.659      8.645
REMARK  3 active torsions:
REMARK  status: ('A' for Active; 'I' for Inactive)
REMARK    1  A    between atoms: C_6  and  C_7 
REMARK       I    between atoms: C_7  and  N_8 
REMARK    2  A    between atoms: N_8  and  C_9 
REMARK    3  A    between atoms: C_12  and  C_13 
REMARK       I    between atoms: C_13  and  N_14 
ROOT
HETATM    1  C   UNL     1       6.629  26.200  56.382  1.00  0.00     0.280 C 
HETATM    2  N   UNL     1       7.771  25.419  56.358  1.00  0.00    -0.321 N 
HETATM    3  O   UNL     1       5.531  25.868  55.948  1.00  0.00    -0.265 OA
HETATM    4  H   UNL     1       8.581  25.842  56.800  1.00  0.00     0.169 HD
ENDROOT
BRANCH   2   5
HETATM    5  C   UNL     1       7.951  24.155  55.769  1.00  0.00     0.035 A 
HETATM    6  C   UNL     1       7.950  22.953  56.482  1.00  0.00     0.030 A 
HETATM    7  C   UNL     1       8.093  21.727  55.818  1.00  0.00     0.019 A 
HETATM    8  C   UNL     1       8.235  21.691  54.428  1.00  0.00     0.032 A 
HETATM    9  C   UNL     1       8.264  22.893  53.713  1.00  0.00     0.019 A 
HETATM   10  C   UNL     1       8.118  24.114  54.379  1.00  0.00     0.030 A 
BRANCH   8  11
HETATM   11  C   UNL     1       8.370  20.417  53.673  1.00  0.00     0.249 C 
HETATM   12  N   UNL     1       7.847  20.369  52.411  1.00  0.00    -0.366 N 
HETATM   13  H   UNL     1       7.565  21.194  51.903  1.00  0.00     0.159 HD
HETATM   14  H   UNL     1       8.043  19.532  51.877  1.00  0.00     0.159 HD
HETATM   15  O   UNL     1       8.960  19.452  54.142  1.00  0.00    -0.268 OA
ENDBRANCH   8  11
ENDBRANCH   2   5
BRANCH   1  16
HETATM   16  C   UNL     1       6.855  27.505  56.976  1.00  0.00     0.144 A 
HETATM   17  O   UNL     1       5.867  28.456  56.910  1.00  0.00    -0.304 OA
HETATM   18  C   UNL     1       6.320  29.552  57.581  1.00  0.00     0.086 A 
HETATM   19  C   UNL     1       7.600  29.325  58.072  1.00  0.00     0.001 A 
HETATM   20  C   UNL     1       5.612  30.736  57.766  1.00  0.00     0.038 A 
HETATM   21  C   UNL     1       8.232  30.346  58.803  1.00  0.00     0.014 A 
HETATM   22  C   UNL     1       7.940  28.008  57.669  1.00  0.00     0.057 A 
HETATM   23  C   UNL     1       7.542  31.549  59.011  1.00  0.00     0.001 A 
HETATM   24  C   UNL     1       6.255  31.739  58.501  1.00  0.00     0.003 A 
ENDBRANCH   1  16
TORSDOF 3
ENDMDL
MODEL 6
REMARK VINA RESULT:      -8.2      2.530      8.568
REMARK  3 active torsions:
REMARK  status: ('A' for Active; 'I' for Inactive)
REMARK    1  A    between atoms: C_6  and  C_7 
REMARK       I    between atoms: C_7  and  N_8 
REMARK    2  A    between atoms: N_8  and  C_9 
REMARK    3  A    between atoms: C_12  and  C_13 
REMARK       I    between atoms: C_13  and  N_14 
ROOT
HETATM    1  C   UNL     1       7.709  26.270  56.867  1.00  0.00     0.280 C 
HETATM    2  N   UNL     1       7.186  25.668  55.735  1.00  0.00    -0.321 N 
HETATM    3  O   UNL     1       8.616  25.819  57.558  1.00  0.00    -0.265 OA
HETATM    4  H   UNL     1       6.466  26.206  55.265  1.00  0.00     0.169 HD
ENDROOT
BRANCH   2   5
HETATM    5  C   UNL     1       7.498  24.407  55.196  1.00  0.00     0.035 A 
HETATM    6  C   UNL     1       7.936  24.204  53.885  1.00  0.00     0.030 A 
HETATM    7  C   UNL     1       8.268  22.920  53.432  1.00  0.00     0.019 A 
HETATM    8  C   UNL     1       8.170  21.822  54.291  1.00  0.00     0.032 A 
HETATM    9  C   UNL     1       7.705  22.017  55.595  1.00  0.00     0.019 A 
HETATM   10  C   UNL     1       7.378  23.300  56.045  1.00  0.00     0.030 A 
BRANCH   8  11
HETATM   11  C   UNL     1       8.528  20.443  53.866  1.00  0.00     0.249 C 
HETATM   12  N   UNL     1       9.044  19.603  54.813  1.00  0.00    -0.366 N 
HETATM   13  H   UNL     1       9.002  19.799  55.802  1.00  0.00     0.159 HD
HETATM   14  H   UNL     1       9.181  18.640  54.531  1.00  0.00     0.159 HD
HETATM   15  O   UNL     1       8.338  20.053  52.722  1.00  0.00    -0.268 OA
ENDBRANCH   8  11
ENDBRANCH   2   5
BRANCH   1  16
HETATM   16  C   UNL     1       7.054  27.525  57.186  1.00  0.00     0.144 A 
HETATM   17  O   UNL     1       7.780  28.535  57.769  1.00  0.00    -0.304 OA
HETATM   18  C   UNL     1       6.942  29.600  57.911  1.00  0.00     0.086 A 
HETATM   19  C   UNL     1       5.674  29.286  57.437  1.00  0.00     0.001 A 
HETATM   20  C   UNL     1       7.292  30.837  58.445  1.00  0.00     0.038 A 
HETATM   21  C   UNL     1       4.672  30.270  57.493  1.00  0.00     0.014 A 
HETATM   22  C   UNL     1       5.754  27.945  56.982  1.00  0.00     0.057 A 
HETATM   23  C   UNL     1       4.994  31.528  58.021  1.00  0.00     0.001 A 
HETATM   24  C   UNL     1       6.282  31.805  58.489  1.00  0.00     0.003 A 
ENDBRANCH   1  16
TORSDOF 3
ENDMDL
MODEL 7
REMARK VINA RESULT:      -8.2      2.473      8.812
REMARK  3 active torsions:
REMARK  status: ('A' for Active; 'I' for Inactive)
REMARK    1  A    between atoms: C_6  and  C_7 
REMARK       I    between atoms: C_7  and  N_8 
REMARK    2  A    between atoms: N_8  and  C_9 
REMARK    3  A    between atoms: C_12  and  C_13 
REMARK       I    between atoms: C_13  and  N_14 
ROOT
HETATM    1  C   UNL     1       8.344  29.028  57.627  1.00  0.00     0.280 C 
HETATM    2  N   UNL     1       7.560  27.890  57.695  1.00  0.00    -0.321 N 
HETATM    3  O   UNL     1       9.186  29.262  56.767  1.00  0.00    -0.265 OA
HETATM    4  H   UNL     1       6.887  27.885  58.454  1.00  0.00     0.169 HD
ENDROOT
BRANCH   2   5
HETATM    5  C   UNL     1       7.616  26.743  56.881  1.00  0.00     0.035 A 
HETATM    6  C   UNL     1       7.156  26.699  55.563  1.00  0.00     0.030 A 
HETATM    7  C   UNL     1       7.284  25.530  54.800  1.00  0.00     0.019 A 
HETATM    8  C   UNL     1       7.879  24.391  55.349  1.00  0.00     0.032 A 
HETATM    9  C   UNL     1       8.314  24.423  56.678  1.00  0.00     0.019 A 
HETATM   10  C   UNL     1       8.188  25.592  57.435  1.00  0.00     0.030 A 
BRANCH   8  11
HETATM   11  C   UNL     1       8.056  23.133  54.577  1.00  0.00     0.249 C 
HETATM   12  N   UNL     1       7.733  21.958  55.198  1.00  0.00    -0.366 N 
HETATM   13  H   UNL     1       7.201  21.919  56.055  1.00  0.00     0.159 HD
HETATM   14  H   UNL     1       7.759  21.126  54.623  1.00  0.00     0.159 HD
HETATM   15  O   UNL     1       8.441  23.140  53.416  1.00  0.00    -0.268 OA
ENDBRANCH   8  11
ENDBRANCH   2   5
BRANCH   1  16
HETATM   16  C   UNL     1       8.082  29.954  58.714  1.00  0.00     0.144 A 
HETATM   17  O   UNL     1       8.822  29.865  59.868  1.00  0.00    -0.304 OA
HETATM   18  C   UNL     1       8.406  30.871  60.687  1.00  0.00     0.086 A 
HETATM   19  C   UNL     1       7.394  31.604  60.081  1.00  0.00     0.001 A 
HETATM   20  C   UNL     1       8.918  31.145  61.953  1.00  0.00     0.038 A 
HETATM   21  C   UNL     1       6.842  32.695  60.777  1.00  0.00     0.014 A 
HETATM   22  C   UNL     1       7.185  31.000  58.815  1.00  0.00     0.057 A 
HETATM   23  C   UNL     1       7.341  33.000  62.051  1.00  0.00     0.001 A 
HETATM   24  C   UNL     1       8.360  32.237  62.628  1.00  0.00     0.003 A 
ENDBRANCH   1  16
TORSDOF 3
ENDMDL
MODEL 8
REMARK VINA RESULT:      -8.2      2.252      8.666
REMARK  3 active torsions:
REMARK  status: ('A' for Active; 'I' for Inactive)
REMARK    1  A    between atoms: C_6  and  C_7 
REMARK       I    between atoms: C_7  and  N_8 
REMARK    2  A    between atoms: N_8  and  C_9 
REMARK    3  A    between atoms: C_12  and  C_13 
REMARK       I    between atoms: C_13  and  N_14 
ROOT
HETATM    1  C   UNL     1       7.741  28.317  56.933  1.00  0.00     0.280 C 
HETATM    2  N   UNL     1       7.526  27.049  57.446  1.00  0.00    -0.321 N 
HETATM    3  O   UNL     1       7.939  28.582  55.752  1.00  0.00    -0.265 OA
HETATM    4  H   UNL     1       7.338  27.023  58.443  1.00  0.00     0.169 HD
ENDROOT
BRANCH   2   5
HETATM    5  C   UNL     1       7.578  25.816  56.772  1.00  0.00     0.035 A 
HETATM    6  C   UNL     1       6.698  25.445  55.752  1.00  0.00     0.030 A 
HETATM    7  C   UNL     1       6.840  24.214  55.097  1.00  0.00     0.019 A 
HETATM    8  C   UNL     1       7.870  23.340  55.456  1.00  0.00     0.032 A 
HETATM    9  C   UNL     1       8.735  23.694  56.496  1.00  0.00     0.019 A 
HETATM   10  C   UNL     1       8.593  24.925  57.144  1.00  0.00     0.030 A 
BRANCH   8  11
HETATM   11  C   UNL     1       8.076  22.031  54.781  1.00  0.00     0.249 C 
HETATM   12  N   UNL     1       8.842  22.015  53.649  1.00  0.00    -0.366 N 
HETATM   13  H   UNL     1       9.429  22.789  53.373  1.00  0.00     0.159 HD
HETATM   14  H   UNL     1       9.058  21.103  53.266  1.00  0.00     0.159 HD
HETATM   15  O   UNL     1       7.611  20.993  55.235  1.00  0.00    -0.268 OA
ENDBRANCH   8  11
ENDBRANCH   2   5
BRANCH   1  16
HETATM   16  C   UNL     1       7.725  29.345  57.957  1.00  0.00     0.144 A 
HETATM   17  O   UNL     1       8.677  29.326  58.947  1.00  0.00    -0.304 OA
HETATM   18  C   UNL     1       8.459  30.418  59.733  1.00  0.00     0.086 A 
HETATM   19  C   UNL     1       7.366  31.139  59.269  1.00  0.00     0.001 A 
HETATM   20  C   UNL     1       9.220  30.779  60.842  1.00  0.00     0.038 A 
HETATM   21  C   UNL     1       6.993  32.310  59.952  1.00  0.00     0.014 A 
HETATM   22  C   UNL     1       6.894  30.435  58.132  1.00  0.00     0.057 A 
HETATM   23  C   UNL     1       7.743  32.704  61.069  1.00  0.00     0.001 A 
HETATM   24  C   UNL     1       8.836  31.950  61.505  1.00  0.00     0.003 A 
ENDBRANCH   1  16
TORSDOF 3
ENDMDL
MODEL 9
REMARK VINA RESULT:      -8.1      4.831      7.538
REMARK  3 active torsions:
REMARK  status: ('A' for Active; 'I' for Inactive)
REMARK    1  A    between atoms: C_6  and  C_7 
REMARK       I    between atoms: C_7  and  N_8 
REMARK    2  A    between atoms: N_8  and  C_9 
REMARK    3  A    between atoms: C_12  and  C_13 
REMARK       I    between atoms: C_13  and  N_14 
ROOT
HETATM    1  C   UNL     1       8.105  31.762  59.886  1.00  0.00     0.280 C 
HETATM    2  N   UNL     1       7.322  31.306  60.931  1.00  0.00    -0.321 N 
HETATM    3  O   UNL     1       8.790  32.780  59.901  1.00  0.00    -0.265 OA
HETATM    4  H   UNL     1       6.855  30.422  60.755  1.00  0.00     0.169 HD
ENDROOT
BRANCH   2   5
HETATM    5  C   UNL     1       7.065  31.930  62.165  1.00  0.00     0.035 A 
HETATM    6  C   UNL     1       8.061  32.406  63.021  1.00  0.00     0.030 A 
HETATM    7  C   UNL     1       7.726  33.056  64.217  1.00  0.00     0.019 A 
HETATM    8  C   UNL     1       6.386  33.239  64.568  1.00  0.00     0.032 A 
HETATM    9  C   UNL     1       5.386  32.738  63.728  1.00  0.00     0.019 A 
HETATM   10  C   UNL     1       5.725  32.094  62.534  1.00  0.00     0.030 A 
BRANCH   8  11
HETATM   11  C   UNL     1       5.976  33.938  65.815  1.00  0.00     0.249 C 
HETATM   12  N   UNL     1       6.919  34.093  66.793  1.00  0.00    -0.366 N 
HETATM   13  H   UNL     1       7.905  33.947  66.632  1.00  0.00     0.159 HD
HETATM   14  H   UNL     1       6.652  34.663  67.586  1.00  0.00     0.159 HD
HETATM   15  O   UNL     1       4.849  34.393  65.957  1.00  0.00    -0.268 OA
ENDBRANCH   8  11
ENDBRANCH   2   5
BRANCH   1  16
HETATM   16  C   UNL     1       8.035  30.905  58.717  1.00  0.00     0.144 A 
HETATM   17  O   UNL     1       6.813  30.642  58.146  1.00  0.00    -0.304 OA
HETATM   18  C   UNL     1       7.042  29.863  57.052  1.00  0.00     0.086 A 
HETATM   19  C   UNL     1       8.401  29.607  56.914  1.00  0.00     0.001 A 
HETATM   20  C   UNL     1       6.066  29.390  56.180  1.00  0.00     0.038 A 
HETATM   21  C   UNL     1       8.831  28.822  55.830  1.00  0.00     0.014 A 
HETATM   22  C   UNL     1       9.030  30.274  57.996  1.00  0.00     0.057 A 
HETATM   23  C   UNL     1       7.872  28.335  54.931  1.00  0.00     0.001 A 
HETATM   24  C   UNL     1       6.514  28.614  55.105  1.00  0.00     0.003 A 
ENDBRANCH   1  16
TORSDOF 3
ENDMDL
MODEL 10
REMARK VINA RESULT:      -8.0      2.271      2.894
REMARK  3 active torsions:
REMARK  status: ('A' for Active; 'I' for Inactive)
REMARK    1  A    between atoms: C_6  and  C_7 
REMARK       I    between atoms: C_7  and  N_8 
REMARK    2  A    between atoms: N_8  and  C_9 
REMARK    3  A    between atoms: C_12  and  C_13 
REMARK       I    between atoms: C_13  and  N_14 
ROOT
HETATM    1  C   UNL     1       6.724  26.159  55.075  1.00  0.00     0.280 C 
HETATM    2  N   UNL     1       6.927  26.648  56.354  1.00  0.00    -0.321 N 
HETATM    3  O   UNL     1       6.326  26.814  54.117  1.00  0.00    -0.265 OA
HETATM    4  H   UNL     1       7.299  25.971  57.011  1.00  0.00     0.169 HD
ENDROOT
BRANCH   2   5
HETATM    5  C   UNL     1       6.644  27.934  56.850  1.00  0.00     0.035 A 
HETATM    6  C   UNL     1       7.619  28.888  57.149  1.00  0.00     0.030 A 
HETATM    7  C   UNL     1       7.256  30.164  57.601  1.00  0.00     0.019 A 
HETATM    8  C   UNL     1       5.909  30.501  57.755  1.00  0.00     0.032 A 
HETATM    9  C   UNL     1       4.930  29.539  57.485  1.00  0.00     0.019 A 
HETATM   10  C   UNL     1       5.296  28.268  57.031  1.00  0.00     0.030 A 
BRANCH   8  11
HETATM   11  C   UNL     1       5.470  31.846  58.214  1.00  0.00     0.249 C 
HETATM   12  N   UNL     1       4.129  32.111  58.205  1.00  0.00    -0.366 N 
HETATM   13  H   UNL     1       3.428  31.392  58.104  1.00  0.00     0.159 HD
HETATM   14  H   UNL     1       3.844  32.990  58.619  1.00  0.00     0.159 HD
HETATM   15  O   UNL     1       6.269  32.678  58.620  1.00  0.00    -0.268 OA
ENDBRANCH   8  11
ENDBRANCH   2   5
BRANCH   1  16
HETATM   16  C   UNL     1       7.021  24.743  54.963  1.00  0.00     0.144 A 
HETATM   17  O   UNL     1       7.303  24.208  53.731  1.00  0.00    -0.304 OA
HETATM   18  C   UNL     1       7.589  22.890  53.922  1.00  0.00     0.086 A 
HETATM   19  C   UNL     1       7.483  22.561  55.267  1.00  0.00     0.001 A 
HETATM   20  C   UNL     1       7.948  21.988  52.924  1.00  0.00     0.038 A 
HETATM   21  C   UNL     1       7.751  21.238  55.661  1.00  0.00     0.014 A 
HETATM   22  C   UNL     1       7.107  23.758  55.929  1.00  0.00     0.057 A 
HETATM   23  C   UNL     1       8.120  20.307  54.679  1.00  0.00     0.001 A 
HETATM   24  C   UNL     1       8.216  20.677  53.335  1.00  0.00     0.003 A 
ENDBRANCH   1  16
TORSDOF 3
ENDMDL
