MODEL 1
REMARK VINA RESULT:     -10.6      0.000      0.000
REMARK  3 active torsions:
REMARK  status: ('A' for Active; 'I' for Inactive)
REMARK    1  A    between atoms: C_3  and  N_4 
REMARK       I    between atoms: N_7  and  C_8 
REMARK    2  A    between atoms: C_8  and  C_9 
REMARK    3  A    between atoms: C_23  and  O_24 
ROOT
HETATM    1  N   UNL     1       7.261  23.892  56.183  1.00  0.00    -0.278 NA
HETATM    2  C   UNL     1       6.115  24.730  55.742  1.00  0.00     0.115 C 
HETATM    3  C   UNL     1       5.800  25.813  56.790  1.00  0.00     0.141 C 
HETATM    4  N   UNL     1       6.993  26.610  57.110  1.00  0.00    -0.346 N 
HETATM    5  C   UNL     1       6.814  27.957  57.413  1.00  0.00     0.256 C 
HETATM    6  O   UNL     1       5.702  28.479  57.484  1.00  0.00    -0.267 OA
HETATM    7  C   UNL     1       8.146  25.793  57.521  1.00  0.00     0.141 C 
HETATM    8  C   UNL     1       8.473  24.712  56.472  1.00  0.00     0.115 C 
ENDROOT
BRANCH   5   9
HETATM    9  C   UNL     1       7.989  28.831  57.620  1.00  0.00     0.064 A 
HETATM   10  C   UNL     1       7.891  29.964  58.406  1.00  0.00     0.077 A 
HETATM   11  C   UNL     1       8.976  30.822  58.598  1.00  0.00     0.065 A 
HETATM   12  N   UNL     1       6.804  30.494  59.107  1.00  0.00    -0.330 N 
HETATM   13  N   UNL     1       8.561  31.868  59.421  1.00  0.00    -0.331 N 
HETATM   14  C   UNL     1      10.199  30.607  58.012  1.00  0.00     0.074 A 
HETATM   15  C   UNL     1       7.205  31.682  59.722  1.00  0.00     0.176 A 
HETATM   16  H   UNL     1       9.110  32.661  59.717  1.00  0.00     0.168 HD
HETATM   17  S   UNL     1       6.263  32.691  60.620  1.00  0.00    -0.041 SA
HETATM   18  C   UNL     1      10.296  29.490  57.184  1.00  0.00     0.119 A 
HETATM   19  F   UNL     1      11.456  29.239  56.564  1.00  0.00    -0.206 F 
HETATM   20  C   UNL     1       9.213  28.617  56.968  1.00  0.00     0.061 A 
HETATM   21  H   UNL     1       5.863  30.120  59.080  1.00  0.00     0.168 HD
ENDBRANCH   5   9
BRANCH   1  22
HETATM   22  C   UNL     1       7.591  22.822  55.312  1.00  0.00     0.044 A 
HETATM   23  C   UNL     1       7.487  22.870  53.918  1.00  0.00     0.026 A 
HETATM   24  C   UNL     1       7.877  21.777  53.135  1.00  0.00     0.002 A 
HETATM   25  C   UNL     1       8.381  20.620  53.732  1.00  0.00     0.003 A 
HETATM   26  C   UNL     1       8.489  20.547  55.118  1.00  0.00     0.038 A 
HETATM   27  C   UNL     1       8.089  21.634  55.883  1.00  0.00     0.087 A 
BRANCH  27  28
HETATM   28  O   UNL     1       8.150  21.537  57.249  1.00  0.00    -0.359 OA
HETATM   29  H   UNL     1       7.342  21.027  57.462  1.00  0.00     0.218 HD
ENDBRANCH  27  28
ENDBRANCH   1  22
TORSDOF 3
ENDMDL
MODEL 2
REMARK VINA RESULT:      -9.6      5.662      6.869
REMARK  3 active torsions:
REMARK  status: ('A' for Active; 'I' for Inactive)
REMARK    1  A    between atoms: C_3  and  N_4 
REMARK       I    between atoms: N_7  and  C_8 
REMARK    2  A    between atoms: C_8  and  C_9 
REMARK    3  A    between atoms: C_23  and  O_24 
ROOT
HETATM    1  N   UNL     1       7.510  24.025  53.870  1.00  0.00    -0.278 NA
HETATM    2  C   UNL     1       6.177  24.355  54.439  1.00  0.00     0.115 C 
HETATM    3  C   UNL     1       5.842  25.840  54.210  1.00  0.00     0.141 C 
HETATM    4  N   UNL     1       5.955  26.200  52.789  1.00  0.00    -0.346 N 
HETATM    5  C   UNL     1       5.079  27.159  52.289  1.00  0.00     0.256 C 
HETATM    6  O   UNL     1       4.269  27.753  53.000  1.00  0.00    -0.267 OA
HETATM    7  C   UNL     1       7.260  25.854  52.203  1.00  0.00     0.141 C 
HETATM    8  C   UNL     1       7.598  24.365  52.420  1.00  0.00     0.115 C 
ENDROOT
BRANCH   5   9
HETATM    9  C   UNL     1       5.067  27.467  50.843  1.00  0.00     0.064 A 
HETATM   10  C   UNL     1       5.235  28.766  50.401  1.00  0.00     0.077 A 
HETATM   11  C   UNL     1       5.202  29.092  49.043  1.00  0.00     0.065 A 
HETATM   12  N   UNL     1       5.431  29.952  51.114  1.00  0.00    -0.330 N 
HETATM   13  N   UNL     1       5.388  30.468  48.923  1.00  0.00    -0.331 N 
HETATM   14  C   UNL     1       4.988  28.152  48.064  1.00  0.00     0.074 A 
HETATM   15  C   UNL     1       5.509  31.012  50.208  1.00  0.00     0.176 A 
HETATM   16  H   UNL     1       5.385  31.008  48.070  1.00  0.00     0.168 HD
HETATM   17  S   UNL     1       5.689  32.608  50.574  1.00  0.00    -0.041 SA
HETATM   18  C   UNL     1       4.776  26.846  48.503  1.00  0.00     0.119 A 
HETATM   19  F   UNL     1       4.538  25.888  47.598  1.00  0.00    -0.206 F 
HETATM   20  C   UNL     1       4.794  26.497  49.867  1.00  0.00     0.061 A 
HETATM   21  H   UNL     1       5.418  30.027  52.125  1.00  0.00     0.168 HD
ENDBRANCH   5   9
BRANCH   1  22
HETATM   22  C   UNL     1       7.939  22.690  54.085  1.00  0.00     0.044 A 
HETATM   23  C   UNL     1       7.804  21.651  53.158  1.00  0.00     0.026 A 
HETATM   24  C   UNL     1       8.298  20.372  53.442  1.00  0.00     0.002 A 
HETATM   25  C   UNL     1       8.939  20.112  54.655  1.00  0.00     0.003 A 
HETATM   26  C   UNL     1       9.080  21.128  55.595  1.00  0.00     0.038 A 
HETATM   27  C   UNL     1       8.577  22.389  55.305  1.00  0.00     0.087 A 
BRANCH  27  28
HETATM   28  O   UNL     1       8.675  23.372  56.255  1.00  0.00    -0.359 OA
HETATM   29  H   UNL     1       8.119  23.022  56.982  1.00  0.00     0.218 HD
ENDBRANCH  27  28
ENDBRANCH   1  22
TORSDOF 3
ENDMDL
MODEL 3
REMARK VINA RESULT:      -9.5      6.025      7.384
REMARK  3 active torsions:
REMARK  status: ('A' for Active; 'I' for Inactive)
REMARK    1  A    between atoms: C_3  and  N_4 
REMARK       I    between atoms: N_7  and  C_8 
REMARK    2  A    between atoms: C_8  and  C_9 
REMARK    3  A    between atoms: C_23  and  O_24 
ROOT
HETATM    1  N   UNL     1       7.316  24.431  53.850  1.00  0.00    -0.278 NA
HETATM    2  C   UNL     1       5.883  24.533  54.229  1.00  0.00     0.115 C 
HETATM    3  C   UNL     1       5.425  26.003  54.227  1.00  0.00     0.141 C 
HETATM    4  N   UNL     1       5.716  26.650  52.939  1.00  0.00    -0.346 N 
HETATM    5  C   UNL     1       4.827  27.618  52.482  1.00  0.00     0.256 C 
HETATM    6  O   UNL     1       3.856  27.991  53.139  1.00  0.00    -0.267 OA
HETATM    7  C   UNL     1       7.126  26.533  52.535  1.00  0.00     0.141 C 
HETATM    8  C   UNL     1       7.590  25.063  52.527  1.00  0.00     0.115 C 
ENDROOT
BRANCH   5   9
HETATM    9  C   UNL     1       5.005  28.211  51.139  1.00  0.00     0.064 A 
HETATM   10  C   UNL     1       4.565  27.541  50.013  1.00  0.00     0.077 A 
HETATM   11  C   UNL     1       4.742  28.063  48.729  1.00  0.00     0.065 A 
HETATM   12  N   UNL     1       3.927  26.305  49.880  1.00  0.00    -0.330 N 
HETATM   13  N   UNL     1       4.207  27.157  47.814  1.00  0.00    -0.331 N 
HETATM   14  C   UNL     1       5.375  29.261  48.501  1.00  0.00     0.074 A 
HETATM   15  C   UNL     1       3.719  26.051  48.522  1.00  0.00     0.176 A 
HETATM   16  H   UNL     1       4.210  27.238  46.809  1.00  0.00     0.168 HD
HETATM   17  S   UNL     1       3.044  24.700  47.866  1.00  0.00    -0.041 SA
HETATM   18  C   UNL     1       5.860  29.924  49.628  1.00  0.00     0.119 A 
HETATM   19  F   UNL     1       6.507  31.085  49.470  1.00  0.00    -0.206 F 
HETATM   20  C   UNL     1       5.701  29.411  50.929  1.00  0.00     0.061 A 
HETATM   21  H   UNL     1       3.743  25.665  50.645  1.00  0.00     0.168 HD
ENDBRANCH   5   9
BRANCH   1  22
HETATM   22  C   UNL     1       7.853  23.118  53.884  1.00  0.00     0.044 A 
HETATM   23  C   UNL     1       7.708  22.172  52.863  1.00  0.00     0.026 A 
HETATM   24  C   UNL     1       8.311  20.912  52.966  1.00  0.00     0.002 A 
HETATM   25  C   UNL     1       9.072  20.579  54.089  1.00  0.00     0.003 A 
HETATM   26  C   UNL     1       9.226  21.502  55.119  1.00  0.00     0.038 A 
HETATM   27  C   UNL     1       8.614  22.743  55.009  1.00  0.00     0.087 A 
BRANCH  27  28
HETATM   28  O   UNL     1       8.728  23.629  56.049  1.00  0.00    -0.359 OA
HETATM   29  H   UNL     1       9.292  24.332  55.670  1.00  0.00     0.218 HD
ENDBRANCH  27  28
ENDBRANCH   1  22
TORSDOF 3
ENDMDL
MODEL 4
REMARK VINA RESULT:      -9.0      2.086      2.624
REMARK  3 active torsions:
REMARK  status: ('A' for Active; 'I' for Inactive)
REMARK    1  A    between atoms: C_3  and  N_4 
REMARK       I    between atoms: N_7  and  C_8 
REMARK    2  A    between atoms: C_8  and  C_9 
REMARK    3  A    between atoms: C_23  and  O_24 
ROOT
HETATM    1  N   UNL     1       6.713  25.980  55.832  1.00  0.00    -0.278 NA
HETATM    2  C   UNL     1       5.758  27.011  55.349  1.00  0.00     0.115 C 
HETATM    3  C   UNL     1       5.319  27.927  56.506  1.00  0.00     0.141 C 
HETATM    4  N   UNL     1       6.479  28.510  57.195  1.00  0.00    -0.346 N 
HETATM    5  C   UNL     1       6.351  29.796  57.712  1.00  0.00     0.256 C 
HETATM    6  O   UNL     1       5.296  30.426  57.669  1.00  0.00    -0.267 OA
HETATM    7  C   UNL     1       7.449  27.503  57.655  1.00  0.00     0.141 C 
HETATM    8  C   UNL     1       7.900  26.587  56.499  1.00  0.00     0.115 C 
ENDROOT
BRANCH   5   9
HETATM    9  C   UNL     1       7.524  30.475  58.305  1.00  0.00     0.064 A 
HETATM   10  C   UNL     1       7.376  31.294  59.408  1.00  0.00     0.077 A 
HETATM   11  C   UNL     1       8.461  31.970  59.974  1.00  0.00     0.065 A 
HETATM   12  N   UNL     1       6.237  31.639  60.141  1.00  0.00    -0.330 N 
HETATM   13  N   UNL     1       7.991  32.716  61.054  1.00  0.00    -0.331 N 
HETATM   14  C   UNL     1       9.733  31.876  59.466  1.00  0.00     0.074 A 
HETATM   15  C   UNL     1       6.606  32.533  61.148  1.00  0.00     0.176 A 
HETATM   16  H   UNL     1       8.530  33.332  61.645  1.00  0.00     0.168 HD
HETATM   17  S   UNL     1       5.604  33.255  62.238  1.00  0.00    -0.041 SA
HETATM   18  C   UNL     1       9.885  31.085  58.328  1.00  0.00     0.119 A 
HETATM   19  F   UNL     1      11.097  30.973  57.771  1.00  0.00    -0.206 F 
HETATM   20  C   UNL     1       8.804  30.404  57.736  1.00  0.00     0.061 A 
HETATM   21  H   UNL     1       5.292  31.357  59.904  1.00  0.00     0.168 HD
ENDBRANCH   5   9
BRANCH   1  22
HETATM   22  C   UNL     1       7.130  25.043  54.850  1.00  0.00     0.044 A 
HETATM   23  C   UNL     1       7.090  23.654  55.009  1.00  0.00     0.026 A 
HETATM   24  C   UNL     1       7.483  22.805  53.967  1.00  0.00     0.002 A 
HETATM   25  C   UNL     1       7.917  23.331  52.748  1.00  0.00     0.003 A 
HETATM   26  C   UNL     1       7.971  24.711  52.570  1.00  0.00     0.038 A 
HETATM   27  C   UNL     1       7.588  25.541  53.615  1.00  0.00     0.087 A 
BRANCH  27  28
HETATM   28  O   UNL     1       7.691  26.898  53.450  1.00  0.00    -0.359 OA
HETATM   29  H   UNL     1       8.647  27.057  53.585  1.00  0.00     0.218 HD
ENDBRANCH  27  28
ENDBRANCH   1  22
TORSDOF 3
ENDMDL
MODEL 5
REMARK VINA RESULT:      -8.9      4.390      8.536
REMARK  3 active torsions:
REMARK  status: ('A' for Active; 'I' for Inactive)
REMARK    1  A    between atoms: C_3  and  N_4 
REMARK       I    between atoms: N_7  and  C_8 
REMARK    2  A    between atoms: C_8  and  C_9 
REMARK    3  A    between atoms: C_23  and  O_24 
ROOT
HETATM    1  N   UNL     1       7.404  31.177  58.249  1.00  0.00    -0.278 NA
HETATM    2  C   UNL     1       5.959  31.476  58.063  1.00  0.00     0.115 C 
HETATM    3  C   UNL     1       5.532  31.199  56.609  1.00  0.00     0.141 C 
HETATM    4  N   UNL     1       5.884  29.831  56.201  1.00  0.00    -0.346 N 
HETATM    5  C   UNL     1       5.032  29.177  55.315  1.00  0.00     0.256 C 
HETATM    6  O   UNL     1       4.046  29.721  54.820  1.00  0.00    -0.267 OA
HETATM    7  C   UNL     1       7.305  29.510  56.407  1.00  0.00     0.141 C 
HETATM    8  C   UNL     1       7.739  29.776  57.862  1.00  0.00     0.115 C 
ENDROOT
BRANCH   5   9
HETATM    9  C   UNL     1       5.272  27.760  54.969  1.00  0.00     0.064 A 
HETATM   10  C   UNL     1       5.255  27.347  53.650  1.00  0.00     0.077 A 
HETATM   11  C   UNL     1       5.452  26.011  53.294  1.00  0.00     0.065 A 
HETATM   12  N   UNL     1       5.036  28.069  52.473  1.00  0.00    -0.330 N 
HETATM   13  N   UNL     1       5.365  25.914  51.906  1.00  0.00    -0.331 N 
HETATM   14  C   UNL     1       5.660  25.023  54.225  1.00  0.00     0.074 A 
HETATM   15  C   UNL     1       5.085  27.186  51.391  1.00  0.00     0.176 A 
HETATM   16  H   UNL     1       5.436  25.074  51.351  1.00  0.00     0.168 HD
HETATM   17  S   UNL     1       4.840  27.560  49.806  1.00  0.00    -0.041 SA
HETATM   18  C   UNL     1       5.638  25.422  55.560  1.00  0.00     0.119 A 
HETATM   19  F   UNL     1       5.811  24.502  56.517  1.00  0.00    -0.206 F 
HETATM   20  C   UNL     1       5.431  26.762  55.942  1.00  0.00     0.061 A 
HETATM   21  H   UNL     1       4.787  29.050  52.436  1.00  0.00     0.168 HD
ENDBRANCH   5   9
BRANCH   1  22
HETATM   22  C   UNL     1       7.911  31.461  59.544  1.00  0.00     0.044 A 
HETATM   23  C   UNL     1       7.187  31.315  60.732  1.00  0.00     0.026 A 
HETATM   24  C   UNL     1       7.786  31.579  61.970  1.00  0.00     0.002 A 
HETATM   25  C   UNL     1       9.120  31.987  62.040  1.00  0.00     0.003 A 
HETATM   26  C   UNL     1       9.859  32.145  60.871  1.00  0.00     0.038 A 
HETATM   27  C   UNL     1       9.249  31.890  59.650  1.00  0.00     0.087 A 
BRANCH  27  28
HETATM   28  O   UNL     1       9.966  32.095  58.500  1.00  0.00    -0.359 OA
HETATM   29  H   UNL     1      10.877  32.218  58.836  1.00  0.00     0.218 HD
ENDBRANCH  27  28
ENDBRANCH   1  22
TORSDOF 3
ENDMDL
MODEL 6
REMARK VINA RESULT:      -8.8      3.604      4.644
REMARK  3 active torsions:
REMARK  status: ('A' for Active; 'I' for Inactive)
REMARK    1  A    between atoms: C_3  and  N_4 
REMARK       I    between atoms: N_7  and  C_8 
REMARK    2  A    between atoms: C_8  and  C_9 
REMARK    3  A    between atoms: C_23  and  O_24 
ROOT
HETATM    1  N   UNL     1       5.911  27.316  53.299  1.00  0.00    -0.278 NA
HETATM    2  C   UNL     1       5.234  26.847  54.536  1.00  0.00     0.115 C 
HETATM    3  C   UNL     1       6.270  26.430  55.596  1.00  0.00     0.141 C 
HETATM    4  N   UNL     1       7.234  27.509  55.854  1.00  0.00    -0.346 N 
HETATM    5  C   UNL     1       7.733  27.641  57.147  1.00  0.00     0.256 C 
HETATM    6  O   UNL     1       7.448  26.858  58.051  1.00  0.00    -0.267 OA
HETATM    7  C   UNL     1       7.893  28.004  54.634  1.00  0.00     0.141 C 
HETATM    8  C   UNL     1       6.861  28.432  53.571  1.00  0.00     0.115 C 
ENDROOT
BRANCH   5   9
HETATM    9  C   UNL     1       8.609  28.783  57.488  1.00  0.00     0.064 A 
HETATM   10  C   UNL     1       8.091  29.902  58.113  1.00  0.00     0.077 A 
HETATM   11  C   UNL     1       8.888  31.006  58.425  1.00  0.00     0.065 A 
HETATM   12  N   UNL     1       6.787  30.194  58.524  1.00  0.00    -0.330 N 
HETATM   13  N   UNL     1       8.080  31.966  59.032  1.00  0.00    -0.331 N 
HETATM   14  C   UNL     1      10.226  31.059  58.120  1.00  0.00     0.074 A 
HETATM   15  C   UNL     1       6.768  31.476  59.076  1.00  0.00     0.176 A 
HETATM   16  H   UNL     1       8.360  32.884  59.345  1.00  0.00     0.168 HD
HETATM   17  S   UNL     1       5.452  32.278  59.656  1.00  0.00    -0.041 SA
HETATM   18  C   UNL     1      10.748  29.953  57.452  1.00  0.00     0.119 A 
HETATM   19  F   UNL     1      12.042  29.954  57.105  1.00  0.00    -0.206 F 
HETATM   20  C   UNL     1       9.961  28.834  57.119  1.00  0.00     0.061 A 
HETATM   21  H   UNL     1       5.982  29.603  58.351  1.00  0.00     0.168 HD
ENDBRANCH   5   9
BRANCH   1  22
HETATM   22  C   UNL     1       5.040  27.664  52.235  1.00  0.00     0.044 A 
HETATM   23  C   UNL     1       4.025  28.624  52.319  1.00  0.00     0.026 A 
HETATM   24  C   UNL     1       3.241  28.934  51.201  1.00  0.00     0.002 A 
HETATM   25  C   UNL     1       3.460  28.292  49.980  1.00  0.00     0.003 A 
HETATM   26  C   UNL     1       4.460  27.330  49.874  1.00  0.00     0.038 A 
HETATM   27  C   UNL     1       5.224  27.025  50.993  1.00  0.00     0.087 A 
BRANCH  27  28
HETATM   28  O   UNL     1       6.173  26.041  50.895  1.00  0.00    -0.359 OA
HETATM   29  H   UNL     1       6.861  26.462  50.341  1.00  0.00     0.218 HD
ENDBRANCH  27  28
ENDBRANCH   1  22
TORSDOF 3
ENDMDL
MODEL 7
REMARK VINA RESULT:      -8.8      4.011      7.931
REMARK  3 active torsions:
REMARK  status: ('A' for Active; 'I' for Inactive)
REMARK    1  A    between atoms: C_3  and  N_4 
REMARK       I    between atoms: N_7  and  C_8 
REMARK    2  A    between atoms: C_8  and  C_9 
REMARK    3  A    between atoms: C_23  and  O_24 
ROOT
HETATM    1  N   UNL     1       8.753  30.395  59.428  1.00  0.00    -0.278 NA
HETATM    2  C   UNL     1       9.436  31.102  58.312  1.00  0.00     0.115 C 
HETATM    3  C   UNL     1       9.857  30.106  57.217  1.00  0.00     0.141 C 
HETATM    4  N   UNL     1       8.715  29.300  56.760  1.00  0.00    -0.346 N 
HETATM    5  C   UNL     1       8.681  28.919  55.422  1.00  0.00     0.256 C 
HETATM    6  O   UNL     1       9.593  29.175  54.636  1.00  0.00    -0.267 OA
HETATM    7  C   UNL     1       8.010  28.616  57.856  1.00  0.00     0.141 C 
HETATM    8  C   UNL     1       7.577  29.609  58.954  1.00  0.00     0.115 C 
ENDROOT
BRANCH   5   9
HETATM    9  C   UNL     1       7.497  28.215  54.883  1.00  0.00     0.064 A 
HETATM   10  C   UNL     1       6.265  28.840  54.849  1.00  0.00     0.077 A 
HETATM   11  C   UNL     1       5.124  28.192  54.370  1.00  0.00     0.065 A 
HETATM   12  N   UNL     1       5.882  30.121  55.258  1.00  0.00    -0.330 N 
HETATM   13  N   UNL     1       4.049  29.073  54.475  1.00  0.00    -0.331 N 
HETATM   14  C   UNL     1       5.148  26.895  53.919  1.00  0.00     0.074 A 
HETATM   15  C   UNL     1       4.509  30.265  55.048  1.00  0.00     0.176 A 
HETATM   16  H   UNL     1       3.086  28.886  54.237  1.00  0.00     0.168 HD
HETATM   17  S   UNL     1       3.591  31.582  55.417  1.00  0.00    -0.041 SA
HETATM   18  C   UNL     1       6.377  26.242  53.989  1.00  0.00     0.119 A 
HETATM   19  F   UNL     1       6.460  24.968  53.586  1.00  0.00    -0.206 F 
HETATM   20  C   UNL     1       7.538  26.873  54.477  1.00  0.00     0.061 A 
HETATM   21  H   UNL     1       6.492  30.785  55.721  1.00  0.00     0.168 HD
ENDBRANCH   5   9
BRANCH   1  22
HETATM   22  C   UNL     1       8.380  31.220  60.521  1.00  0.00     0.044 A 
HETATM   23  C   UNL     1       7.711  32.443  60.403  1.00  0.00     0.026 A 
HETATM   24  C   UNL     1       7.346  33.169  61.543  1.00  0.00     0.002 A 
HETATM   25  C   UNL     1       7.638  32.682  62.819  1.00  0.00     0.003 A 
HETATM   26  C   UNL     1       8.307  31.470  62.960  1.00  0.00     0.038 A 
HETATM   27  C   UNL     1       8.674  30.766  61.822  1.00  0.00     0.087 A 
BRANCH  27  28
HETATM   28  O   UNL     1       9.377  29.598  61.967  1.00  0.00    -0.359 OA
HETATM   29  H   UNL     1       9.090  29.285  62.849  1.00  0.00     0.218 HD
ENDBRANCH  27  28
ENDBRANCH   1  22
TORSDOF 3
ENDMDL
MODEL 8
REMARK VINA RESULT:      -8.4      4.039      8.470
REMARK  3 active torsions:
REMARK  status: ('A' for Active; 'I' for Inactive)
REMARK    1  A    between atoms: C_3  and  N_4 
REMARK       I    between atoms: N_7  and  C_8 
REMARK    2  A    between atoms: C_8  and  C_9 
REMARK    3  A    between atoms: C_23  and  O_24 
ROOT
HETATM    1  N   UNL     1       5.314  29.258  57.074  1.00  0.00    -0.278 NA
HETATM    2  C   UNL     1       6.723  29.167  57.539  1.00  0.00     0.115 C 
HETATM    3  C   UNL     1       7.132  27.697  57.745  1.00  0.00     0.141 C 
HETATM    4  N   UNL     1       6.883  26.899  56.536  1.00  0.00    -0.346 N 
HETATM    5  C   UNL     1       7.761  25.857  56.252  1.00  0.00     0.256 C 
HETATM    6  O   UNL     1       8.686  25.546  57.001  1.00  0.00    -0.267 OA
HETATM    7  C   UNL     1       5.499  27.001  56.046  1.00  0.00     0.141 C 
HETATM    8  C   UNL     1       5.085  28.470  55.828  1.00  0.00     0.115 C 
ENDROOT
BRANCH   5   9
HETATM    9  C   UNL     1       7.630  25.103  54.986  1.00  0.00     0.064 A 
HETATM   10  C   UNL     1       7.768  23.728  54.971  1.00  0.00     0.077 A 
HETATM   11  C   UNL     1       7.675  22.992  53.788  1.00  0.00     0.065 A 
HETATM   12  N   UNL     1       8.029  22.828  56.008  1.00  0.00    -0.330 N 
HETATM   13  N   UNL     1       7.868  21.646  54.098  1.00  0.00    -0.331 N 
HETATM   14  C   UNL     1       7.457  23.583  52.567  1.00  0.00     0.074 A 
HETATM   15  C   UNL     1       8.112  21.541  55.473  1.00  0.00     0.176 A 
HETATM   16  H   UNL     1       7.887  20.872  53.451  1.00  0.00     0.168 HD
HETATM   17  S   UNL     1       8.449  20.154  56.295  1.00  0.00    -0.041 SA
HETATM   18  C   UNL     1       7.358  24.973  52.566  1.00  0.00     0.119 A 
HETATM   19  F   UNL     1       7.169  25.611  51.404  1.00  0.00    -0.206 F 
HETATM   20  C   UNL     1       7.459  25.736  53.746  1.00  0.00     0.061 A 
HETATM   21  H   UNL     1       8.224  23.093  56.967  1.00  0.00     0.168 HD
ENDBRANCH   5   9
BRANCH   1  22
HETATM   22  C   UNL     1       4.820  30.578  56.914  1.00  0.00     0.044 A 
HETATM   23  C   UNL     1       5.130  31.420  55.840  1.00  0.00     0.026 A 
HETATM   24  C   UNL     1       4.559  32.695  55.744  1.00  0.00     0.002 A 
HETATM   25  C   UNL     1       3.666  33.148  56.718  1.00  0.00     0.003 A 
HETATM   26  C   UNL     1       3.347  32.331  57.799  1.00  0.00     0.038 A 
HETATM   27  C   UNL     1       3.928  31.073  57.887  1.00  0.00     0.087 A 
BRANCH  27  28
HETATM   28  O   UNL     1       3.649  30.293  58.979  1.00  0.00    -0.359 OA
HETATM   29  H   UNL     1       4.538  29.996  59.261  1.00  0.00     0.218 HD
ENDBRANCH  27  28
ENDBRANCH   1  22
TORSDOF 3
ENDMDL
MODEL 9
REMARK VINA RESULT:      -8.4      4.131      4.830
REMARK  3 active torsions:
REMARK  status: ('A' for Active; 'I' for Inactive)
REMARK    1  A    between atoms: C_3  and  N_4 
REMARK       I    between atoms: N_7  and  C_8 
REMARK    2  A    between atoms: C_8  and  C_9 
REMARK    3  A    between atoms: C_23  and  O_24 
ROOT
HETATM    1  N   UNL     1       7.322  24.393  55.482  1.00  0.00    -0.278 NA
HETATM    2  C   UNL     1       6.121  24.558  56.342  1.00  0.00     0.115 C 
HETATM    3  C   UNL     1       5.823  26.050  56.575  1.00  0.00     0.141 C 
HETATM    4  N   UNL     1       5.710  26.777  55.302  1.00  0.00    -0.346 N 
HETATM    5  C   UNL     1       4.808  27.835  55.234  1.00  0.00     0.256 C 
HETATM    6  O   UNL     1       4.159  28.217  56.207  1.00  0.00    -0.267 OA
HETATM    7  C   UNL     1       6.879  26.601  54.426  1.00  0.00     0.141 C 
HETATM    8  C   UNL     1       7.180  25.108  54.181  1.00  0.00     0.115 C 
ENDROOT
BRANCH   5   9
HETATM    9  C   UNL     1       4.566  28.519  53.946  1.00  0.00     0.064 A 
HETATM   10  C   UNL     1       4.542  29.899  53.878  1.00  0.00     0.077 A 
HETATM   11  C   UNL     1       4.290  30.573  52.681  1.00  0.00     0.065 A 
HETATM   12  N   UNL     1       4.717  30.863  54.875  1.00  0.00    -0.330 N 
HETATM   13  N   UNL     1       4.321  31.943  52.939  1.00  0.00    -0.331 N 
HETATM   14  C   UNL     1       4.036  29.914  51.503  1.00  0.00     0.074 A 
HETATM   15  C   UNL     1       4.564  32.129  54.306  1.00  0.00     0.176 A 
HETATM   16  H   UNL     1       4.147  32.688  52.281  1.00  0.00     0.168 HD
HETATM   17  S   UNL     1       4.635  33.575  55.090  1.00  0.00    -0.041 SA
HETATM   18  C   UNL     1       4.017  28.522  51.570  1.00  0.00     0.119 A 
HETATM   19  F   UNL     1       3.752  27.821  50.460  1.00  0.00    -0.206 F 
HETATM   20  C   UNL     1       4.258  27.822  52.768  1.00  0.00     0.061 A 
HETATM   21  H   UNL     1       4.836  30.658  55.860  1.00  0.00     0.168 HD
ENDBRANCH   5   9
BRANCH   1  22
HETATM   22  C   UNL     1       7.719  23.049  55.259  1.00  0.00     0.044 A 
HETATM   23  C   UNL     1       7.621  22.383  54.032  1.00  0.00     0.026 A 
HETATM   24  C   UNL     1       8.078  21.067  53.896  1.00  0.00     0.002 A 
HETATM   25  C   UNL     1       8.647  20.397  54.981  1.00  0.00     0.003 A 
HETATM   26  C   UNL     1       8.750  21.037  56.213  1.00  0.00     0.038 A 
HETATM   27  C   UNL     1       8.282  22.338  56.337  1.00  0.00     0.087 A 
BRANCH  27  28
HETATM   28  O   UNL     1       8.341  22.945  57.565  1.00  0.00    -0.359 OA
HETATM   29  H   UNL     1       8.536  22.196  58.164  1.00  0.00     0.218 HD
ENDBRANCH  27  28
ENDBRANCH   1  22
TORSDOF 3
ENDMDL
MODEL 10
REMARK VINA RESULT:      -8.3      5.966      6.885
REMARK  3 active torsions:
REMARK  status: ('A' for Active; 'I' for Inactive)
REMARK    1  A    between atoms: C_3  and  N_4 
REMARK       I    between atoms: N_7  and  C_8 
REMARK    2  A    between atoms: C_8  and  C_9 
REMARK    3  A    between atoms: C_23  and  O_24 
ROOT
HETATM    1  N   UNL     1       6.817  26.331  55.229  1.00  0.00    -0.278 NA
HETATM    2  C   UNL     1       5.361  26.554  55.427  1.00  0.00     0.115 C 
HETATM    3  C   UNL     1       4.940  27.923  54.860  1.00  0.00     0.141 C 
HETATM    4  N   UNL     1       5.348  28.066  53.455  1.00  0.00    -0.346 N 
HETATM    5  C   UNL     1       4.522  28.800  52.609  1.00  0.00     0.256 C 
HETATM    6  O   UNL     1       3.511  29.378  53.006  1.00  0.00    -0.267 OA
HETATM    7  C   UNL     1       6.783  27.820  53.237  1.00  0.00     0.141 C 
HETATM    8  C   UNL     1       7.210  26.448  53.795  1.00  0.00     0.115 C 
ENDROOT
BRANCH   5   9
HETATM    9  C   UNL     1       4.821  28.872  51.162  1.00  0.00     0.064 A 
HETATM   10  C   UNL     1       5.153  30.077  50.573  1.00  0.00     0.077 A 
HETATM   11  C   UNL     1       5.415  30.181  49.205  1.00  0.00     0.065 A 
HETATM   12  N   UNL     1       5.275  31.356  51.123  1.00  0.00    -0.330 N 
HETATM   13  N   UNL     1       5.706  31.514  48.918  1.00  0.00    -0.331 N 
HETATM   14  C   UNL     1       5.346  29.102  48.357  1.00  0.00     0.074 A 
HETATM   15  C   UNL     1       5.598  32.254  50.103  1.00  0.00     0.176 A 
HETATM   16  H   UNL     1       5.908  31.909  48.012  1.00  0.00     0.168 HD
HETATM   17  S   UNL     1       5.798  33.881  50.252  1.00  0.00    -0.041 SA
HETATM   18  C   UNL     1       4.970  27.890  48.935  1.00  0.00     0.119 A 
HETATM   19  F   UNL     1       4.861  26.806  48.156  1.00  0.00    -0.206 F 
HETATM   20  C   UNL     1       4.692  27.765  50.309  1.00  0.00     0.061 A 
HETATM   21  H   UNL     1       5.062  31.593  52.086  1.00  0.00     0.168 HD
ENDBRANCH   5   9
BRANCH   1  22
HETATM   22  C   UNL     1       7.318  25.121  55.776  1.00  0.00     0.044 A 
HETATM   23  C   UNL     1       7.075  23.849  55.248  1.00  0.00     0.026 A 
HETATM   24  C   UNL     1       7.647  22.712  55.832  1.00  0.00     0.002 A 
HETATM   25  C   UNL     1       8.475  22.829  56.950  1.00  0.00     0.003 A 
HETATM   26  C   UNL     1       8.726  24.085  57.497  1.00  0.00     0.038 A 
HETATM   27  C   UNL     1       8.144  25.202  56.914  1.00  0.00     0.087 A 
BRANCH  27  28
HETATM   28  O   UNL     1       8.355  26.429  57.488  1.00  0.00    -0.359 OA
HETATM   29  H   UNL     1       7.894  26.345  58.347  1.00  0.00     0.218 HD
ENDBRANCH  27  28
ENDBRANCH   1  22
TORSDOF 3
ENDMDL
