MODEL 1
REMARK VINA RESULT:     -11.0      0.000      0.000
REMARK  5 active torsions:
REMARK  status: ('A' for Active; 'I' for Inactive)
REMARK    1  A    between atoms: O_2  and  C_3 
REMARK    2  A    between atoms: C_6  and  N_7 
REMARK    3  A    between atoms: C_11  and  C_12 
REMARK    4  A    between atoms: C_12  and  N_13 
REMARK       I    between atoms: N_13  and  C_14 
REMARK    5  A    between atoms: C_14  and  C_15 
ROOT
HETATM    1  N   UNL     1       8.139  27.238  56.379  1.00  0.00    -0.360 N 
HETATM    2  C   UNL     1       7.406  26.279  57.055  1.00  0.00     0.230 C 
HETATM    3  O   UNL     1       7.702  25.902  58.189  1.00  0.00    -0.272 OA
HETATM    4  H   UNL     1       7.792  27.557  55.480  1.00  0.00     0.162 HD
ENDROOT
BRANCH   1   5
HETATM    5  C   UNL     1       9.222  27.961  57.006  1.00  0.00     0.129 C 
BRANCH   5   6
HETATM    6  C   UNL     1       8.835  29.379  57.407  1.00  0.00     0.031 C 
HETATM    7  C   UNL     1      10.042  30.302  57.486  1.00  0.00     0.111 C 
HETATM    8  C   UNL     1       9.651  31.320  58.530  1.00  0.00     0.224 C 
HETATM    9  N   UNL     1       8.585  30.791  59.272  1.00  0.00    -0.318 N 
HETATM   10  O   UNL     1      10.251  32.374  58.673  1.00  0.00    -0.273 OA
HETATM   11  C   UNL     1       8.233  29.470  58.800  1.00  0.00     0.139 C 
BRANCH   9  12
HETATM   12  C   UNL     1       7.972  31.383  60.412  1.00  0.00     0.037 A 
HETATM   13  C   UNL     1       6.741  32.045  60.332  1.00  0.00     0.032 A 
HETATM   14  C   UNL     1       6.135  32.610  61.465  1.00  0.00     0.039 A 
HETATM   15  C   UNL     1       6.748  32.520  62.710  1.00  0.00     0.068 A 
HETATM   16  C   UNL     1       7.982  31.880  62.804  1.00  0.00     0.039 A 
HETATM   17  C   UNL     1       8.585  31.317  61.671  1.00  0.00     0.032 A 
BRANCH  15  18
HETATM   18  O   UNL     1       6.261  33.013  63.886  1.00  0.00    -0.356 OA
HETATM   19  C   UNL     1       7.222  33.349  64.880  1.00  0.00     0.210 C 
ENDBRANCH  15  18
ENDBRANCH   9  12
ENDBRANCH   5   6
ENDBRANCH   1   5
BRANCH   2  20
HETATM   20  C   UNL     1       6.210  25.693  56.288  1.00  0.00     0.149 C 
HETATM   21  C   UNL     1       6.662  24.642  55.302  1.00  0.00    -0.007 A 
HETATM   22  C   UNL     1       6.502  24.851  53.930  1.00  0.00     0.083 A 
HETATM   23  C   UNL     1       7.256  23.448  55.746  1.00  0.00     0.011 A 
HETATM   24  C   UNL     1       6.935  23.891  53.013  1.00  0.00     0.038 A 
HETATM   25  O   UNL     1       5.930  25.980  53.397  1.00  0.00    -0.310 OA
HETATM   26  C   UNL     1       7.523  22.708  53.462  1.00  0.00     0.003 A 
HETATM   27  C   UNL     1       7.683  22.488  54.828  1.00  0.00     0.001 A 
HETATM   28  C   UNL     1       5.314  26.868  54.244  1.00  0.00     0.083 A 
HETATM   29  C   UNL     1       5.388  26.784  55.635  1.00  0.00    -0.007 A 
HETATM   30  C   UNL     1       4.602  27.904  53.636  1.00  0.00     0.038 A 
HETATM   31  C   UNL     1       4.722  27.743  56.415  1.00  0.00     0.011 A 
HETATM   32  C   UNL     1       4.009  28.776  55.806  1.00  0.00     0.001 A 
HETATM   33  C   UNL     1       3.950  28.858  54.416  1.00  0.00     0.003 A 
ENDBRANCH   2  20
TORSDOF 5
ENDMDL
MODEL 2
REMARK VINA RESULT:     -10.2      4.010      6.095
REMARK  5 active torsions:
REMARK  status: ('A' for Active; 'I' for Inactive)
REMARK    1  A    between atoms: O_2  and  C_3 
REMARK    2  A    between atoms: C_6  and  N_7 
REMARK    3  A    between atoms: C_11  and  C_12 
REMARK    4  A    between atoms: C_12  and  N_13 
REMARK       I    between atoms: N_13  and  C_14 
REMARK    5  A    between atoms: C_14  and  C_15 
ROOT
HETATM    1  N   UNL     1       6.396  25.737  51.801  1.00  0.00    -0.360 N 
HETATM    2  C   UNL     1       6.237  24.923  52.908  1.00  0.00     0.230 C 
HETATM    3  O   UNL     1       5.146  24.455  53.231  1.00  0.00    -0.272 OA
HETATM    4  H   UNL     1       7.337  26.023  51.550  1.00  0.00     0.162 HD
ENDROOT
BRANCH   1   5
HETATM    5  C   UNL     1       5.319  25.987  50.869  1.00  0.00     0.129 C 
BRANCH   5   6
HETATM    6  C   UNL     1       4.620  27.318  51.113  1.00  0.00     0.031 C 
HETATM    7  C   UNL     1       5.390  28.487  50.517  1.00  0.00     0.111 C 
HETATM    8  C   UNL     1       5.036  29.648  51.413  1.00  0.00     0.224 C 
HETATM    9  N   UNL     1       4.522  29.130  52.610  1.00  0.00    -0.318 N 
HETATM   10  O   UNL     1       5.247  30.808  51.095  1.00  0.00    -0.273 OA
HETATM   11  C   UNL     1       4.513  27.683  52.585  1.00  0.00     0.139 C 
BRANCH   9  12
HETATM   12  C   UNL     1       4.151  29.875  53.764  1.00  0.00     0.037 A 
HETATM   13  C   UNL     1       3.224  30.923  53.704  1.00  0.00     0.032 A 
HETATM   14  C   UNL     1       2.850  31.642  54.851  1.00  0.00     0.039 A 
HETATM   15  C   UNL     1       3.393  31.321  56.090  1.00  0.00     0.068 A 
HETATM   16  C   UNL     1       4.330  30.293  56.165  1.00  0.00     0.039 A 
HETATM   17  C   UNL     1       4.702  29.577  55.019  1.00  0.00     0.032 A 
BRANCH  15  18
HETATM   18  O   UNL     1       3.106  31.930  57.278  1.00  0.00    -0.356 OA
HETATM   19  C   UNL     1       3.571  31.278  58.454  1.00  0.00     0.210 C 
ENDBRANCH  15  18
ENDBRANCH   9  12
ENDBRANCH   5   6
ENDBRANCH   1   5
BRANCH   2  20
HETATM   20  C   UNL     1       7.511  24.659  53.728  1.00  0.00     0.149 C 
HETATM   21  C   UNL     1       7.704  23.180  53.967  1.00  0.00    -0.007 A 
HETATM   22  C   UNL     1       7.642  22.665  55.263  1.00  0.00     0.083 A 
HETATM   23  C   UNL     1       7.937  22.304  52.894  1.00  0.00     0.011 A 
HETATM   24  C   UNL     1       7.803  21.296  55.488  1.00  0.00     0.038 A 
HETATM   25  O   UNL     1       7.425  23.438  56.378  1.00  0.00    -0.310 OA
HETATM   26  C   UNL     1       8.034  20.432  54.417  1.00  0.00     0.003 A 
HETATM   27  C   UNL     1       8.101  20.937  53.121  1.00  0.00     0.001 A 
HETATM   28  C   UNL     1       7.453  24.804  56.245  1.00  0.00     0.083 A 
HETATM   29  C   UNL     1       7.513  25.458  55.013  1.00  0.00    -0.007 A 
HETATM   30  C   UNL     1       7.399  25.537  57.432  1.00  0.00     0.038 A 
HETATM   31  C   UNL     1       7.536  26.862  54.984  1.00  0.00     0.011 A 
HETATM   32  C   UNL     1       7.485  27.594  56.172  1.00  0.00     0.001 A 
HETATM   33  C   UNL     1       7.415  26.931  57.396  1.00  0.00     0.003 A 
ENDBRANCH   2  20
TORSDOF 5
ENDMDL
MODEL 3
REMARK VINA RESULT:      -9.8      4.035      6.802
REMARK  5 active torsions:
REMARK  status: ('A' for Active; 'I' for Inactive)
REMARK    1  A    between atoms: O_2  and  C_3 
REMARK    2  A    between atoms: C_6  and  N_7 
REMARK    3  A    between atoms: C_11  and  C_12 
REMARK    4  A    between atoms: C_12  and  N_13 
REMARK       I    between atoms: N_13  and  C_14 
REMARK    5  A    between atoms: C_14  and  C_15 
ROOT
HETATM    1  N   UNL     1       5.758  25.050  52.219  1.00  0.00    -0.360 N 
HETATM    2  C   UNL     1       6.930  24.760  52.894  1.00  0.00     0.230 C 
HETATM    3  O   UNL     1       8.030  25.152  52.504  1.00  0.00    -0.272 OA
HETATM    4  H   UNL     1       4.881  24.760  52.640  1.00  0.00     0.162 HD
ENDROOT
BRANCH   1   5
HETATM    5  C   UNL     1       5.726  25.946  51.085  1.00  0.00     0.129 C 
BRANCH   5   6
HETATM    6  C   UNL     1       4.870  27.182  51.329  1.00  0.00     0.031 C 
HETATM    7  C   UNL     1       5.457  28.424  50.674  1.00  0.00     0.111 C 
HETATM    8  C   UNL     1       4.989  29.554  51.558  1.00  0.00     0.224 C 
HETATM    9  N   UNL     1       4.595  29.006  52.788  1.00  0.00    -0.318 N 
HETATM   10  O   UNL     1       5.035  30.722  51.206  1.00  0.00    -0.273 OA
HETATM   11  C   UNL     1       4.774  27.571  52.795  1.00  0.00     0.139 C 
BRANCH   9  12
HETATM   12  C   UNL     1       4.176  29.729  53.940  1.00  0.00     0.037 A 
HETATM   13  C   UNL     1       3.381  30.877  53.846  1.00  0.00     0.032 A 
HETATM   14  C   UNL     1       2.956  31.574  54.988  1.00  0.00     0.039 A 
HETATM   15  C   UNL     1       3.315  31.130  56.256  1.00  0.00     0.068 A 
HETATM   16  C   UNL     1       4.121  29.999  56.367  1.00  0.00     0.039 A 
HETATM   17  C   UNL     1       4.543  29.306  55.225  1.00  0.00     0.032 A 
BRANCH  15  18
HETATM   18  O   UNL     1       2.960  31.706  57.442  1.00  0.00    -0.356 OA
HETATM   19  C   UNL     1       3.731  31.341  58.581  1.00  0.00     0.210 C 
ENDBRANCH  15  18
ENDBRANCH   9  12
ENDBRANCH   5   6
ENDBRANCH   1   5
BRANCH   2  20
HETATM   20  C   UNL     1       6.775  23.891  54.153  1.00  0.00     0.149 C 
HETATM   21  C   UNL     1       7.050  24.695  55.402  1.00  0.00    -0.007 A 
HETATM   22  C   UNL     1       8.144  24.383  56.211  1.00  0.00     0.083 A 
HETATM   23  C   UNL     1       6.219  25.770  55.762  1.00  0.00     0.011 A 
HETATM   24  C   UNL     1       8.413  25.134  57.358  1.00  0.00     0.038 A 
HETATM   25  O   UNL     1       9.011  23.350  55.950  1.00  0.00    -0.310 OA
HETATM   26  C   UNL     1       7.583  26.199  57.708  1.00  0.00     0.003 A 
HETATM   27  C   UNL     1       6.487  26.516  56.910  1.00  0.00     0.001 A 
HETATM   28  C   UNL     1       8.692  22.461  54.953  1.00  0.00     0.083 A 
HETATM   29  C   UNL     1       7.628  22.643  54.069  1.00  0.00    -0.007 A 
HETATM   30  C   UNL     1       9.516  21.339  54.845  1.00  0.00     0.038 A 
HETATM   31  C   UNL     1       7.385  21.675  53.081  1.00  0.00     0.011 A 
HETATM   32  C   UNL     1       8.207  20.552  52.976  1.00  0.00     0.001 A 
HETATM   33  C   UNL     1       9.274  20.385  53.857  1.00  0.00     0.003 A 
ENDBRANCH   2  20
TORSDOF 5
ENDMDL
MODEL 4
REMARK VINA RESULT:      -9.8      5.090     10.030
REMARK  5 active torsions:
REMARK  status: ('A' for Active; 'I' for Inactive)
REMARK    1  A    between atoms: O_2  and  C_3 
REMARK    2  A    between atoms: C_6  and  N_7 
REMARK    3  A    between atoms: C_11  and  C_12 
REMARK    4  A    between atoms: C_12  and  N_13 
REMARK       I    between atoms: N_13  and  C_14 
REMARK    5  A    between atoms: C_14  and  C_15 
ROOT
HETATM    1  N   UNL     1       6.237  25.519  51.780  1.00  0.00    -0.360 N 
HETATM    2  C   UNL     1       6.102  25.015  53.061  1.00  0.00     0.230 C 
HETATM    3  O   UNL     1       5.004  24.807  53.576  1.00  0.00    -0.272 OA
HETATM    4  H   UNL     1       7.171  25.591  51.391  1.00  0.00     0.162 HD
ENDROOT
BRANCH   1   5
HETATM    5  C   UNL     1       5.100  25.711  50.906  1.00  0.00     0.129 C 
BRANCH   5   6
HETATM    6  C   UNL     1       5.043  27.111  50.307  1.00  0.00     0.031 C 
HETATM    7  C   UNL     1       4.625  28.156  51.331  1.00  0.00     0.111 C 
HETATM    8  C   UNL     1       3.932  29.213  50.506  1.00  0.00     0.224 C 
HETATM    9  N   UNL     1       3.588  28.642  49.272  1.00  0.00    -0.318 N 
HETATM   10  O   UNL     1       3.698  30.331  50.938  1.00  0.00    -0.273 OA
HETATM   11  C   UNL     1       4.000  27.256  49.212  1.00  0.00     0.139 C 
BRANCH   9  12
HETATM   12  C   UNL     1       2.839  29.262  48.233  1.00  0.00     0.037 A 
HETATM   13  C   UNL     1       3.441  30.090  47.278  1.00  0.00     0.032 A 
HETATM   14  C   UNL     1       2.699  30.683  46.245  1.00  0.00     0.039 A 
HETATM   15  C   UNL     1       1.331  30.454  46.141  1.00  0.00     0.068 A 
HETATM   16  C   UNL     1       0.712  29.647  47.094  1.00  0.00     0.039 A 
HETATM   17  C   UNL     1       1.457  29.056  48.124  1.00  0.00     0.032 A 
BRANCH  15  18
HETATM   18  O   UNL     1       0.499  30.958  45.183  1.00  0.00    -0.356 OA
HETATM   19  C   UNL     1      -0.721  30.259  44.970  1.00  0.00     0.210 C 
ENDBRANCH  15  18
ENDBRANCH   9  12
ENDBRANCH   5   6
ENDBRANCH   1   5
BRANCH   2  20
HETATM   20  C   UNL     1       7.418  24.753  53.813  1.00  0.00     0.149 C 
HETATM   21  C   UNL     1       7.622  23.275  54.046  1.00  0.00    -0.007 A 
HETATM   22  C   UNL     1       7.629  22.762  55.345  1.00  0.00     0.083 A 
HETATM   23  C   UNL     1       7.798  22.395  52.964  1.00  0.00     0.011 A 
HETATM   24  C   UNL     1       7.800  21.394  55.565  1.00  0.00     0.038 A 
HETATM   25  O   UNL     1       7.471  23.539  56.467  1.00  0.00    -0.310 OA
HETATM   26  C   UNL     1       7.975  20.527  54.486  1.00  0.00     0.003 A 
HETATM   27  C   UNL     1       7.974  21.029  53.187  1.00  0.00     0.001 A 
HETATM   28  C   UNL     1       7.492  24.904  56.329  1.00  0.00     0.083 A 
HETATM   29  C   UNL     1       7.487  25.555  55.095  1.00  0.00    -0.007 A 
HETATM   30  C   UNL     1       7.501  25.641  57.516  1.00  0.00     0.038 A 
HETATM   31  C   UNL     1       7.508  26.959  55.061  1.00  0.00     0.011 A 
HETATM   32  C   UNL     1       7.520  27.694  56.247  1.00  0.00     0.001 A 
HETATM   33  C   UNL     1       7.514  27.034  57.475  1.00  0.00     0.003 A 
ENDBRANCH   2  20
TORSDOF 5
ENDMDL
MODEL 5
REMARK VINA RESULT:      -9.5      1.978      2.473
REMARK  5 active torsions:
REMARK  status: ('A' for Active; 'I' for Inactive)
REMARK    1  A    between atoms: O_2  and  C_3 
REMARK    2  A    between atoms: C_6  and  N_7 
REMARK    3  A    between atoms: C_11  and  C_12 
REMARK    4  A    between atoms: C_12  and  N_13 
REMARK       I    between atoms: N_13  and  C_14 
REMARK    5  A    between atoms: C_14  and  C_15 
ROOT
HETATM    1  N   UNL     1       6.722  27.917  56.008  1.00  0.00    -0.360 N 
HETATM    2  C   UNL     1       7.061  27.484  54.739  1.00  0.00     0.230 C 
HETATM    3  O   UNL     1       7.997  27.970  54.104  1.00  0.00    -0.272 OA
HETATM    4  H   UNL     1       5.989  27.418  56.502  1.00  0.00     0.162 HD
ENDROOT
BRANCH   1   5
HETATM    5  C   UNL     1       7.523  28.878  56.732  1.00  0.00     0.129 C 
BRANCH   5   6
HETATM    6  C   UNL     1       6.706  29.719  57.705  1.00  0.00     0.031 C 
HETATM    7  C   UNL     1       6.317  31.065  57.113  1.00  0.00     0.111 C 
HETATM    8  C   UNL     1       6.219  31.973  58.314  1.00  0.00     0.224 C 
HETATM    9  N   UNL     1       6.903  31.363  59.375  1.00  0.00    -0.318 N 
HETATM   10  O   UNL     1       5.668  33.062  58.268  1.00  0.00    -0.273 OA
HETATM   11  C   UNL     1       7.469  30.097  58.964  1.00  0.00     0.139 C 
BRANCH   9  12
HETATM   12  C   UNL     1       7.135  31.920  60.664  1.00  0.00     0.037 A 
HETATM   13  C   UNL     1       6.195  32.742  61.297  1.00  0.00     0.032 A 
HETATM   14  C   UNL     1       6.423  33.273  62.576  1.00  0.00     0.039 A 
HETATM   15  C   UNL     1       7.602  32.986  63.256  1.00  0.00     0.068 A 
HETATM   16  C   UNL     1       8.556  32.184  62.634  1.00  0.00     0.039 A 
HETATM   17  C   UNL     1       8.326  31.656  61.356  1.00  0.00     0.032 A 
BRANCH  15  18
HETATM   18  O   UNL     1       7.940  33.426  64.503  1.00  0.00    -0.356 OA
HETATM   19  C   UNL     1       6.865  33.698  65.394  1.00  0.00     0.210 C 
ENDBRANCH  15  18
ENDBRANCH   9  12
ENDBRANCH   5   6
ENDBRANCH   1   5
BRANCH   2  20
HETATM   20  C   UNL     1       6.177  26.368  54.158  1.00  0.00     0.149 C 
HETATM   21  C   UNL     1       6.954  25.082  54.013  1.00  0.00    -0.007 A 
HETATM   22  C   UNL     1       7.195  24.545  52.747  1.00  0.00     0.083 A 
HETATM   23  C   UNL     1       7.453  24.413  55.144  1.00  0.00     0.011 A 
HETATM   24  C   UNL     1       7.928  23.365  52.607  1.00  0.00     0.038 A 
HETATM   25  O   UNL     1       6.746  25.119  51.582  1.00  0.00    -0.310 OA
HETATM   26  C   UNL     1       8.420  22.707  53.734  1.00  0.00     0.003 A 
HETATM   27  C   UNL     1       8.182  23.231  55.002  1.00  0.00     0.001 A 
HETATM   28  C   UNL     1       5.863  26.166  51.664  1.00  0.00     0.083 A 
HETATM   29  C   UNL     1       5.527  26.801  52.861  1.00  0.00    -0.007 A 
HETATM   30  C   UNL     1       5.307  26.597  50.457  1.00  0.00     0.038 A 
HETATM   31  C   UNL     1       4.612  27.865  52.838  1.00  0.00     0.011 A 
HETATM   32  C   UNL     1       4.056  28.293  51.632  1.00  0.00     0.001 A 
HETATM   33  C   UNL     1       4.405  27.659  50.441  1.00  0.00     0.003 A 
ENDBRANCH   2  20
TORSDOF 5
ENDMDL
MODEL 6
REMARK VINA RESULT:      -9.4      4.730      9.211
REMARK  5 active torsions:
REMARK  status: ('A' for Active; 'I' for Inactive)
REMARK    1  A    between atoms: O_2  and  C_3 
REMARK    2  A    between atoms: C_6  and  N_7 
REMARK    3  A    between atoms: C_11  and  C_12 
REMARK    4  A    between atoms: C_12  and  N_13 
REMARK       I    between atoms: N_13  and  C_14 
REMARK    5  A    between atoms: C_14  and  C_15 
ROOT
HETATM    1  N   UNL     1       5.453  29.014  52.318  1.00  0.00    -0.360 N 
HETATM    2  C   UNL     1       4.617  29.209  51.233  1.00  0.00     0.230 C 
HETATM    3  O   UNL     1       3.428  29.498  51.361  1.00  0.00    -0.272 OA
HETATM    4  H   UNL     1       6.439  28.855  52.137  1.00  0.00     0.162 HD
ENDROOT
BRANCH   1   5
HETATM    5  C   UNL     1       5.023  29.267  53.675  1.00  0.00     0.129 C 
BRANCH   5   6
HETATM    6  C   UNL     1       5.400  28.146  54.635  1.00  0.00     0.031 C 
HETATM    7  C   UNL     1       6.597  28.512  55.501  1.00  0.00     0.111 C 
HETATM    8  C   UNL     1       7.253  27.184  55.789  1.00  0.00     0.224 C 
HETATM    9  N   UNL     1       6.782  26.255  54.850  1.00  0.00    -0.318 N 
HETATM   10  O   UNL     1       8.085  27.043  56.672  1.00  0.00    -0.273 OA
HETATM   11  C   UNL     1       5.850  26.875  53.934  1.00  0.00     0.139 C 
BRANCH   9  12
HETATM   12  C   UNL     1       7.213  24.907  54.704  1.00  0.00     0.037 A 
HETATM   13  C   UNL     1       7.066  23.966  55.730  1.00  0.00     0.032 A 
HETATM   14  C   UNL     1       7.477  22.633  55.572  1.00  0.00     0.039 A 
HETATM   15  C   UNL     1       8.043  22.210  54.374  1.00  0.00     0.068 A 
HETATM   16  C   UNL     1       8.214  23.137  53.349  1.00  0.00     0.039 A 
HETATM   17  C   UNL     1       7.802  24.467  53.510  1.00  0.00     0.032 A 
BRANCH  15  18
HETATM   18  O   UNL     1       8.471  20.945  54.088  1.00  0.00    -0.356 OA
HETATM   19  C   UNL     1       8.212  20.470  52.772  1.00  0.00     0.210 C 
ENDBRANCH  15  18
ENDBRANCH   9  12
ENDBRANCH   5   6
ENDBRANCH   1   5
BRANCH   2  20
HETATM   20  C   UNL     1       5.265  29.015  49.852  1.00  0.00     0.149 C 
HETATM   21  C   UNL     1       5.346  30.325  49.105  1.00  0.00    -0.007 A 
HETATM   22  C   UNL     1       4.619  30.509  47.927  1.00  0.00     0.083 A 
HETATM   23  C   UNL     1       6.144  31.378  49.586  1.00  0.00     0.011 A 
HETATM   24  C   UNL     1       4.678  31.724  47.242  1.00  0.00     0.038 A 
HETATM   25  O   UNL     1       3.817  29.542  47.372  1.00  0.00    -0.310 OA
HETATM   26  C   UNL     1       5.471  32.764  47.726  1.00  0.00     0.003 A 
HETATM   27  C   UNL     1       6.204  32.590  48.897  1.00  0.00     0.001 A 
HETATM   28  C   UNL     1       3.868  28.271  47.888  1.00  0.00     0.083 A 
HETATM   29  C   UNL     1       4.555  27.940  49.057  1.00  0.00    -0.007 A 
HETATM   30  C   UNL     1       3.166  27.292  47.181  1.00  0.00     0.038 A 
HETATM   31  C   UNL     1       4.546  26.608  49.503  1.00  0.00     0.011 A 
HETATM   32  C   UNL     1       3.846  25.631  48.794  1.00  0.00     0.001 A 
HETATM   33  C   UNL     1       3.154  25.974  47.633  1.00  0.00     0.003 A 
ENDBRANCH   2  20
TORSDOF 5
ENDMDL
MODEL 7
REMARK VINA RESULT:      -9.2      1.969      2.761
REMARK  5 active torsions:
REMARK  status: ('A' for Active; 'I' for Inactive)
REMARK    1  A    between atoms: O_2  and  C_3 
REMARK    2  A    between atoms: C_6  and  N_7 
REMARK    3  A    between atoms: C_11  and  C_12 
REMARK    4  A    between atoms: C_12  and  N_13 
REMARK       I    between atoms: N_13  and  C_14 
REMARK    5  A    between atoms: C_14  and  C_15 
ROOT
HETATM    1  N   UNL     1       8.161  29.384  57.882  1.00  0.00    -0.360 N 
HETATM    2  C   UNL     1       7.996  28.707  56.687  1.00  0.00     0.230 C 
HETATM    3  O   UNL     1       8.663  28.965  55.685  1.00  0.00    -0.272 OA
HETATM    4  H   UNL     1       7.631  29.066  58.687  1.00  0.00     0.162 HD
ENDROOT
BRANCH   1   5
HETATM    5  C   UNL     1       9.219  30.349  58.079  1.00  0.00     0.129 C 
BRANCH   5   6
HETATM    6  C   UNL     1       9.000  31.229  59.303  1.00  0.00     0.031 C 
HETATM    7  C   UNL     1       9.122  30.446  60.601  1.00  0.00     0.111 C 
HETATM    8  C   UNL     1       8.211  31.181  61.554  1.00  0.00     0.224 C 
HETATM    9  N   UNL     1       7.341  31.976  60.793  1.00  0.00    -0.318 N 
HETATM   10  O   UNL     1       8.252  31.010  62.762  1.00  0.00    -0.273 OA
HETATM   11  C   UNL     1       7.601  31.819  59.379  1.00  0.00     0.139 C 
BRANCH   9  12
HETATM   12  C   UNL     1       6.262  32.761  61.288  1.00  0.00     0.037 A 
HETATM   13  C   UNL     1       4.948  32.583  60.838  1.00  0.00     0.032 A 
HETATM   14  C   UNL     1       3.886  33.349  61.345  1.00  0.00     0.039 A 
HETATM   15  C   UNL     1       4.117  34.311  62.323  1.00  0.00     0.068 A 
HETATM   16  C   UNL     1       5.421  34.513  62.769  1.00  0.00     0.039 A 
HETATM   17  C   UNL     1       6.479  33.747  62.261  1.00  0.00     0.032 A 
BRANCH  15  18
HETATM   18  O   UNL     1       3.176  35.110  62.906  1.00  0.00    -0.356 OA
HETATM   19  C   UNL     1       3.486  36.496  62.993  1.00  0.00     0.210 C 
ENDBRANCH  15  18
ENDBRANCH   9  12
ENDBRANCH   5   6
ENDBRANCH   1   5
BRANCH   2  20
HETATM   20  C   UNL     1       6.903  27.625  56.681  1.00  0.00     0.149 C 
HETATM   21  C   UNL     1       7.500  26.256  56.458  1.00  0.00    -0.007 A 
HETATM   22  C   UNL     1       7.193  25.536  55.301  1.00  0.00     0.083 A 
HETATM   23  C   UNL     1       8.376  25.692  57.400  1.00  0.00     0.011 A 
HETATM   24  C   UNL     1       7.756  24.277  55.081  1.00  0.00     0.038 A 
HETATM   25  O   UNL     1       6.345  25.997  54.324  1.00  0.00    -0.310 OA
HETATM   26  C   UNL     1       8.625  23.724  56.022  1.00  0.00     0.003 A 
HETATM   27  C   UNL     1       8.934  24.432  57.181  1.00  0.00     0.001 A 
HETATM   28  C   UNL     1       5.615  27.133  54.570  1.00  0.00     0.083 A 
HETATM   29  C   UNL     1       5.812  27.950  55.684  1.00  0.00    -0.007 A 
HETATM   30  C   UNL     1       4.646  27.458  53.618  1.00  0.00     0.038 A 
HETATM   31  C   UNL     1       5.013  29.094  55.844  1.00  0.00     0.011 A 
HETATM   32  C   UNL     1       4.043  29.416  54.894  1.00  0.00     0.001 A 
HETATM   33  C   UNL     1       3.861  28.599  53.779  1.00  0.00     0.003 A 
ENDBRANCH   2  20
TORSDOF 5
ENDMDL
MODEL 8
REMARK VINA RESULT:      -9.2      5.148      9.535
REMARK  5 active torsions:
REMARK  status: ('A' for Active; 'I' for Inactive)
REMARK    1  A    between atoms: O_2  and  C_3 
REMARK    2  A    between atoms: C_6  and  N_7 
REMARK    3  A    between atoms: C_11  and  C_12 
REMARK    4  A    between atoms: C_12  and  N_13 
REMARK       I    between atoms: N_13  and  C_14 
REMARK    5  A    between atoms: C_14  and  C_15 
ROOT
HETATM    1  N   UNL     1       5.252  25.285  51.916  1.00  0.00    -0.360 N 
HETATM    2  C   UNL     1       6.466  25.017  52.523  1.00  0.00     0.230 C 
HETATM    3  O   UNL     1       7.542  25.321  52.010  1.00  0.00    -0.272 OA
HETATM    4  H   UNL     1       4.404  25.076  52.433  1.00  0.00     0.162 HD
ENDROOT
BRANCH   1   5
HETATM    5  C   UNL     1       5.156  26.061  50.700  1.00  0.00     0.129 C 
BRANCH   5   6
HETATM    6  C   UNL     1       5.355  27.554  50.932  1.00  0.00     0.031 C 
HETATM    7  C   UNL     1       4.129  28.206  51.553  1.00  0.00     0.111 C 
HETATM    8  C   UNL     1       4.179  29.627  51.046  1.00  0.00     0.224 C 
HETATM    9  N   UNL     1       5.033  29.659  49.933  1.00  0.00    -0.318 N 
HETATM   10  O   UNL     1       3.513  30.522  51.542  1.00  0.00    -0.273 OA
HETATM   11  C   UNL     1       5.560  28.342  49.649  1.00  0.00     0.139 C 
BRANCH   9  12
HETATM   12  C   UNL     1       5.291  30.782  49.098  1.00  0.00     0.037 A 
HETATM   13  C   UNL     1       6.149  31.816  49.489  1.00  0.00     0.032 A 
HETATM   14  C   UNL     1       6.413  32.911  48.651  1.00  0.00     0.039 A 
HETATM   15  C   UNL     1       5.824  32.992  47.394  1.00  0.00     0.068 A 
HETATM   16  C   UNL     1       4.952  31.981  46.996  1.00  0.00     0.039 A 
HETATM   17  C   UNL     1       4.691  30.889  47.835  1.00  0.00     0.032 A 
BRANCH  15  18
HETATM   18  O   UNL     1       6.005  33.992  46.482  1.00  0.00    -0.356 OA
HETATM   19  C   UNL     1       7.117  33.857  45.605  1.00  0.00     0.210 C 
ENDBRANCH  15  18
ENDBRANCH   9  12
ENDBRANCH   5   6
ENDBRANCH   1   5
BRANCH   2  20
HETATM   20  C   UNL     1       6.386  24.287  53.875  1.00  0.00     0.149 C 
HETATM   21  C   UNL     1       6.557  25.254  55.022  1.00  0.00    -0.007 A 
HETATM   22  C   UNL     1       7.667  25.157  55.864  1.00  0.00     0.083 A 
HETATM   23  C   UNL     1       5.612  26.268  55.253  1.00  0.00     0.011 A 
HETATM   24  C   UNL     1       7.838  26.059  56.916  1.00  0.00     0.038 A 
HETATM   25  O   UNL     1       8.642  24.199  55.725  1.00  0.00    -0.310 OA
HETATM   26  C   UNL     1       6.896  27.063  57.138  1.00  0.00     0.003 A 
HETATM   27  C   UNL     1       5.783  27.166  56.307  1.00  0.00     0.001 A 
HETATM   28  C   UNL     1       8.433  23.173  54.838  1.00  0.00     0.083 A 
HETATM   29  C   UNL     1       7.367  23.136  53.937  1.00  0.00    -0.007 A 
HETATM   30  C   UNL     1       9.372  22.139  54.862  1.00  0.00     0.038 A 
HETATM   31  C   UNL     1       7.242  22.040  53.068  1.00  0.00     0.011 A 
HETATM   32  C   UNL     1       8.180  21.007  53.096  1.00  0.00     0.001 A 
HETATM   33  C   UNL     1       9.246  21.058  53.992  1.00  0.00     0.003 A 
ENDBRANCH   2  20
TORSDOF 5
ENDMDL
MODEL 9
REMARK VINA RESULT:      -9.1      2.705      5.046
REMARK  5 active torsions:
REMARK  status: ('A' for Active; 'I' for Inactive)
REMARK    1  A    between atoms: O_2  and  C_3 
REMARK    2  A    between atoms: C_6  and  N_7 
REMARK    3  A    between atoms: C_11  and  C_12 
REMARK    4  A    between atoms: C_12  and  N_13 
REMARK       I    between atoms: N_13  and  C_14 
REMARK    5  A    between atoms: C_14  and  C_15 
ROOT
HETATM    1  N   UNL     1       4.749  29.896  58.079  1.00  0.00    -0.360 N 
HETATM    2  C   UNL     1       5.528  29.836  56.937  1.00  0.00     0.230 C 
HETATM    3  O   UNL     1       5.355  30.591  55.980  1.00  0.00    -0.272 OA
HETATM    4  H   UNL     1       4.998  29.296  58.858  1.00  0.00     0.162 HD
ENDROOT
BRANCH   1   5
HETATM    5  C   UNL     1       3.766  30.937  58.285  1.00  0.00     0.129 C 
BRANCH   5   6
HETATM    6  C   UNL     1       4.291  32.090  59.130  1.00  0.00     0.031 C 
HETATM    7  C   UNL     1       5.797  32.011  59.336  1.00  0.00     0.111 C 
HETATM    8  C   UNL     1       6.015  32.677  60.672  1.00  0.00     0.224 C 
HETATM    9  N   UNL     1       4.784  32.710  61.345  1.00  0.00    -0.318 N 
HETATM   10  O   UNL     1       7.117  33.043  61.049  1.00  0.00    -0.273 OA
HETATM   11  C   UNL     1       3.744  32.097  60.548  1.00  0.00     0.139 C 
BRANCH   9  12
HETATM   12  C   UNL     1       4.558  33.168  62.673  1.00  0.00     0.037 A 
HETATM   13  C   UNL     1       5.415  32.834  63.729  1.00  0.00     0.032 A 
HETATM   14  C   UNL     1       5.196  33.306  65.033  1.00  0.00     0.039 A 
HETATM   15  C   UNL     1       4.111  34.131  65.308  1.00  0.00     0.068 A 
HETATM   16  C   UNL     1       3.237  34.458  64.273  1.00  0.00     0.039 A 
HETATM   17  C   UNL     1       3.459  33.985  62.973  1.00  0.00     0.032 A 
BRANCH  15  18
HETATM   18  O   UNL     1       3.792  34.664  66.524  1.00  0.00    -0.356 OA
HETATM   19  C   UNL     1       4.579  34.238  67.630  1.00  0.00     0.210 C 
ENDBRANCH  15  18
ENDBRANCH   9  12
ENDBRANCH   5   6
ENDBRANCH   1   5
BRANCH   2  20
HETATM   20  C   UNL     1       6.611  28.744  56.928  1.00  0.00     0.149 C 
HETATM   21  C   UNL     1       7.985  29.345  57.104  1.00  0.00    -0.007 A 
HETATM   22  C   UNL     1       8.926  29.261  56.076  1.00  0.00     0.083 A 
HETATM   23  C   UNL     1       8.334  30.003  58.296  1.00  0.00     0.011 A 
HETATM   24  C   UNL     1      10.192  29.829  56.227  1.00  0.00     0.038 A 
HETATM   25  O   UNL     1       8.685  28.635  54.877  1.00  0.00    -0.310 OA
HETATM   26  C   UNL     1      10.530  30.481  57.413  1.00  0.00     0.003 A 
HETATM   27  C   UNL     1       9.601  30.567  58.447  1.00  0.00     0.001 A 
HETATM   28  C   UNL     1       7.537  27.894  54.742  1.00  0.00     0.083 A 
HETATM   29  C   UNL     1       6.511  27.881  55.688  1.00  0.00    -0.007 A 
HETATM   30  C   UNL     1       7.426  27.142  53.570  1.00  0.00     0.038 A 
HETATM   31  C   UNL     1       5.375  27.090  55.455  1.00  0.00     0.011 A 
HETATM   32  C   UNL     1       5.267  26.337  54.285  1.00  0.00     0.001 A 
HETATM   33  C   UNL     1       6.292  26.365  53.342  1.00  0.00     0.003 A 
ENDBRANCH   2  20
TORSDOF 5
ENDMDL
MODEL 10
REMARK VINA RESULT:      -9.0      2.392      9.185
REMARK  5 active torsions:
REMARK  status: ('A' for Active; 'I' for Inactive)
REMARK    1  A    between atoms: O_2  and  C_3 
REMARK    2  A    between atoms: C_6  and  N_7 
REMARK    3  A    between atoms: C_11  and  C_12 
REMARK    4  A    between atoms: C_12  and  N_13 
REMARK       I    between atoms: N_13  and  C_14 
REMARK    5  A    between atoms: C_14  and  C_15 
ROOT
HETATM    1  N   UNL     1       5.619  31.237  56.883  1.00  0.00    -0.360 N 
HETATM    2  C   UNL     1       5.125  31.499  58.148  1.00  0.00     0.230 C 
HETATM    3  O   UNL     1       4.130  30.932  58.599  1.00  0.00    -0.272 OA
HETATM    4  H   UNL     1       6.487  31.684  56.608  1.00  0.00     0.162 HD
ENDROOT
BRANCH   1   5
HETATM    5  C   UNL     1       5.082  30.183  56.052  1.00  0.00     0.129 C 
BRANCH   5   6
HETATM    6  C   UNL     1       5.636  28.808  56.405  1.00  0.00     0.031 C 
HETATM    7  C   UNL     1       7.061  28.883  56.935  1.00  0.00     0.111 C 
HETATM    8  C   UNL     1       7.665  27.560  56.534  1.00  0.00     0.224 C 
HETATM    9  N   UNL     1       6.865  27.007  55.524  1.00  0.00    -0.318 N 
HETATM   10  O   UNL     1       8.707  27.144  57.016  1.00  0.00    -0.273 OA
HETATM   11  C   UNL     1       5.756  27.880  55.208  1.00  0.00     0.139 C 
BRANCH   9  12
HETATM   12  C   UNL     1       7.126  25.810  54.799  1.00  0.00     0.037 A 
HETATM   13  C   UNL     1       7.594  25.829  53.480  1.00  0.00     0.032 A 
HETATM   14  C   UNL     1       7.865  24.643  52.778  1.00  0.00     0.039 A 
HETATM   15  C   UNL     1       7.678  23.407  53.387  1.00  0.00     0.068 A 
HETATM   16  C   UNL     1       7.195  23.370  54.694  1.00  0.00     0.039 A 
HETATM   17  C   UNL     1       6.925  24.555  55.392  1.00  0.00     0.032 A 
BRANCH  15  18
HETATM   18  O   UNL     1       7.915  22.187  52.823  1.00  0.00    -0.356 OA
HETATM   19  C   UNL     1       8.764  21.306  53.550  1.00  0.00     0.210 C 
ENDBRANCH  15  18
ENDBRANCH   9  12
ENDBRANCH   5   6
ENDBRANCH   1   5
BRANCH   2  20
HETATM   20  C   UNL     1       5.886  32.568  58.951  1.00  0.00     0.149 C 
HETATM   21  C   UNL     1       6.888  31.931  59.884  1.00  0.00    -0.007 A 
HETATM   22  C   UNL     1       6.734  32.051  61.267  1.00  0.00     0.083 A 
HETATM   23  C   UNL     1       7.979  31.203  59.380  1.00  0.00     0.011 A 
HETATM   24  C   UNL     1       7.648  31.450  62.135  1.00  0.00     0.038 A 
HETATM   25  O   UNL     1       5.707  32.745  61.859  1.00  0.00    -0.310 OA
HETATM   26  C   UNL     1       8.728  30.729  61.626  1.00  0.00     0.003 A 
HETATM   27  C   UNL     1       8.893  30.607  60.249  1.00  0.00     0.001 A 
HETATM   28  C   UNL     1       4.892  33.514  61.066  1.00  0.00     0.083 A 
HETATM   29  C   UNL     1       4.933  33.497  59.671  1.00  0.00    -0.007 A 
HETATM   30  C   UNL     1       3.977  34.330  61.735  1.00  0.00     0.038 A 
HETATM   31  C   UNL     1       4.056  34.323  58.950  1.00  0.00     0.011 A 
HETATM   32  C   UNL     1       3.144  35.139  59.620  1.00  0.00     0.001 A 
HETATM   33  C   UNL     1       3.103  35.141  61.013  1.00  0.00     0.003 A 
ENDBRANCH   2  20
TORSDOF 5
ENDMDL
