MODEL 1
REMARK VINA RESULT:     -10.5      0.000      0.000
REMARK  2 active torsions:
REMARK  status: ('A' for Active; 'I' for Inactive)
REMARK    1  A    between atoms: C_15  and  C_16 
REMARK    2  A    between atoms: C_19  and  O_20 
ROOT
HETATM    1  C   UNL     1       8.678  19.976  54.932  1.00  0.00     0.048 C 
HETATM    2  C   UNL     1       8.359  21.395  54.562  1.00  0.00    -0.061 A 
HETATM    3  C   UNL     1       8.330  22.405  55.541  1.00  0.00     0.021 A 
HETATM    4  C   UNL     1       8.013  23.729  55.176  1.00  0.00    -0.000 A 
HETATM    5  C   UNL     1       7.741  24.001  53.828  1.00  0.00     0.043 A 
HETATM    6  N   UNL     1       7.479  25.349  53.721  1.00  0.00    -0.353 N 
HETATM    7  H   UNL     1       7.273  25.843  52.862  1.00  0.00     0.166 HD
HETATM    8  C   UNL     1       7.507  25.914  54.958  1.00  0.00     0.066 A 
HETATM    9  C   UNL     1       7.889  24.961  55.881  1.00  0.00    -0.017 A 
HETATM   10  C   UNL     1       8.100  25.311  57.330  1.00  0.00     0.043 C 
HETATM   11  C   UNL     1       8.125  26.863  57.556  1.00  0.00     0.018 C 
HETATM   12  C   UNL     1       6.975  27.535  56.780  1.00  0.00     0.065 C 
HETATM   13  C   UNL     1       7.286  27.268  55.329  1.00  0.00     0.082 C 
HETATM   14  N   UNL     1       7.495  28.286  54.562  1.00  0.00    -0.203 NA
HETATM   15  C   UNL     1       6.770  29.051  56.670  1.00  0.00     0.121 C 
HETATM   16  N   UNL     1       7.387  29.382  55.364  1.00  0.00    -0.207 NA
HETATM   17  C   UNL     1       7.765  23.015  52.837  1.00  0.00     0.031 A 
HETATM   18  C   UNL     1       8.073  21.710  53.229  1.00  0.00     0.009 A 
HETATM   19  H   UNL     1       8.319  29.780  55.513  1.00  0.00     0.149 HD
ENDROOT
BRANCH  15  20
HETATM   20  C   UNL     1       7.093  30.008  57.797  1.00  0.00    -0.038 A 
HETATM   21  C   UNL     1       8.126  29.764  58.709  1.00  0.00     0.011 A 
HETATM   22  C   UNL     1       8.312  30.589  59.826  1.00  0.00     0.037 A 
HETATM   23  C   UNL     1       7.447  31.653  60.083  1.00  0.00     0.068 A 
HETATM   24  C   UNL     1       6.411  31.909  59.191  1.00  0.00     0.037 A 
HETATM   25  C   UNL     1       6.233  31.091  58.071  1.00  0.00     0.011 A 
BRANCH  23  26
HETATM   26  O   UNL     1       7.707  32.353  61.228  1.00  0.00    -0.356 OA
HETATM   27  C   UNL     1       8.001  31.579  62.388  1.00  0.00     0.210 C 
ENDBRANCH  23  26
ENDBRANCH  15  20
TORSDOF 2
ENDMDL
MODEL 2
REMARK VINA RESULT:     -10.1      3.102      8.536
REMARK  2 active torsions:
REMARK  status: ('A' for Active; 'I' for Inactive)
REMARK    1  A    between atoms: C_15  and  C_16 
REMARK    2  A    between atoms: C_19  and  O_20 
ROOT
HETATM    1  C   UNL     1       9.176  32.344  60.843  1.00  0.00     0.048 C 
HETATM    2  C   UNL     1       8.217  31.678  59.899  1.00  0.00    -0.061 A 
HETATM    3  C   UNL     1       8.561  30.474  59.257  1.00  0.00     0.021 A 
HETATM    4  C   UNL     1       7.653  29.871  58.362  1.00  0.00    -0.000 A 
HETATM    5  C   UNL     1       6.417  30.497  58.146  1.00  0.00     0.043 A 
HETATM    6  N   UNL     1       5.708  29.719  57.257  1.00  0.00    -0.353 N 
HETATM    7  H   UNL     1       4.769  29.905  56.930  1.00  0.00     0.166 HD
HETATM    8  C   UNL     1       6.480  28.672  56.857  1.00  0.00     0.066 A 
HETATM    9  C   UNL     1       7.669  28.695  57.559  1.00  0.00    -0.017 A 
HETATM   10  C   UNL     1       8.695  27.605  57.399  1.00  0.00     0.043 C 
HETATM   11  C   UNL     1       8.120  26.373  56.617  1.00  0.00     0.018 C 
HETATM   12  C   UNL     1       7.329  26.847  55.381  1.00  0.00     0.065 C 
HETATM   13  C   UNL     1       6.169  27.627  55.946  1.00  0.00     0.082 C 
HETATM   14  N   UNL     1       4.976  27.193  55.702  1.00  0.00    -0.203 NA
HETATM   15  C   UNL     1       6.525  25.924  54.458  1.00  0.00     0.121 C 
HETATM   16  N   UNL     1       5.140  26.056  54.969  1.00  0.00    -0.207 NA
HETATM   17  C   UNL     1       6.054  31.692  58.773  1.00  0.00     0.031 A 
HETATM   18  C   UNL     1       6.976  32.272  59.648  1.00  0.00     0.009 A 
HETATM   19  H   UNL     1       4.908  25.247  55.552  1.00  0.00     0.149 HD
ENDROOT
BRANCH  15  20
HETATM   20  C   UNL     1       6.958  24.512  54.127  1.00  0.00    -0.038 A 
HETATM   21  C   UNL     1       7.076  23.520  55.107  1.00  0.00     0.011 A 
HETATM   22  C   UNL     1       7.615  22.264  54.800  1.00  0.00     0.037 A 
HETATM   23  C   UNL     1       8.089  21.981  53.518  1.00  0.00     0.068 A 
HETATM   24  C   UNL     1       7.985  22.955  52.532  1.00  0.00     0.037 A 
HETATM   25  C   UNL     1       7.436  24.205  52.837  1.00  0.00     0.011 A 
BRANCH  23  26
HETATM   26  O   UNL     1       8.634  20.738  53.359  1.00  0.00    -0.356 OA
HETATM   27  C   UNL     1       8.764  19.949  54.538  1.00  0.00     0.210 C 
ENDBRANCH  23  26
ENDBRANCH  15  20
TORSDOF 2
ENDMDL
MODEL 3
REMARK VINA RESULT:      -9.8      1.146      1.650
REMARK  2 active torsions:
REMARK  status: ('A' for Active; 'I' for Inactive)
REMARK    1  A    between atoms: C_15  and  C_16 
REMARK    2  A    between atoms: C_19  and  O_20 
ROOT
HETATM    1  C   UNL     1       8.518  19.952  55.472  1.00  0.00     0.048 C 
HETATM    2  C   UNL     1       8.287  21.348  54.972  1.00  0.00    -0.061 A 
HETATM    3  C   UNL     1       7.950  22.384  55.862  1.00  0.00     0.021 A 
HETATM    4  C   UNL     1       7.721  23.686  55.370  1.00  0.00    -0.000 A 
HETATM    5  C   UNL     1       7.848  23.909  53.993  1.00  0.00     0.043 A 
HETATM    6  N   UNL     1       7.595  25.244  53.763  1.00  0.00    -0.353 N 
HETATM    7  H   UNL     1       7.637  25.705  52.863  1.00  0.00     0.166 HD
HETATM    8  C   UNL     1       7.248  25.845  54.933  1.00  0.00     0.066 A 
HETATM    9  C   UNL     1       7.368  24.933  55.962  1.00  0.00    -0.017 A 
HETATM   10  C   UNL     1       7.139  25.332  57.395  1.00  0.00     0.043 C 
HETATM   11  C   UNL     1       7.060  26.890  57.561  1.00  0.00     0.018 C 
HETATM   12  C   UNL     1       6.170  27.499  56.459  1.00  0.00     0.065 C 
HETATM   13  C   UNL     1       6.896  27.201  55.172  1.00  0.00     0.082 C 
HETATM   14  N   UNL     1       7.295  28.203  54.461  1.00  0.00    -0.203 NA
HETATM   15  C   UNL     1       5.969  29.004  56.238  1.00  0.00     0.121 C 
HETATM   16  N   UNL     1       6.932  29.318  55.155  1.00  0.00    -0.207 NA
HETATM   17  C   UNL     1       8.182  22.896  53.089  1.00  0.00     0.031 A 
HETATM   18  C   UNL     1       8.394  21.614  53.603  1.00  0.00     0.009 A 
HETATM   19  H   UNL     1       7.770  29.751  55.553  1.00  0.00     0.149 HD
ENDROOT
BRANCH  15  20
HETATM   20  C   UNL     1       5.927  30.004  57.372  1.00  0.00    -0.038 A 
HETATM   21  C   UNL     1       4.737  30.620  57.777  1.00  0.00     0.011 A 
HETATM   22  C   UNL     1       4.746  31.646  58.731  1.00  0.00     0.037 A 
HETATM   23  C   UNL     1       5.944  32.111  59.274  1.00  0.00     0.068 A 
HETATM   24  C   UNL     1       7.137  31.514  58.881  1.00  0.00     0.037 A 
HETATM   25  C   UNL     1       7.126  30.482  57.936  1.00  0.00     0.011 A 
BRANCH  23  26
HETATM   26  O   UNL     1       5.822  33.147  60.158  1.00  0.00    -0.356 OA
HETATM   27  C   UNL     1       4.604  33.883  60.103  1.00  0.00     0.210 C 
ENDBRANCH  23  26
ENDBRANCH  15  20
TORSDOF 2
ENDMDL
MODEL 4
REMARK VINA RESULT:      -9.7      5.802      8.297
REMARK  2 active torsions:
REMARK  status: ('A' for Active; 'I' for Inactive)
REMARK    1  A    between atoms: C_15  and  C_16 
REMARK    2  A    between atoms: C_19  and  O_20 
ROOT
HETATM    1  C   UNL     1       8.448  21.665  57.302  1.00  0.00     0.048 C 
HETATM    2  C   UNL     1       8.144  23.012  56.715  1.00  0.00    -0.061 A 
HETATM    3  C   UNL     1       7.445  23.126  55.499  1.00  0.00     0.021 A 
HETATM    4  C   UNL     1       7.183  24.401  54.957  1.00  0.00    -0.000 A 
HETATM    5  C   UNL     1       7.625  25.529  55.662  1.00  0.00     0.043 A 
HETATM    6  N   UNL     1       7.240  26.643  54.949  1.00  0.00    -0.353 N 
HETATM    7  H   UNL     1       7.399  27.603  55.224  1.00  0.00     0.166 HD
HETATM    8  C   UNL     1       6.638  26.252  53.793  1.00  0.00     0.066 A 
HETATM    9  C   UNL     1       6.529  24.875  53.783  1.00  0.00    -0.017 A 
HETATM   10  C   UNL     1       5.821  24.152  52.670  1.00  0.00     0.043 C 
HETATM   11  C   UNL     1       5.011  25.138  51.756  1.00  0.00     0.018 C 
HETATM   12  C   UNL     1       5.864  26.379  51.423  1.00  0.00     0.065 C 
HETATM   13  C   UNL     1       6.094  27.053  52.752  1.00  0.00     0.082 C 
HETATM   14  N   UNL     1       5.633  28.249  52.907  1.00  0.00    -0.203 NA
HETATM   15  C   UNL     1       5.352  27.605  50.657  1.00  0.00     0.121 C 
HETATM   16  N   UNL     1       5.005  28.558  51.738  1.00  0.00    -0.207 NA
HETATM   17  C   UNL     1       8.320  25.440  56.872  1.00  0.00     0.031 A 
HETATM   18  C   UNL     1       8.574  24.165  57.382  1.00  0.00     0.009 A 
HETATM   19  H   UNL     1       3.992  28.554  51.891  1.00  0.00     0.149 HD
ENDROOT
BRANCH  15  20
HETATM   20  C   UNL     1       4.344  27.510  49.533  1.00  0.00    -0.038 A 
HETATM   21  C   UNL     1       3.091  28.130  49.602  1.00  0.00     0.011 A 
HETATM   22  C   UNL     1       2.122  27.909  48.614  1.00  0.00     0.037 A 
HETATM   23  C   UNL     1       2.365  27.032  47.555  1.00  0.00     0.068 A 
HETATM   24  C   UNL     1       3.602  26.403  47.472  1.00  0.00     0.037 A 
HETATM   25  C   UNL     1       4.572  26.633  48.453  1.00  0.00     0.011 A 
BRANCH  23  26
HETATM   26  O   UNL     1       1.323  26.867  46.685  1.00  0.00    -0.356 OA
HETATM   27  C   UNL     1       0.287  27.841  46.747  1.00  0.00     0.210 C 
ENDBRANCH  23  26
ENDBRANCH  15  20
TORSDOF 2
ENDMDL
MODEL 5
REMARK VINA RESULT:      -9.4      3.733      4.704
REMARK  2 active torsions:
REMARK  status: ('A' for Active; 'I' for Inactive)
REMARK    1  A    between atoms: C_15  and  C_16 
REMARK    2  A    between atoms: C_19  and  O_20 
ROOT
HETATM    1  C   UNL     1       8.638  20.329  52.544  1.00  0.00     0.048 C 
HETATM    2  C   UNL     1       8.178  21.289  53.602  1.00  0.00    -0.061 A 
HETATM    3  C   UNL     1       7.551  22.499  53.251  1.00  0.00     0.021 A 
HETATM    4  C   UNL     1       7.140  23.395  54.259  1.00  0.00    -0.000 A 
HETATM    5  C   UNL     1       7.364  23.041  55.596  1.00  0.00     0.043 A 
HETATM    6  N   UNL     1       6.867  24.057  56.384  1.00  0.00    -0.353 N 
HETATM    7  H   UNL     1       6.865  24.070  57.395  1.00  0.00     0.166 HD
HETATM    8  C   UNL     1       6.405  25.059  55.588  1.00  0.00     0.066 A 
HETATM    9  C   UNL     1       6.502  24.669  54.268  1.00  0.00    -0.017 A 
HETATM   10  C   UNL     1       5.981  25.536  53.153  1.00  0.00     0.043 C 
HETATM   11  C   UNL     1       5.097  26.714  53.695  1.00  0.00     0.018 C 
HETATM   12  C   UNL     1       5.778  27.377  54.908  1.00  0.00     0.065 C 
HETATM   13  C   UNL     1       5.819  26.299  55.961  1.00  0.00     0.082 C 
HETATM   14  N   UNL     1       5.177  26.510  57.063  1.00  0.00    -0.203 NA
HETATM   15  C   UNL     1       5.142  28.478  55.766  1.00  0.00     0.121 C 
HETATM   16  N   UNL     1       4.588  27.730  56.920  1.00  0.00    -0.207 NA
HETATM   17  C   UNL     1       7.984  21.845  55.969  1.00  0.00     0.031 A 
HETATM   18  C   UNL     1       8.389  20.980  54.950  1.00  0.00     0.009 A 
HETATM   19  H   UNL     1       3.580  27.603  56.798  1.00  0.00     0.149 HD
ENDROOT
BRANCH  15  20
HETATM   20  C   UNL     1       4.235  29.545  55.195  1.00  0.00    -0.038 A 
HETATM   21  C   UNL     1       4.280  29.917  53.846  1.00  0.00     0.011 A 
HETATM   22  C   UNL     1       3.534  31.005  53.373  1.00  0.00     0.037 A 
HETATM   23  C   UNL     1       2.756  31.773  54.240  1.00  0.00     0.068 A 
HETATM   24  C   UNL     1       2.702  31.422  55.585  1.00  0.00     0.037 A 
HETATM   25  C   UNL     1       3.439  30.330  56.054  1.00  0.00     0.011 A 
BRANCH  23  26
HETATM   26  O   UNL     1       2.115  32.834  53.665  1.00  0.00    -0.356 OA
HETATM   27  C   UNL     1       1.057  33.417  54.418  1.00  0.00     0.210 C 
ENDBRANCH  23  26
ENDBRANCH  15  20
TORSDOF 2
ENDMDL
MODEL 6
REMARK VINA RESULT:      -9.4      2.177      3.012
REMARK  2 active torsions:
REMARK  status: ('A' for Active; 'I' for Inactive)
REMARK    1  A    between atoms: C_15  and  C_16 
REMARK    2  A    between atoms: C_19  and  O_20 
ROOT
HETATM    1  C   UNL     1       7.928  20.336  52.523  1.00  0.00     0.048 C 
HETATM    2  C   UNL     1       8.133  21.242  53.702  1.00  0.00    -0.061 A 
HETATM    3  C   UNL     1       7.673  22.571  53.676  1.00  0.00     0.021 A 
HETATM    4  C   UNL     1       7.889  23.410  54.788  1.00  0.00    -0.000 A 
HETATM    5  C   UNL     1       8.557  22.882  55.901  1.00  0.00     0.043 A 
HETATM    6  N   UNL     1       8.631  23.877  56.852  1.00  0.00    -0.353 N 
HETATM    7  H   UNL     1       9.039  23.782  57.773  1.00  0.00     0.166 HD
HETATM    8  C   UNL     1       8.099  25.023  56.348  1.00  0.00     0.066 A 
HETATM    9  C   UNL     1       7.576  24.766  55.096  1.00  0.00    -0.017 A 
HETATM   10  C   UNL     1       6.836  25.824  54.323  1.00  0.00     0.043 C 
HETATM   11  C   UNL     1       6.498  27.069  55.215  1.00  0.00     0.018 C 
HETATM   12  C   UNL     1       7.726  27.474  56.054  1.00  0.00     0.065 C 
HETATM   13  C   UNL     1       7.971  26.298  56.965  1.00  0.00     0.082 C 
HETATM   14  N   UNL     1       7.883  26.495  58.238  1.00  0.00    -0.203 NA
HETATM   15  C   UNL     1       7.722  28.568  57.128  1.00  0.00     0.121 C 
HETATM   16  N   UNL     1       7.543  27.806  58.387  1.00  0.00    -0.207 NA
HETATM   17  C   UNL     1       9.022  21.565  55.950  1.00  0.00     0.031 A 
HETATM   18  C   UNL     1       8.803  20.758  54.831  1.00  0.00     0.009 A 
HETATM   19  H   UNL     1       6.567  27.865  58.691  1.00  0.00     0.149 HD
ENDROOT
BRANCH  15  20
HETATM   20  C   UNL     1       6.894  29.829  57.015  1.00  0.00    -0.038 A 
HETATM   21  C   UNL     1       6.781  30.743  58.069  1.00  0.00     0.011 A 
HETATM   22  C   UNL     1       5.896  31.827  57.991  1.00  0.00     0.037 A 
HETATM   23  C   UNL     1       5.073  32.002  56.878  1.00  0.00     0.068 A 
HETATM   24  C   UNL     1       5.167  31.101  55.823  1.00  0.00     0.037 A 
HETATM   25  C   UNL     1       6.059  30.026  55.897  1.00  0.00     0.011 A 
BRANCH  23  26
HETATM   26  O   UNL     1       4.221  33.069  56.944  1.00  0.00    -0.356 OA
HETATM   27  C   UNL     1       4.639  34.161  57.758  1.00  0.00     0.210 C 
ENDBRANCH  23  26
ENDBRANCH  15  20
TORSDOF 2
ENDMDL
MODEL 7
REMARK VINA RESULT:      -9.1      3.712      8.704
REMARK  2 active torsions:
REMARK  status: ('A' for Active; 'I' for Inactive)
REMARK    1  A    between atoms: C_15  and  C_16 
REMARK    2  A    between atoms: C_19  and  O_20 
ROOT
HETATM    1  C   UNL     1       2.306  32.564  54.992  1.00  0.00     0.048 C 
HETATM    2  C   UNL     1       3.278  31.741  55.786  1.00  0.00    -0.061 A 
HETATM    3  C   UNL     1       3.667  30.463  55.343  1.00  0.00     0.021 A 
HETATM    4  C   UNL     1       4.570  29.699  56.112  1.00  0.00    -0.000 A 
HETATM    5  C   UNL     1       5.062  30.250  57.303  1.00  0.00     0.043 A 
HETATM    6  N   UNL     1       5.928  29.332  57.858  1.00  0.00    -0.353 N 
HETATM    7  H   UNL     1       6.455  29.462  58.711  1.00  0.00     0.166 HD
HETATM    8  C   UNL     1       5.938  28.205  57.096  1.00  0.00     0.066 A 
HETATM    9  C   UNL     1       5.158  28.408  55.976  1.00  0.00    -0.017 A 
HETATM   10  C   UNL     1       5.049  27.367  54.895  1.00  0.00     0.043 C 
HETATM   11  C   UNL     1       6.121  26.234  55.067  1.00  0.00     0.018 C 
HETATM   12  C   UNL     1       6.191  25.784  56.540  1.00  0.00     0.065 C 
HETATM   13  C   UNL     1       6.671  27.001  57.289  1.00  0.00     0.082 C 
HETATM   14  N   UNL     1       7.798  26.917  57.915  1.00  0.00    -0.203 NA
HETATM   15  C   UNL     1       7.213  24.785  57.096  1.00  0.00     0.121 C 
HETATM   16  N   UNL     1       8.263  25.660  57.670  1.00  0.00    -0.207 NA
HETATM   17  C   UNL     1       4.691  31.517  57.761  1.00  0.00     0.031 A 
HETATM   18  C   UNL     1       3.789  32.248  56.985  1.00  0.00     0.009 A 
HETATM   19  H   UNL     1       9.056  25.717  57.026  1.00  0.00     0.149 HD
ENDROOT
BRANCH  15  20
HETATM   20  C   UNL     1       7.723  23.603  56.301  1.00  0.00    -0.038 A 
HETATM   21  C   UNL     1       7.521  23.490  54.921  1.00  0.00     0.011 A 
HETATM   22  C   UNL     1       7.874  22.322  54.233  1.00  0.00     0.037 A 
HETATM   23  C   UNL     1       8.400  21.222  54.912  1.00  0.00     0.068 A 
HETATM   24  C   UNL     1       8.604  21.312  56.285  1.00  0.00     0.037 A 
HETATM   25  C   UNL     1       8.261  22.484  56.968  1.00  0.00     0.011 A 
BRANCH  23  26
HETATM   26  O   UNL     1       8.659  20.126  54.136  1.00  0.00    -0.356 OA
HETATM   27  C   UNL     1       8.417  20.270  52.740  1.00  0.00     0.210 C 
ENDBRANCH  23  26
ENDBRANCH  15  20
TORSDOF 2
ENDMDL
MODEL 8
REMARK VINA RESULT:      -9.0      5.184      7.143
REMARK  2 active torsions:
REMARK  status: ('A' for Active; 'I' for Inactive)
REMARK    1  A    between atoms: C_15  and  C_16 
REMARK    2  A    between atoms: C_19  and  O_20 
ROOT
HETATM    1  C   UNL     1       8.314  20.259  55.935  1.00  0.00     0.048 C 
HETATM    2  C   UNL     1       8.057  21.737  55.910  1.00  0.00    -0.061 A 
HETATM    3  C   UNL     1       7.455  22.344  54.792  1.00  0.00     0.021 A 
HETATM    4  C   UNL     1       7.236  23.737  54.782  1.00  0.00    -0.000 A 
HETATM    5  C   UNL     1       7.623  24.479  55.906  1.00  0.00     0.043 A 
HETATM    6  N   UNL     1       7.294  25.796  55.667  1.00  0.00    -0.353 N 
HETATM    7  H   UNL     1       7.432  26.564  56.311  1.00  0.00     0.166 HD
HETATM    8  C   UNL     1       6.784  25.912  54.411  1.00  0.00     0.066 A 
HETATM    9  C   UNL     1       6.676  24.656  53.849  1.00  0.00    -0.017 A 
HETATM   10  C   UNL     1       6.056  24.454  52.493  1.00  0.00     0.043 C 
HETATM   11  C   UNL     1       5.320  25.745  51.990  1.00  0.00     0.018 C 
HETATM   12  C   UNL     1       6.197  26.989  52.237  1.00  0.00     0.065 C 
HETATM   13  C   UNL     1       6.323  27.076  53.737  1.00  0.00     0.082 C 
HETATM   14  N   UNL     1       5.851  28.128  54.320  1.00  0.00    -0.203 NA
HETATM   15  C   UNL     1       5.746  28.433  51.985  1.00  0.00     0.121 C 
HETATM   16  N   UNL     1       5.316  28.893  53.327  1.00  0.00    -0.207 NA
HETATM   17  C   UNL     1       8.221  23.899  57.028  1.00  0.00     0.031 A 
HETATM   18  C   UNL     1       8.435  22.518  57.007  1.00  0.00     0.009 A 
HETATM   19  H   UNL     1       4.295  28.859  53.393  1.00  0.00     0.149 HD
ENDROOT
BRANCH  15  20
HETATM   20  C   UNL     1       4.829  28.822  50.847  1.00  0.00    -0.038 A 
HETATM   21  C   UNL     1       5.314  29.361  49.650  1.00  0.00     0.011 A 
HETATM   22  C   UNL     1       4.438  29.845  48.669  1.00  0.00     0.037 A 
HETATM   23  C   UNL     1       3.058  29.842  48.876  1.00  0.00     0.068 A 
HETATM   24  C   UNL     1       2.556  29.314  50.061  1.00  0.00     0.037 A 
HETATM   25  C   UNL     1       3.432  28.821  51.034  1.00  0.00     0.011 A 
BRANCH  23  26
HETATM   26  O   UNL     1       2.315  30.385  47.865  1.00  0.00    -0.356 OA
HETATM   27  C   UNL     1       2.731  30.074  46.539  1.00  0.00     0.210 C 
ENDBRANCH  23  26
ENDBRANCH  15  20
TORSDOF 2
ENDMDL
MODEL 9
REMARK VINA RESULT:      -8.6      4.975      6.449
REMARK  2 active torsions:
REMARK  status: ('A' for Active; 'I' for Inactive)
REMARK    1  A    between atoms: C_15  and  C_16 
REMARK    2  A    between atoms: C_19  and  O_20 
ROOT
HETATM    1  C   UNL     1       0.941  28.395  46.961  1.00  0.00     0.048 C 
HETATM    2  C   UNL     1       2.096  27.760  47.679  1.00  0.00    -0.061 A 
HETATM    3  C   UNL     1       2.501  28.228  48.943  1.00  0.00     0.021 A 
HETATM    4  C   UNL     1       3.598  27.628  49.595  1.00  0.00    -0.000 A 
HETATM    5  C   UNL     1       4.252  26.565  48.957  1.00  0.00     0.043 A 
HETATM    6  N   UNL     1       5.266  26.142  49.788  1.00  0.00    -0.353 N 
HETATM    7  H   UNL     1       5.895  25.372  49.605  1.00  0.00     0.166 HD
HETATM    8  C   UNL     1       5.314  26.945  50.886  1.00  0.00     0.066 A 
HETATM    9  C   UNL     1       4.265  27.842  50.836  1.00  0.00    -0.017 A 
HETATM   10  C   UNL     1       4.001  28.804  51.962  1.00  0.00     0.043 C 
HETATM   11  C   UNL     1       4.837  28.448  53.241  1.00  0.00     0.018 C 
HETATM   12  C   UNL     1       6.295  28.127  52.853  1.00  0.00     0.065 C 
HETATM   13  C   UNL     1       6.199  26.890  51.997  1.00  0.00     0.082 C 
HETATM   14  N   UNL     1       6.789  25.820  52.417  1.00  0.00    -0.203 NA
HETATM   15  C   UNL     1       7.362  27.618  53.830  1.00  0.00     0.121 C 
HETATM   16  N   UNL     1       7.344  26.151  53.617  1.00  0.00    -0.207 NA
HETATM   17  C   UNL     1       3.866  26.083  47.703  1.00  0.00     0.031 A 
HETATM   18  C   UNL     1       2.782  26.701  47.076  1.00  0.00     0.009 A 
HETATM   19  H   UNL     1       6.812  25.700  54.367  1.00  0.00     0.149 HD
ENDROOT
BRANCH  15  20
HETATM   20  C   UNL     1       7.430  28.059  55.276  1.00  0.00    -0.038 A 
HETATM   21  C   UNL     1       7.253  29.394  55.657  1.00  0.00     0.011 A 
HETATM   22  C   UNL     1       7.463  29.800  56.981  1.00  0.00     0.037 A 
HETATM   23  C   UNL     1       7.895  28.892  57.950  1.00  0.00     0.068 A 
HETATM   24  C   UNL     1       8.080  27.562  57.590  1.00  0.00     0.037 A 
HETATM   25  C   UNL     1       7.860  27.156  56.269  1.00  0.00     0.011 A 
BRANCH  23  26
HETATM   26  O   UNL     1       8.109  29.421  59.192  1.00  0.00    -0.356 OA
HETATM   27  C   UNL     1       9.054  30.483  59.271  1.00  0.00     0.210 C 
ENDBRANCH  23  26
ENDBRANCH  15  20
TORSDOF 2
ENDMDL
MODEL 10
REMARK VINA RESULT:      -8.5      5.566      8.864
REMARK  2 active torsions:
REMARK  status: ('A' for Active; 'I' for Inactive)
REMARK    1  A    between atoms: C_15  and  C_16 
REMARK    2  A    between atoms: C_19  and  O_20 
ROOT
HETATM    1  C   UNL     1       3.086  31.566  47.350  1.00  0.00     0.048 C 
HETATM    2  C   UNL     1       3.082  31.001  48.740  1.00  0.00    -0.061 A 
HETATM    3  C   UNL     1       3.890  29.898  49.071  1.00  0.00     0.021 A 
HETATM    4  C   UNL     1       3.860  29.372  50.379  1.00  0.00    -0.000 A 
HETATM    5  C   UNL     1       3.019  29.980  51.322  1.00  0.00     0.043 A 
HETATM    6  N   UNL     1       3.176  29.306  52.513  1.00  0.00    -0.353 N 
HETATM    7  H   UNL     1       2.714  29.534  53.384  1.00  0.00     0.166 HD
HETATM    8  C   UNL     1       4.027  28.260  52.331  1.00  0.00     0.066 A 
HETATM    9  C   UNL     1       4.518  28.297  51.042  1.00  0.00    -0.017 A 
HETATM   10  C   UNL     1       5.558  27.315  50.570  1.00  0.00     0.043 C 
HETATM   11  C   UNL     1       6.181  26.509  51.763  1.00  0.00     0.018 C 
HETATM   12  C   UNL     1       5.072  26.027  52.719  1.00  0.00     0.065 C 
HETATM   13  C   UNL     1       4.470  27.293  53.274  1.00  0.00     0.082 C 
HETATM   14  N   UNL     1       4.547  27.487  54.549  1.00  0.00    -0.203 NA
HETATM   15  C   UNL     1       5.325  25.318  54.055  1.00  0.00     0.121 C 
HETATM   16  N   UNL     1       5.227  26.416  55.046  1.00  0.00    -0.207 NA
HETATM   17  C   UNL     1       2.208  31.077  51.017  1.00  0.00     0.031 A 
HETATM   18  C   UNL     1       2.251  31.572  49.711  1.00  0.00     0.009 A 
HETATM   19  H   UNL     1       6.166  26.716  55.323  1.00  0.00     0.149 HD
ENDROOT
BRANCH  15  20
HETATM   20  C   UNL     1       6.473  24.355  54.271  1.00  0.00    -0.038 A 
HETATM   21  C   UNL     1       6.984  23.562  53.237  1.00  0.00     0.011 A 
HETATM   22  C   UNL     1       7.947  22.577  53.493  1.00  0.00     0.037 A 
HETATM   23  C   UNL     1       8.394  22.332  54.792  1.00  0.00     0.068 A 
HETATM   24  C   UNL     1       7.895  23.106  55.833  1.00  0.00     0.037 A 
HETATM   25  C   UNL     1       6.941  24.097  55.575  1.00  0.00     0.011 A 
BRANCH  23  26
HETATM   26  O   UNL     1       9.299  21.314  54.915  1.00  0.00    -0.356 OA
HETATM   27  C   UNL     1       9.154  20.475  56.057  1.00  0.00     0.210 C 
ENDBRANCH  23  26
ENDBRANCH  15  20
TORSDOF 2
ENDMDL
