MODEL 1
REMARK VINA RESULT:     -10.4      0.000      0.000
REMARK  9 active torsions:
REMARK  status: ('A' for Active; 'I' for Inactive)
REMARK    1  A    between atoms: C_6  and  N_7 
REMARK    2  A    between atoms: C_6  and  C_31 
REMARK       I    between atoms: N_7  and  C_8 
REMARK    3  A    between atoms: N_7  and  C_23 
REMARK    4  A    between atoms: C_8  and  C_9 
REMARK    5  A    between atoms: C_9  and  N_10 
REMARK    6  A    between atoms: C_14  and  C_15 
REMARK    7  A    between atoms: C_23  and  C_24 
REMARK       I    between atoms: C_31  and  N_32 
REMARK    8  A    between atoms: N_32  and  C_33 
REMARK    9  A    between atoms: C_36  and  O_37 
ROOT
HETATM    1  N   UNL     1       6.149  29.327  57.307  1.00  0.00    -0.328 N 
HETATM    2  C   UNL     1       5.824  28.036  56.849  1.00  0.00     0.239 C 
HETATM    3  O   UNL     1       4.769  27.818  56.244  1.00  0.00    -0.271 OA
ENDROOT
BRANCH   1   4
HETATM    4  C   UNL     1       5.216  30.490  56.992  1.00  0.00     0.120 C 
HETATM    5  C   UNL     1       5.537  31.103  55.598  1.00  0.00     0.069 C 
HETATM    6  C   UNL     1       4.534  32.173  55.191  1.00  0.00     0.237 C 
HETATM    7  N   UNL     1       3.156  31.573  55.169  1.00  0.00    -0.075 N 
HETATM    8  C   UNL     1       2.145  32.548  54.622  1.00  0.00     0.269 C 
HETATM    9  H   UNL     1       3.170  30.773  54.516  1.00  0.00     0.279 HD
HETATM   10  C   UNL     1       2.735  31.044  56.518  1.00  0.00     0.237 C 
HETATM   11  C   UNL     1       3.737  30.002  57.010  1.00  0.00     0.069 C 
BRANCH   4  12
HETATM   12  C   UNL     1       5.338  31.661  58.050  1.00  0.00     0.251 C 
HETATM   13  N   UNL     1       4.747  31.417  59.273  1.00  0.00    -0.325 N 
HETATM   14  H   UNL     1       4.250  30.543  59.402  1.00  0.00     0.169 HD
HETATM   15  O   UNL     1       5.995  32.665  57.783  1.00  0.00    -0.270 OA
BRANCH  13  16
HETATM   16  C   UNL     1       4.581  32.328  60.341  1.00  0.00     0.035 A 
HETATM   17  C   UNL     1       3.379  32.970  60.643  1.00  0.00     0.032 A 
HETATM   18  C   UNL     1       3.269  33.770  61.788  1.00  0.00     0.039 A 
HETATM   19  C   UNL     1       4.365  33.942  62.632  1.00  0.00     0.068 A 
HETATM   20  C   UNL     1       5.582  33.351  62.303  1.00  0.00     0.039 A 
HETATM   21  C   UNL     1       5.687  32.536  61.175  1.00  0.00     0.032 A 
BRANCH  19  22
HETATM   22  O   UNL     1       4.361  34.686  63.777  1.00  0.00    -0.356 OA
HETATM   23  C   UNL     1       4.459  33.932  64.982  1.00  0.00     0.210 C 
ENDBRANCH  19  22
ENDBRANCH  13  16
ENDBRANCH   4  12
ENDBRANCH   1   4
BRANCH   1  24
HETATM   24  C   UNL     1       7.110  29.478  58.423  1.00  0.00     0.169 C 
BRANCH  24  25
HETATM   25  C   UNL     1       8.517  29.829  58.012  1.00  0.00    -0.002 A 
HETATM   26  C   UNL     1       9.098  30.977  58.568  1.00  0.00     0.124 A 
HETATM   27  F   UNL     1       8.386  31.732  59.416  1.00  0.00    -0.205 F 
HETATM   28  C   UNL     1      10.394  31.369  58.249  1.00  0.00     0.043 A 
HETATM   29  C   UNL     1      11.148  30.597  57.370  1.00  0.00     0.003 A 
HETATM   30  C   UNL     1      10.602  29.438  56.821  1.00  0.00     0.001 A 
HETATM   31  C   UNL     1       9.296  29.053  57.141  1.00  0.00     0.012 A 
ENDBRANCH  24  25
ENDBRANCH   1  24
BRANCH   2  32
HETATM   32  C   UNL     1       6.810  26.872  57.075  1.00  0.00     0.228 C 
BRANCH  32  33
HETATM   33  N   UNL     1       6.974  25.935  55.969  1.00  0.00    -0.347 N 
HETATM   34  C   UNL     1       7.297  26.276  54.654  1.00  0.00     0.171 A 
HETATM   35  S   UNL     1       7.831  27.720  54.052  1.00  0.00    -0.041 SA
HETATM   36  N   UNL     1       7.103  25.168  53.858  1.00  0.00    -0.357 N 
HETATM   37  C   UNL     1       6.513  24.066  54.577  1.00  0.00     0.135 A 
HETATM   38  H   UNL     1       7.236  25.194  52.854  1.00  0.00     0.162 HD
HETATM   39  C   UNL     1       6.437  24.578  56.028  1.00  0.00     0.155 A 
BRANCH  37  40
HETATM   40  C   UNL     1       7.303  22.796  54.380  1.00  0.00    -0.034 A 
HETATM   41  C   UNL     1       7.677  22.354  53.100  1.00  0.00     0.009 A 
HETATM   42  C   UNL     1       8.384  21.160  52.936  1.00  0.00     0.001 A 
HETATM   43  C   UNL     1       8.723  20.393  54.048  1.00  0.00     0.000 A 
HETATM   44  C   UNL     1       8.358  20.816  55.324  1.00  0.00     0.001 A 
HETATM   45  C   UNL     1       7.653  22.010  55.489  1.00  0.00     0.009 A 
ENDBRANCH  37  40
ENDBRANCH  32  33
ENDBRANCH   2  32
TORSDOF 9
ENDMDL
MODEL 2
REMARK VINA RESULT:      -9.8      5.401      8.585
REMARK  9 active torsions:
REMARK  status: ('A' for Active; 'I' for Inactive)
REMARK    1  A    between atoms: C_6  and  N_7 
REMARK    2  A    between atoms: C_6  and  C_31 
REMARK       I    between atoms: N_7  and  C_8 
REMARK    3  A    between atoms: N_7  and  C_23 
REMARK    4  A    between atoms: C_8  and  C_9 
REMARK    5  A    between atoms: C_9  and  N_10 
REMARK    6  A    between atoms: C_14  and  C_15 
REMARK    7  A    between atoms: C_23  and  C_24 
REMARK       I    between atoms: C_31  and  N_32 
REMARK    8  A    between atoms: N_32  and  C_33 
REMARK    9  A    between atoms: C_36  and  O_37 
ROOT
HETATM    1  N   UNL     1       4.464  28.228  51.887  1.00  0.00    -0.328 N 
HETATM    2  C   UNL     1       5.569  27.455  52.291  1.00  0.00     0.239 C 
HETATM    3  O   UNL     1       6.135  26.688  51.505  1.00  0.00    -0.271 OA
ENDROOT
BRANCH   1   4
HETATM    4  C   UNL     1       3.999  28.171  50.437  1.00  0.00     0.120 C 
HETATM    5  C   UNL     1       4.061  26.717  49.886  1.00  0.00     0.069 C 
HETATM    6  C   UNL     1       3.470  26.602  48.489  1.00  0.00     0.237 C 
HETATM    7  N   UNL     1       2.041  27.065  48.519  1.00  0.00    -0.075 N 
HETATM    8  C   UNL     1       1.361  26.826  47.195  1.00  0.00     0.269 C 
HETATM    9  H   UNL     1       1.536  26.489  49.212  1.00  0.00     0.279 HD
HETATM   10  C   UNL     1       1.908  28.505  48.951  1.00  0.00     0.237 C 
HETATM   11  C   UNL     1       2.537  28.699  50.330  1.00  0.00     0.069 C 
BRANCH   4  12
HETATM   12  C   UNL     1       4.893  29.065  49.485  1.00  0.00     0.251 C 
HETATM   13  N   UNL     1       4.579  30.409  49.467  1.00  0.00    -0.325 N 
HETATM   14  H   UNL     1       3.790  30.726  50.019  1.00  0.00     0.169 HD
HETATM   15  O   UNL     1       5.843  28.564  48.886  1.00  0.00    -0.270 OA
BRANCH  13  16
HETATM   16  C   UNL     1       5.112  31.401  48.613  1.00  0.00     0.035 A 
HETATM   17  C   UNL     1       4.647  31.655  47.322  1.00  0.00     0.032 A 
HETATM   18  C   UNL     1       5.153  32.732  46.583  1.00  0.00     0.039 A 
HETATM   19  C   UNL     1       6.135  33.557  47.129  1.00  0.00     0.068 A 
HETATM   20  C   UNL     1       6.642  33.273  48.393  1.00  0.00     0.039 A 
HETATM   21  C   UNL     1       6.124  32.214  49.139  1.00  0.00     0.032 A 
BRANCH  19  22
HETATM   22  O   UNL     1       6.683  34.640  46.502  1.00  0.00    -0.356 OA
HETATM   23  C   UNL     1       7.931  34.393  45.859  1.00  0.00     0.210 C 
ENDBRANCH  19  22
ENDBRANCH  13  16
ENDBRANCH   4  12
ENDBRANCH   1   4
BRANCH   1  24
HETATM   24  C   UNL     1       3.516  28.726  52.911  1.00  0.00     0.169 C 
BRANCH  24  25
HETATM   25  C   UNL     1       3.767  30.135  53.382  1.00  0.00    -0.002 A 
HETATM   26  C   UNL     1       3.843  30.364  54.763  1.00  0.00     0.124 A 
HETATM   27  F   UNL     1       3.665  29.341  55.611  1.00  0.00    -0.205 F 
HETATM   28  C   UNL     1       4.079  31.631  55.283  1.00  0.00     0.043 A 
HETATM   29  C   UNL     1       4.265  32.705  54.416  1.00  0.00     0.003 A 
HETATM   30  C   UNL     1       4.218  32.501  53.039  1.00  0.00     0.001 A 
HETATM   31  C   UNL     1       3.974  31.225  52.522  1.00  0.00     0.012 A 
ENDBRANCH  24  25
ENDBRANCH   1  24
BRANCH   2  32
HETATM   32  C   UNL     1       6.109  27.581  53.730  1.00  0.00     0.228 C 
BRANCH  32  33
HETATM   33  N   UNL     1       6.531  26.343  54.376  1.00  0.00    -0.347 N 
HETATM   34  C   UNL     1       6.215  25.955  55.679  1.00  0.00     0.171 A 
HETATM   35  S   UNL     1       5.110  26.606  56.722  1.00  0.00    -0.041 SA
HETATM   36  N   UNL     1       7.001  24.874  56.013  1.00  0.00    -0.357 N 
HETATM   37  C   UNL     1       7.978  24.565  54.999  1.00  0.00     0.135 A 
HETATM   38  H   UNL     1       6.972  24.449  56.932  1.00  0.00     0.162 HD
HETATM   39  C   UNL     1       7.651  25.557  53.866  1.00  0.00     0.155 A 
BRANCH  37  40
HETATM   40  C   UNL     1       7.928  23.106  54.615  1.00  0.00    -0.034 A 
HETATM   41  C   UNL     1       7.819  22.095  55.583  1.00  0.00     0.009 A 
HETATM   42  C   UNL     1       7.805  20.749  55.210  1.00  0.00     0.001 A 
HETATM   43  C   UNL     1       7.899  20.397  53.866  1.00  0.00     0.000 A 
HETATM   44  C   UNL     1       8.010  21.388  52.894  1.00  0.00     0.001 A 
HETATM   45  C   UNL     1       8.024  22.734  53.265  1.00  0.00     0.009 A 
ENDBRANCH  37  40
ENDBRANCH  32  33
ENDBRANCH   2  32
TORSDOF 9
ENDMDL
MODEL 3
REMARK VINA RESULT:      -9.7      5.153      8.669
REMARK  9 active torsions:
REMARK  status: ('A' for Active; 'I' for Inactive)
REMARK    1  A    between atoms: C_6  and  N_7 
REMARK    2  A    between atoms: C_6  and  C_31 
REMARK       I    between atoms: N_7  and  C_8 
REMARK    3  A    between atoms: N_7  and  C_23 
REMARK    4  A    between atoms: C_8  and  C_9 
REMARK    5  A    between atoms: C_9  and  N_10 
REMARK    6  A    between atoms: C_14  and  C_15 
REMARK    7  A    between atoms: C_23  and  C_24 
REMARK       I    between atoms: C_31  and  N_32 
REMARK    8  A    between atoms: N_32  and  C_33 
REMARK    9  A    between atoms: C_36  and  O_37 
ROOT
HETATM    1  N   UNL     1       4.255  29.096  52.685  1.00  0.00    -0.328 N 
HETATM    2  C   UNL     1       4.672  27.775  52.433  1.00  0.00     0.239 C 
HETATM    3  O   UNL     1       5.003  27.415  51.299  1.00  0.00    -0.271 OA
ENDROOT
BRANCH   1   4
HETATM    4  C   UNL     1       4.277  30.118  51.555  1.00  0.00     0.120 C 
HETATM    5  C   UNL     1       4.298  31.570  52.114  1.00  0.00     0.069 C 
HETATM    6  C   UNL     1       4.464  32.611  51.017  1.00  0.00     0.237 C 
HETATM    7  N   UNL     1       5.743  32.342  50.274  1.00  0.00    -0.075 N 
HETATM    8  C   UNL     1       6.035  33.435  49.278  1.00  0.00     0.269 C 
HETATM    9  H   UNL     1       6.516  32.360  50.959  1.00  0.00     0.279 HD
HETATM   10  C   UNL     1       5.756  30.984  49.618  1.00  0.00     0.237 C 
HETATM   11  C   UNL     1       5.535  29.893  50.664  1.00  0.00     0.069 C 
BRANCH   4  12
HETATM   12  C   UNL     1       3.009  30.003  50.616  1.00  0.00     0.251 C 
HETATM   13  N   UNL     1       3.098  29.058  49.614  1.00  0.00    -0.325 N 
HETATM   14  H   UNL     1       3.963  28.538  49.519  1.00  0.00     0.169 HD
HETATM   15  O   UNL     1       2.005  30.672  50.854  1.00  0.00    -0.270 OA
BRANCH  13  16
HETATM   16  C   UNL     1       2.184  28.841  48.558  1.00  0.00     0.035 A 
HETATM   17  C   UNL     1       1.903  29.778  47.562  1.00  0.00     0.032 A 
HETATM   18  C   UNL     1       1.071  29.443  46.486  1.00  0.00     0.039 A 
HETATM   19  C   UNL     1       0.508  28.171  46.404  1.00  0.00     0.068 A 
HETATM   20  C   UNL     1       0.740  27.253  47.424  1.00  0.00     0.039 A 
HETATM   21  C   UNL     1       1.585  27.578  48.485  1.00  0.00     0.032 A 
BRANCH  19  22
HETATM   22  O   UNL     1      -0.302  27.738  45.392  1.00  0.00    -0.356 OA
HETATM   23  C   UNL     1      -1.037  28.764  44.732  1.00  0.00     0.210 C 
ENDBRANCH  19  22
ENDBRANCH  13  16
ENDBRANCH   4  12
ENDBRANCH   1   4
BRANCH   1  24
HETATM   24  C   UNL     1       3.409  29.374  53.869  1.00  0.00     0.169 C 
BRANCH  24  25
HETATM   25  C   UNL     1       4.092  30.127  54.980  1.00  0.00    -0.002 A 
HETATM   26  C   UNL     1       3.411  31.206  55.561  1.00  0.00     0.124 A 
HETATM   27  F   UNL     1       2.201  31.548  55.098  1.00  0.00    -0.205 F 
HETATM   28  C   UNL     1       3.966  31.949  56.597  1.00  0.00     0.043 A 
HETATM   29  C   UNL     1       5.222  31.609  57.090  1.00  0.00     0.003 A 
HETATM   30  C   UNL     1       5.911  30.526  56.546  1.00  0.00     0.001 A 
HETATM   31  C   UNL     1       5.350  29.786  55.500  1.00  0.00     0.012 A 
ENDBRANCH  24  25
ENDBRANCH   1  24
BRANCH   2  32
HETATM   32  C   UNL     1       4.748  26.760  53.592  1.00  0.00     0.228 C 
BRANCH  32  33
HETATM   33  N   UNL     1       5.883  25.844  53.578  1.00  0.00    -0.347 N 
HETATM   34  C   UNL     1       7.226  26.208  53.679  1.00  0.00     0.171 A 
HETATM   35  S   UNL     1       7.883  27.667  54.097  1.00  0.00    -0.041 SA
HETATM   36  N   UNL     1       7.999  25.112  53.364  1.00  0.00    -0.357 N 
HETATM   37  C   UNL     1       7.213  23.993  52.907  1.00  0.00     0.135 A 
HETATM   38  H   UNL     1       9.010  25.155  53.330  1.00  0.00     0.162 HD
HETATM   39  C   UNL     1       5.760  24.481  53.067  1.00  0.00     0.155 A 
BRANCH  37  40
HETATM   40  C   UNL     1       7.558  22.733  53.663  1.00  0.00    -0.034 A 
HETATM   41  C   UNL     1       7.510  22.681  55.065  1.00  0.00     0.009 A 
HETATM   42  C   UNL     1       7.862  21.515  55.749  1.00  0.00     0.001 A 
HETATM   43  C   UNL     1       8.267  20.387  55.039  1.00  0.00     0.000 A 
HETATM   44  C   UNL     1       8.321  20.422  53.648  1.00  0.00     0.001 A 
HETATM   45  C   UNL     1       7.969  21.587  52.963  1.00  0.00     0.009 A 
ENDBRANCH  37  40
ENDBRANCH  32  33
ENDBRANCH   2  32
TORSDOF 9
ENDMDL
MODEL 4
REMARK VINA RESULT:      -9.5      5.100     10.116
REMARK  9 active torsions:
REMARK  status: ('A' for Active; 'I' for Inactive)
REMARK    1  A    between atoms: C_6  and  N_7 
REMARK    2  A    between atoms: C_6  and  C_31 
REMARK       I    between atoms: N_7  and  C_8 
REMARK    3  A    between atoms: N_7  and  C_23 
REMARK    4  A    between atoms: C_8  and  C_9 
REMARK    5  A    between atoms: C_9  and  N_10 
REMARK    6  A    between atoms: C_14  and  C_15 
REMARK    7  A    between atoms: C_23  and  C_24 
REMARK       I    between atoms: C_31  and  N_32 
REMARK    8  A    between atoms: N_32  and  C_33 
REMARK    9  A    between atoms: C_36  and  O_37 
ROOT
HETATM    1  N   UNL     1       4.613  27.402  52.698  1.00  0.00    -0.328 N 
HETATM    2  C   UNL     1       5.124  27.036  51.438  1.00  0.00     0.239 C 
HETATM    3  O   UNL     1       6.331  26.838  51.270  1.00  0.00    -0.271 OA
ENDROOT
BRANCH   1   4
HETATM    4  C   UNL     1       5.556  27.489  53.892  1.00  0.00     0.120 C 
HETATM    5  C   UNL     1       6.862  28.248  53.519  1.00  0.00     0.069 C 
HETATM    6  C   UNL     1       7.763  28.477  54.724  1.00  0.00     0.237 C 
HETATM    7  N   UNL     1       7.007  29.262  55.760  1.00  0.00    -0.075 N 
HETATM    8  C   UNL     1       7.902  29.651  56.910  1.00  0.00     0.269 C 
HETATM    9  H   UNL     1       6.695  30.144  55.324  1.00  0.00     0.279 HD
HETATM   10  C   UNL     1       5.773  28.541  56.245  1.00  0.00     0.237 C 
HETATM   11  C   UNL     1       4.851  28.229  55.068  1.00  0.00     0.069 C 
BRANCH   4  12
HETATM   12  C   UNL     1       5.985  26.062  54.424  1.00  0.00     0.251 C 
HETATM   13  N   UNL     1       7.134  25.542  53.862  1.00  0.00    -0.325 N 
HETATM   14  H   UNL     1       7.597  26.075  53.134  1.00  0.00     0.169 HD
HETATM   15  O   UNL     1       5.354  25.530  55.334  1.00  0.00    -0.270 OA
BRANCH  13  16
HETATM   16  C   UNL     1       7.664  24.245  54.043  1.00  0.00     0.035 A 
HETATM   17  C   UNL     1       8.311  23.818  55.204  1.00  0.00     0.032 A 
HETATM   18  C   UNL     1       8.706  22.482  55.347  1.00  0.00     0.039 A 
HETATM   19  C   UNL     1       8.463  21.565  54.326  1.00  0.00     0.068 A 
HETATM   20  C   UNL     1       7.869  21.999  53.144  1.00  0.00     0.039 A 
HETATM   21  C   UNL     1       7.456  23.325  53.008  1.00  0.00     0.032 A 
BRANCH  19  22
HETATM   22  O   UNL     1       8.791  20.240  54.370  1.00  0.00    -0.356 OA
HETATM   23  C   UNL     1       9.231  19.774  55.642  1.00  0.00     0.210 C 
ENDBRANCH  19  22
ENDBRANCH  13  16
ENDBRANCH   4  12
ENDBRANCH   1   4
BRANCH   1  24
HETATM   24  C   UNL     1       3.313  28.107  52.775  1.00  0.00     0.169 C 
BRANCH  24  25
HETATM   25  C   UNL     1       3.304  29.497  52.195  1.00  0.00    -0.002 A 
HETATM   26  C   UNL     1       2.299  29.820  51.272  1.00  0.00     0.124 A 
HETATM   27  F   UNL     1       1.405  28.886  50.918  1.00  0.00    -0.205 F 
HETATM   28  C   UNL     1       2.213  31.082  50.695  1.00  0.00     0.043 A 
HETATM   29  C   UNL     1       3.134  32.064  51.050  1.00  0.00     0.003 A 
HETATM   30  C   UNL     1       4.129  31.777  51.983  1.00  0.00     0.001 A 
HETATM   31  C   UNL     1       4.214  30.503  52.556  1.00  0.00     0.012 A 
ENDBRANCH  24  25
ENDBRANCH   1  24
BRANCH   2  32
HETATM   32  C   UNL     1       4.163  26.847  50.247  1.00  0.00     0.228 C 
BRANCH  32  33
HETATM   33  N   UNL     1       4.107  27.937  49.279  1.00  0.00    -0.347 N 
HETATM   34  C   UNL     1       3.230  28.022  48.197  1.00  0.00     0.171 A 
HETATM   35  S   UNL     1       1.891  27.111  47.866  1.00  0.00    -0.041 SA
HETATM   36  N   UNL     1       3.652  29.043  47.374  1.00  0.00    -0.357 N 
HETATM   37  C   UNL     1       4.910  29.609  47.794  1.00  0.00     0.135 A 
HETATM   38  H   UNL     1       3.188  29.260  46.501  1.00  0.00     0.162 HD
HETATM   39  C   UNL     1       5.220  28.867  49.109  1.00  0.00     0.155 A 
BRANCH  37  40
HETATM   40  C   UNL     1       4.828  31.112  47.903  1.00  0.00    -0.034 A 
HETATM   41  C   UNL     1       5.810  31.854  48.579  1.00  0.00     0.009 A 
HETATM   42  C   UNL     1       5.701  33.242  48.695  1.00  0.00     0.001 A 
HETATM   43  C   UNL     1       4.609  33.904  48.138  1.00  0.00     0.000 A 
HETATM   44  C   UNL     1       3.626  33.182  47.467  1.00  0.00     0.001 A 
HETATM   45  C   UNL     1       3.734  31.795  47.349  1.00  0.00     0.009 A 
ENDBRANCH  37  40
ENDBRANCH  32  33
ENDBRANCH   2  32
TORSDOF 9
ENDMDL
MODEL 5
REMARK VINA RESULT:      -9.5      5.087      7.533
REMARK  9 active torsions:
REMARK  status: ('A' for Active; 'I' for Inactive)
REMARK    1  A    between atoms: C_6  and  N_7 
REMARK    2  A    between atoms: C_6  and  C_31 
REMARK       I    between atoms: N_7  and  C_8 
REMARK    3  A    between atoms: N_7  and  C_23 
REMARK    4  A    between atoms: C_8  and  C_9 
REMARK    5  A    between atoms: C_9  and  N_10 
REMARK    6  A    between atoms: C_14  and  C_15 
REMARK    7  A    between atoms: C_23  and  C_24 
REMARK       I    between atoms: C_31  and  N_32 
REMARK    8  A    between atoms: N_32  and  C_33 
REMARK    9  A    between atoms: C_36  and  O_37 
ROOT
HETATM    1  N   UNL     1       4.081  28.742  51.524  1.00  0.00    -0.328 N 
HETATM    2  C   UNL     1       4.625  27.445  51.581  1.00  0.00     0.239 C 
HETATM    3  O   UNL     1       5.083  26.898  50.572  1.00  0.00    -0.271 OA
ENDROOT
BRANCH   1   4
HETATM    4  C   UNL     1       4.119  29.514  50.210  1.00  0.00     0.120 C 
HETATM    5  C   UNL     1       4.407  28.564  49.011  1.00  0.00     0.069 C 
HETATM    6  C   UNL     1       4.311  29.278  47.671  1.00  0.00     0.237 C 
HETATM    7  N   UNL     1       2.935  29.866  47.524  1.00  0.00    -0.075 N 
HETATM    8  C   UNL     1       2.736  30.451  46.149  1.00  0.00     0.269 C 
HETATM    9  H   UNL     1       2.252  29.097  47.615  1.00  0.00     0.279 HD
HETATM   10  C   UNL     1       2.620  30.875  48.601  1.00  0.00     0.237 C 
HETATM   11  C   UNL     1       2.756  30.232  49.980  1.00  0.00     0.069 C 
BRANCH   4  12
HETATM   12  C   UNL     1       5.245  30.625  50.200  1.00  0.00     0.251 C 
HETATM   13  N   UNL     1       4.810  31.911  50.450  1.00  0.00    -0.325 N 
HETATM   14  H   UNL     1       3.817  32.066  50.581  1.00  0.00     0.169 HD
HETATM   15  O   UNL     1       6.423  30.305  50.057  1.00  0.00    -0.270 OA
BRANCH  13  16
HETATM   16  C   UNL     1       5.565  33.102  50.363  1.00  0.00     0.035 A 
HETATM   17  C   UNL     1       6.078  33.619  49.171  1.00  0.00     0.032 A 
HETATM   18  C   UNL     1       6.717  34.865  49.155  1.00  0.00     0.039 A 
HETATM   19  C   UNL     1       6.856  35.599  50.331  1.00  0.00     0.068 A 
HETATM   20  C   UNL     1       6.397  35.062  51.530  1.00  0.00     0.039 A 
HETATM   21  C   UNL     1       5.740  33.831  51.546  1.00  0.00     0.032 A 
BRANCH  19  22
HETATM   22  O   UNL     1       7.447  36.827  50.422  1.00  0.00    -0.356 OA
HETATM   23  C   UNL     1       7.669  37.289  51.751  1.00  0.00     0.210 C 
ENDBRANCH  19  22
ENDBRANCH  13  16
ENDBRANCH   4  12
ENDBRANCH   1   4
BRANCH   1  24
HETATM   24  C   UNL     1       3.114  29.167  52.562  1.00  0.00     0.169 C 
BRANCH  24  25
HETATM   25  C   UNL     1       3.657  30.131  53.584  1.00  0.00    -0.002 A 
HETATM   26  C   UNL     1       3.218  31.461  53.534  1.00  0.00     0.124 A 
HETATM   27  F   UNL     1       2.363  31.837  52.573  1.00  0.00    -0.205 F 
HETATM   28  C   UNL     1       3.663  32.414  54.444  1.00  0.00     0.043 A 
HETATM   29  C   UNL     1       4.553  32.041  55.448  1.00  0.00     0.003 A 
HETATM   30  C   UNL     1       4.986  30.720  55.536  1.00  0.00     0.001 A 
HETATM   31  C   UNL     1       4.540  29.768  54.613  1.00  0.00     0.012 A 
ENDBRANCH  24  25
ENDBRANCH   1  24
BRANCH   2  32
HETATM   32  C   UNL     1       4.682  26.695  52.927  1.00  0.00     0.228 C 
BRANCH  32  33
HETATM   33  N   UNL     1       5.841  25.837  53.145  1.00  0.00    -0.347 N 
HETATM   34  C   UNL     1       7.119  26.269  53.501  1.00  0.00     0.171 A 
HETATM   35  S   UNL     1       7.609  27.760  54.024  1.00  0.00    -0.041 SA
HETATM   36  N   UNL     1       7.992  25.213  53.354  1.00  0.00    -0.357 N 
HETATM   37  C   UNL     1       7.367  24.056  52.764  1.00  0.00     0.135 A 
HETATM   38  H   UNL     1       8.987  25.308  53.518  1.00  0.00     0.162 HD
HETATM   39  C   UNL     1       5.888  24.470  52.634  1.00  0.00     0.155 A 
BRANCH  37  40
HETATM   40  C   UNL     1       7.620  22.815  53.586  1.00  0.00    -0.034 A 
HETATM   41  C   UNL     1       7.531  22.832  54.988  1.00  0.00     0.009 A 
HETATM   42  C   UNL     1       7.798  21.681  55.733  1.00  0.00     0.001 A 
HETATM   43  C   UNL     1       8.158  20.501  55.087  1.00  0.00     0.000 A 
HETATM   44  C   UNL     1       8.253  20.468  53.698  1.00  0.00     0.001 A 
HETATM   45  C   UNL     1       7.985  21.618  52.951  1.00  0.00     0.009 A 
ENDBRANCH  37  40
ENDBRANCH  32  33
ENDBRANCH   2  32
TORSDOF 9
ENDMDL
MODEL 6
REMARK VINA RESULT:      -9.4      4.772      8.885
REMARK  9 active torsions:
REMARK  status: ('A' for Active; 'I' for Inactive)
REMARK    1  A    between atoms: C_6  and  N_7 
REMARK    2  A    between atoms: C_6  and  C_31 
REMARK       I    between atoms: N_7  and  C_8 
REMARK    3  A    between atoms: N_7  and  C_23 
REMARK    4  A    between atoms: C_8  and  C_9 
REMARK    5  A    between atoms: C_9  and  N_10 
REMARK    6  A    between atoms: C_14  and  C_15 
REMARK    7  A    between atoms: C_23  and  C_24 
REMARK       I    between atoms: C_31  and  N_32 
REMARK    8  A    between atoms: N_32  and  C_33 
REMARK    9  A    between atoms: C_36  and  O_37 
ROOT
HETATM    1  N   UNL     1       4.876  26.951  52.606  1.00  0.00    -0.328 N 
HETATM    2  C   UNL     1       4.033  27.828  53.314  1.00  0.00     0.239 C 
HETATM    3  O   UNL     1       4.207  28.051  54.517  1.00  0.00    -0.271 OA
ENDROOT
BRANCH   1   4
HETATM    4  C   UNL     1       6.066  26.317  53.318  1.00  0.00     0.120 C 
HETATM    5  C   UNL     1       5.597  25.253  54.352  1.00  0.00     0.069 C 
HETATM    6  C   UNL     1       6.763  24.501  54.977  1.00  0.00     0.237 C 
HETATM    7  N   UNL     1       7.554  23.828  53.891  1.00  0.00    -0.075 N 
HETATM    8  C   UNL     1       8.628  22.942  54.467  1.00  0.00     0.269 C 
HETATM    9  H   UNL     1       6.913  23.207  53.372  1.00  0.00     0.279 HD
HETATM   10  C   UNL     1       8.126  24.811  52.899  1.00  0.00     0.237 C 
HETATM   11  C   UNL     1       7.005  25.641  52.275  1.00  0.00     0.069 C 
BRANCH   4  12
HETATM   12  C   UNL     1       6.929  27.382  54.108  1.00  0.00     0.251 C 
HETATM   13  N   UNL     1       6.836  27.317  55.484  1.00  0.00    -0.325 N 
HETATM   14  H   UNL     1       6.206  26.635  55.891  1.00  0.00     0.169 HD
HETATM   15  O   UNL     1       7.680  28.140  53.497  1.00  0.00    -0.270 OA
BRANCH  13  16
HETATM   16  C   UNL     1       7.379  28.222  56.423  1.00  0.00     0.035 A 
HETATM   17  C   UNL     1       8.731  28.277  56.766  1.00  0.00     0.032 A 
HETATM   18  C   UNL     1       9.207  29.280  57.620  1.00  0.00     0.039 A 
HETATM   19  C   UNL     1       8.331  30.231  58.143  1.00  0.00     0.068 A 
HETATM   20  C   UNL     1       6.974  30.145  57.849  1.00  0.00     0.039 A 
HETATM   21  C   UNL     1       6.501  29.160  56.981  1.00  0.00     0.032 A 
BRANCH  19  22
HETATM   22  O   UNL     1       8.694  31.256  58.969  1.00  0.00    -0.356 OA
HETATM   23  C   UNL     1       8.276  31.111  60.324  1.00  0.00     0.210 C 
ENDBRANCH  19  22
ENDBRANCH  13  16
ENDBRANCH   4  12
ENDBRANCH   1   4
BRANCH   1  24
HETATM   24  C   UNL     1       4.381  26.316  51.363  1.00  0.00     0.169 C 
BRANCH  24  25
HETATM   25  C   UNL     1       4.774  27.016  50.088  1.00  0.00    -0.002 A 
HETATM   26  C   UNL     1       4.286  26.504  48.878  1.00  0.00     0.124 A 
HETATM   27  F   UNL     1       3.518  25.405  48.889  1.00  0.00    -0.205 F 
HETATM   28  C   UNL     1       4.594  27.093  47.657  1.00  0.00     0.043 A 
HETATM   29  C   UNL     1       5.392  28.233  47.626  1.00  0.00     0.003 A 
HETATM   30  C   UNL     1       5.871  28.777  48.816  1.00  0.00     0.001 A 
HETATM   31  C   UNL     1       5.563  28.176  50.041  1.00  0.00     0.012 A 
ENDBRANCH  24  25
ENDBRANCH   1  24
BRANCH   2  32
HETATM   32  C   UNL     1       2.887  28.552  52.578  1.00  0.00     0.228 C 
BRANCH  32  33
HETATM   33  N   UNL     1       3.225  29.815  51.933  1.00  0.00    -0.347 N 
HETATM   34  C   UNL     1       3.519  31.012  52.588  1.00  0.00     0.171 A 
HETATM   35  S   UNL     1       3.824  31.276  54.191  1.00  0.00    -0.041 SA
HETATM   36  N   UNL     1       3.524  32.028  51.656  1.00  0.00    -0.357 N 
HETATM   37  C   UNL     1       3.104  31.584  50.350  1.00  0.00     0.135 A 
HETATM   38  H   UNL     1       3.673  32.996  51.914  1.00  0.00     0.162 HD
HETATM   39  C   UNL     1       2.914  30.065  50.527  1.00  0.00     0.155 A 
BRANCH  37  40
HETATM   40  C   UNL     1       4.094  31.992  49.287  1.00  0.00    -0.034 A 
HETATM   41  C   UNL     1       5.319  32.594  49.616  1.00  0.00     0.009 A 
HETATM   42  C   UNL     1       6.210  32.992  48.616  1.00  0.00     0.001 A 
HETATM   43  C   UNL     1       5.887  32.792  47.276  1.00  0.00     0.000 A 
HETATM   44  C   UNL     1       4.675  32.198  46.933  1.00  0.00     0.001 A 
HETATM   45  C   UNL     1       3.784  31.799  47.931  1.00  0.00     0.009 A 
ENDBRANCH  37  40
ENDBRANCH  32  33
ENDBRANCH   2  32
TORSDOF 9
ENDMDL
MODEL 7
REMARK VINA RESULT:      -9.4      6.031      8.761
REMARK  9 active torsions:
REMARK  status: ('A' for Active; 'I' for Inactive)
REMARK    1  A    between atoms: C_6  and  N_7 
REMARK    2  A    between atoms: C_6  and  C_31 
REMARK       I    between atoms: N_7  and  C_8 
REMARK    3  A    between atoms: N_7  and  C_23 
REMARK    4  A    between atoms: C_8  and  C_9 
REMARK    5  A    between atoms: C_9  and  N_10 
REMARK    6  A    between atoms: C_14  and  C_15 
REMARK    7  A    between atoms: C_23  and  C_24 
REMARK       I    between atoms: C_31  and  N_32 
REMARK    8  A    between atoms: N_32  and  C_33 
REMARK    9  A    between atoms: C_36  and  O_37 
ROOT
HETATM    1  N   UNL     1       3.980  29.510  50.224  1.00  0.00    -0.328 N 
HETATM    2  C   UNL     1       3.853  29.594  51.624  1.00  0.00     0.239 C 
HETATM    3  O   UNL     1       3.980  30.671  52.214  1.00  0.00    -0.271 OA
ENDROOT
BRANCH   1   4
HETATM    4  C   UNL     1       4.207  30.781  49.415  1.00  0.00     0.120 C 
HETATM    5  C   UNL     1       4.703  30.447  47.977  1.00  0.00     0.069 C 
HETATM    6  C   UNL     1       4.804  31.685  47.098  1.00  0.00     0.237 C 
HETATM    7  N   UNL     1       3.456  32.345  47.021  1.00  0.00    -0.075 N 
HETATM    8  C   UNL     1       3.463  33.488  46.038  1.00  0.00     0.269 C 
HETATM    9  H   UNL     1       2.785  31.651  46.656  1.00  0.00     0.279 HD
HETATM   10  C   UNL     1       2.951  32.787  48.373  1.00  0.00     0.237 C 
HETATM   11  C   UNL     1       2.882  31.594  49.324  1.00  0.00     0.069 C 
BRANCH   4  12
HETATM   12  C   UNL     1       5.295  31.724  50.071  1.00  0.00     0.251 C 
HETATM   13  N   UNL     1       4.806  32.879  50.647  1.00  0.00    -0.325 N 
HETATM   14  H   UNL     1       3.813  33.067  50.581  1.00  0.00     0.169 HD
HETATM   15  O   UNL     1       6.471  31.369  50.113  1.00  0.00    -0.270 OA
BRANCH  13  16
HETATM   16  C   UNL     1       5.555  33.956  51.173  1.00  0.00     0.035 A 
HETATM   17  C   UNL     1       5.789  34.156  52.535  1.00  0.00     0.032 A 
HETATM   18  C   UNL     1       6.638  35.184  52.966  1.00  0.00     0.039 A 
HETATM   19  C   UNL     1       7.251  36.024  52.039  1.00  0.00     0.068 A 
HETATM   20  C   UNL     1       6.975  35.865  50.684  1.00  0.00     0.039 A 
HETATM   21  C   UNL     1       6.147  34.828  50.251  1.00  0.00     0.032 A 
BRANCH  19  22
HETATM   22  O   UNL     1       8.105  37.043  52.352  1.00  0.00    -0.356 OA
HETATM   23  C   UNL     1       8.546  37.818  51.240  1.00  0.00     0.210 C 
ENDBRANCH  19  22
ENDBRANCH  13  16
ENDBRANCH   4  12
ENDBRANCH   1   4
BRANCH   1  24
HETATM   24  C   UNL     1       4.327  28.210  49.605  1.00  0.00     0.169 C 
BRANCH  24  25
HETATM   25  C   UNL     1       3.270  27.629  48.702  1.00  0.00    -0.002 A 
HETATM   26  C   UNL     1       3.661  26.661  47.767  1.00  0.00     0.124 A 
HETATM   27  F   UNL     1       4.951  26.306  47.687  1.00  0.00    -0.205 F 
HETATM   28  C   UNL     1       2.749  26.069  46.901  1.00  0.00     0.043 A 
HETATM   29  C   UNL     1       1.405  26.426  46.970  1.00  0.00     0.003 A 
HETATM   30  C   UNL     1       0.985  27.369  47.906  1.00  0.00     0.001 A 
HETATM   31  C   UNL     1       1.909  27.966  48.770  1.00  0.00     0.012 A 
ENDBRANCH  24  25
ENDBRANCH   1  24
BRANCH   2  32
HETATM   32  C   UNL     1       3.523  28.328  52.441  1.00  0.00     0.228 C 
BRANCH  32  33
HETATM   33  N   UNL     1       4.638  27.692  53.132  1.00  0.00    -0.347 N 
HETATM   34  C   UNL     1       5.056  27.970  54.435  1.00  0.00     0.171 A 
HETATM   35  S   UNL     1       4.292  28.847  55.610  1.00  0.00    -0.041 SA
HETATM   36  N   UNL     1       6.282  27.374  54.635  1.00  0.00    -0.357 N 
HETATM   37  C   UNL     1       6.810  26.776  53.434  1.00  0.00     0.135 A 
HETATM   38  H   UNL     1       6.798  27.478  55.500  1.00  0.00     0.162 HD
HETATM   39  C   UNL     1       5.681  26.975  52.404  1.00  0.00     0.155 A 
BRANCH  37  40
HETATM   40  C   UNL     1       7.225  25.344  53.670  1.00  0.00    -0.034 A 
HETATM   41  C   UNL     1       7.741  24.549  52.634  1.00  0.00     0.009 A 
HETATM   42  C   UNL     1       8.092  23.216  52.865  1.00  0.00     0.001 A 
HETATM   43  C   UNL     1       7.931  22.663  54.133  1.00  0.00     0.000 A 
HETATM   44  C   UNL     1       7.419  23.438  55.171  1.00  0.00     0.001 A 
HETATM   45  C   UNL     1       7.068  24.770  54.942  1.00  0.00     0.009 A 
ENDBRANCH  37  40
ENDBRANCH  32  33
ENDBRANCH   2  32
TORSDOF 9
ENDMDL
MODEL 8
REMARK VINA RESULT:      -9.2      1.782      2.294
REMARK  9 active torsions:
REMARK  status: ('A' for Active; 'I' for Inactive)
REMARK    1  A    between atoms: C_6  and  N_7 
REMARK    2  A    between atoms: C_6  and  C_31 
REMARK       I    between atoms: N_7  and  C_8 
REMARK    3  A    between atoms: N_7  and  C_23 
REMARK    4  A    between atoms: C_8  and  C_9 
REMARK    5  A    between atoms: C_9  and  N_10 
REMARK    6  A    between atoms: C_14  and  C_15 
REMARK    7  A    between atoms: C_23  and  C_24 
REMARK       I    between atoms: C_31  and  N_32 
REMARK    8  A    between atoms: N_32  and  C_33 
REMARK    9  A    between atoms: C_36  and  O_37 
ROOT
HETATM    1  N   UNL     1       5.186  29.947  56.748  1.00  0.00    -0.328 N 
HETATM    2  C   UNL     1       5.025  28.664  56.190  1.00  0.00     0.239 C 
HETATM    3  O   UNL     1       4.231  28.465  55.265  1.00  0.00    -0.271 OA
ENDROOT
BRANCH   1   4
HETATM    4  C   UNL     1       4.420  31.124  56.156  1.00  0.00     0.120 C 
HETATM    5  C   UNL     1       4.839  31.379  54.679  1.00  0.00     0.069 C 
HETATM    6  C   UNL     1       3.993  32.454  54.014  1.00  0.00     0.237 C 
HETATM    7  N   UNL     1       2.548  32.040  54.060  1.00  0.00    -0.075 N 
HETATM    8  C   UNL     1       1.683  32.995  53.277  1.00  0.00     0.269 C 
HETATM    9  H   UNL     1       2.467  31.124  53.591  1.00  0.00     0.279 HD
HETATM   10  C   UNL     1       2.040  31.869  55.470  1.00  0.00     0.237 C 
HETATM   11  C   UNL     1       2.889  30.839  56.213  1.00  0.00     0.069 C 
BRANCH   4  12
HETATM   12  C   UNL     1       4.678  32.468  56.949  1.00  0.00     0.251 C 
HETATM   13  N   UNL     1       3.778  32.743  57.958  1.00  0.00    -0.325 N 
HETATM   14  H   UNL     1       3.003  32.104  58.099  1.00  0.00     0.169 HD
HETATM   15  O   UNL     1       5.674  33.146  56.701  1.00  0.00    -0.270 OA
BRANCH  13  16
HETATM   16  C   UNL     1       3.685  33.928  58.724  1.00  0.00     0.035 A 
HETATM   17  C   UNL     1       4.026  34.015  60.074  1.00  0.00     0.032 A 
HETATM   18  C   UNL     1       4.015  35.253  60.731  1.00  0.00     0.039 A 
HETATM   19  C   UNL     1       3.653  36.410  60.042  1.00  0.00     0.068 A 
HETATM   20  C   UNL     1       3.257  36.318  58.711  1.00  0.00     0.039 A 
HETATM   21  C   UNL     1       3.288  35.089  58.050  1.00  0.00     0.032 A 
BRANCH  19  22
HETATM   22  O   UNL     1       3.624  37.664  60.582  1.00  0.00    -0.356 OA
HETATM   23  C   UNL     1       2.573  38.498  60.103  1.00  0.00     0.210 C 
ENDBRANCH  19  22
ENDBRANCH  13  16
ENDBRANCH   4  12
ENDBRANCH   1   4
BRANCH   1  24
HETATM   24  C   UNL     1       5.722  30.076  58.123  1.00  0.00     0.169 C 
BRANCH  24  25
HETATM   25  C   UNL     1       7.181  30.440  58.209  1.00  0.00    -0.002 A 
HETATM   26  C   UNL     1       7.555  31.460  59.094  1.00  0.00     0.124 A 
HETATM   27  F   UNL     1       6.612  32.092  59.807  1.00  0.00    -0.205 F 
HETATM   28  C   UNL     1       8.881  31.853  59.241  1.00  0.00     0.043 A 
HETATM   29  C   UNL     1       9.873  31.208  58.508  1.00  0.00     0.003 A 
HETATM   30  C   UNL     1       9.532  30.175  57.637  1.00  0.00     0.001 A 
HETATM   31  C   UNL     1       8.196  29.789  57.490  1.00  0.00     0.012 A 
ENDBRANCH  24  25
ENDBRANCH   1  24
BRANCH   2  32
HETATM   32  C   UNL     1       5.871  27.487  56.716  1.00  0.00     0.228 C 
BRANCH  32  33
HETATM   33  N   UNL     1       6.367  26.547  55.718  1.00  0.00    -0.347 N 
HETATM   34  C   UNL     1       7.158  26.870  54.615  1.00  0.00     0.171 A 
HETATM   35  S   UNL     1       7.953  28.281  54.279  1.00  0.00    -0.041 SA
HETATM   36  N   UNL     1       7.198  25.780  53.773  1.00  0.00    -0.357 N 
HETATM   37  C   UNL     1       6.328  24.715  54.206  1.00  0.00     0.135 A 
HETATM   38  H   UNL     1       7.683  25.801  52.884  1.00  0.00     0.162 HD
HETATM   39  C   UNL     1       5.768  25.225  55.547  1.00  0.00     0.155 A 
BRANCH  37  40
HETATM   40  C   UNL     1       7.063  23.398  54.272  1.00  0.00    -0.034 A 
HETATM   41  C   UNL     1       7.351  22.778  55.499  1.00  0.00     0.009 A 
HETATM   42  C   UNL     1       8.058  21.574  55.541  1.00  0.00     0.001 A 
HETATM   43  C   UNL     1       8.486  20.976  54.359  1.00  0.00     0.000 A 
HETATM   44  C   UNL     1       8.210  21.578  53.134  1.00  0.00     0.001 A 
HETATM   45  C   UNL     1       7.503  22.781  53.090  1.00  0.00     0.009 A 
ENDBRANCH  37  40
ENDBRANCH  32  33
ENDBRANCH   2  32
TORSDOF 9
ENDMDL
MODEL 9
REMARK VINA RESULT:      -9.2      5.318      9.743
REMARK  9 active torsions:
REMARK  status: ('A' for Active; 'I' for Inactive)
REMARK    1  A    between atoms: C_6  and  N_7 
REMARK    2  A    between atoms: C_6  and  C_31 
REMARK       I    between atoms: N_7  and  C_8 
REMARK    3  A    between atoms: N_7  and  C_23 
REMARK    4  A    between atoms: C_8  and  C_9 
REMARK    5  A    between atoms: C_9  and  N_10 
REMARK    6  A    between atoms: C_14  and  C_15 
REMARK    7  A    between atoms: C_23  and  C_24 
REMARK       I    between atoms: C_31  and  N_32 
REMARK    8  A    between atoms: N_32  and  C_33 
REMARK    9  A    between atoms: C_36  and  O_37 
ROOT
HETATM    1  N   UNL     1       3.988  28.640  53.135  1.00  0.00    -0.328 N 
HETATM    2  C   UNL     1       4.404  29.244  54.337  1.00  0.00     0.239 C 
HETATM    3  O   UNL     1       4.800  30.413  54.361  1.00  0.00    -0.271 OA
ENDROOT
BRANCH   1   4
HETATM    4  C   UNL     1       3.959  29.464  51.853  1.00  0.00     0.120 C 
HETATM    5  C   UNL     1       3.653  30.959  52.156  1.00  0.00     0.069 C 
HETATM    6  C   UNL     1       3.757  31.834  50.915  1.00  0.00     0.237 C 
HETATM    7  N   UNL     1       5.142  31.713  50.343  1.00  0.00    -0.075 N 
HETATM    8  C   UNL     1       5.347  32.678  49.203  1.00  0.00     0.269 C 
HETATM    9  H   UNL     1       5.813  31.985  51.079  1.00  0.00     0.279 HD
HETATM   10  C   UNL     1       5.476  30.300  49.933  1.00  0.00     0.237 C 
HETATM   11  C   UNL     1       5.333  29.358  51.127  1.00  0.00     0.069 C 
BRANCH   4  12
HETATM   12  C   UNL     1       2.851  28.960  50.841  1.00  0.00     0.251 C 
HETATM   13  N   UNL     1       3.327  28.336  49.706  1.00  0.00    -0.325 N 
HETATM   14  H   UNL     1       4.330  28.275  49.574  1.00  0.00     0.169 HD
HETATM   15  O   UNL     1       1.661  29.067  51.130  1.00  0.00    -0.270 OA
BRANCH  13  16
HETATM   16  C   UNL     1       2.579  27.920  48.581  1.00  0.00     0.035 A 
HETATM   17  C   UNL     1       2.526  26.604  48.119  1.00  0.00     0.032 A 
HETATM   18  C   UNL     1       1.670  26.254  47.067  1.00  0.00     0.039 A 
HETATM   19  C   UNL     1       0.869  27.221  46.463  1.00  0.00     0.068 A 
HETATM   20  C   UNL     1       0.961  28.545  46.882  1.00  0.00     0.039 A 
HETATM   21  C   UNL     1       1.796  28.891  47.945  1.00  0.00     0.032 A 
BRANCH  19  22
HETATM   22  O   UNL     1      -0.009  26.984  45.444  1.00  0.00    -0.356 OA
HETATM   23  C   UNL     1      -0.724  28.129  44.990  1.00  0.00     0.210 C 
ENDBRANCH  19  22
ENDBRANCH  13  16
ENDBRANCH   4  12
ENDBRANCH   1   4
BRANCH   1  24
HETATM   24  C   UNL     1       4.007  27.163  53.022  1.00  0.00     0.169 C 
BRANCH  24  25
HETATM   25  C   UNL     1       5.379  26.542  52.989  1.00  0.00    -0.002 A 
HETATM   26  C   UNL     1       5.477  25.176  52.692  1.00  0.00     0.124 A 
HETATM   27  F   UNL     1       4.360  24.466  52.478  1.00  0.00    -0.205 F 
HETATM   28  C   UNL     1       6.705  24.526  52.633  1.00  0.00     0.043 A 
HETATM   29  C   UNL     1       7.875  25.246  52.855  1.00  0.00     0.003 A 
HETATM   30  C   UNL     1       7.808  26.611  53.128  1.00  0.00     0.001 A 
HETATM   31  C   UNL     1       6.569  27.258  53.192  1.00  0.00     0.012 A 
ENDBRANCH  24  25
ENDBRANCH   1  24
BRANCH   2  32
HETATM   32  C   UNL     1       4.341  28.448  55.657  1.00  0.00     0.228 C 
BRANCH  32  33
HETATM   33  N   UNL     1       5.579  28.366  56.424  1.00  0.00    -0.347 N 
HETATM   34  C   UNL     1       6.162  27.193  56.906  1.00  0.00     0.171 A 
HETATM   35  S   UNL     1       5.801  25.622  56.541  1.00  0.00    -0.041 SA
HETATM   36  N   UNL     1       7.158  27.536  57.795  1.00  0.00    -0.357 N 
HETATM   37  C   UNL     1       7.205  28.954  58.054  1.00  0.00     0.135 A 
HETATM   38  H   UNL     1       7.692  26.841  58.303  1.00  0.00     0.162 HD
HETATM   39  C   UNL     1       6.137  29.531  57.105  1.00  0.00     0.155 A 
BRANCH  37  40
HETATM   40  C   UNL     1       8.599  29.501  57.867  1.00  0.00    -0.034 A 
HETATM   41  C   UNL     1       9.022  30.672  58.516  1.00  0.00     0.009 A 
HETATM   42  C   UNL     1      10.306  31.179  58.307  1.00  0.00     0.001 A 
HETATM   43  C   UNL     1      11.183  30.523  57.448  1.00  0.00     0.000 A 
HETATM   44  C   UNL     1      10.779  29.361  56.796  1.00  0.00     0.001 A 
HETATM   45  C   UNL     1       9.496  28.852  57.004  1.00  0.00     0.009 A 
ENDBRANCH  37  40
ENDBRANCH  32  33
ENDBRANCH   2  32
TORSDOF 9
ENDMDL
MODEL 10
REMARK VINA RESULT:      -9.2      4.663      8.454
REMARK  9 active torsions:
REMARK  status: ('A' for Active; 'I' for Inactive)
REMARK    1  A    between atoms: C_6  and  N_7 
REMARK    2  A    between atoms: C_6  and  C_31 
REMARK       I    between atoms: N_7  and  C_8 
REMARK    3  A    between atoms: N_7  and  C_23 
REMARK    4  A    between atoms: C_8  and  C_9 
REMARK    5  A    between atoms: C_9  and  N_10 
REMARK    6  A    between atoms: C_14  and  C_15 
REMARK    7  A    between atoms: C_23  and  C_24 
REMARK       I    between atoms: C_31  and  N_32 
REMARK    8  A    between atoms: N_32  and  C_33 
REMARK    9  A    between atoms: C_36  and  O_37 
ROOT
HETATM    1  N   UNL     1       3.831  28.238  52.902  1.00  0.00    -0.328 N 
HETATM    2  C   UNL     1       4.005  29.202  53.913  1.00  0.00     0.239 C 
HETATM    3  O   UNL     1       4.251  30.381  53.637  1.00  0.00    -0.271 OA
ENDROOT
BRANCH   1   4
HETATM    4  C   UNL     1       3.878  28.668  51.440  1.00  0.00     0.120 C 
HETATM    5  C   UNL     1       4.239  27.469  50.516  1.00  0.00     0.069 C 
HETATM    6  C   UNL     1       4.155  27.830  49.040  1.00  0.00     0.237 C 
HETATM    7  N   UNL     1       2.762  28.300  48.728  1.00  0.00    -0.075 N 
HETATM    8  C   UNL     1       2.581  28.523  47.248  1.00  0.00     0.269 C 
HETATM    9  H   UNL     1       2.107  27.546  48.990  1.00  0.00     0.279 HD
HETATM   10  C   UNL     1       2.375  29.525  49.518  1.00  0.00     0.237 C 
HETATM   11  C   UNL     1       2.495  29.245  51.015  1.00  0.00     0.069 C 
BRANCH   4  12
HETATM   12  C   UNL     1       4.958  29.794  51.180  1.00  0.00     0.251 C 
HETATM   13  N   UNL     1       4.452  31.052  50.923  1.00  0.00    -0.325 N 
HETATM   14  H   UNL     1       3.446  31.166  50.879  1.00  0.00     0.169 HD
HETATM   15  O   UNL     1       6.155  29.535  51.291  1.00  0.00    -0.270 OA
BRANCH  13  16
HETATM   16  C   UNL     1       5.173  32.200  50.521  1.00  0.00     0.035 A 
HETATM   17  C   UNL     1       5.715  32.377  49.248  1.00  0.00     0.032 A 
HETATM   18  C   UNL     1       6.316  33.592  48.894  1.00  0.00     0.039 A 
HETATM   19  C   UNL     1       6.387  34.635  49.816  1.00  0.00     0.068 A 
HETATM   20  C   UNL     1       5.898  34.442  51.105  1.00  0.00     0.039 A 
HETATM   21  C   UNL     1       5.280  33.240  51.452  1.00  0.00     0.032 A 
BRANCH  19  22
HETATM   22  O   UNL     1       6.935  35.860  49.569  1.00  0.00    -0.356 OA
HETATM   23  C   UNL     1       8.183  35.832  48.881  1.00  0.00     0.210 C 
ENDBRANCH  19  22
ENDBRANCH  13  16
ENDBRANCH   4  12
ENDBRANCH   1   4
BRANCH   1  24
HETATM   24  C   UNL     1       4.043  26.807  53.221  1.00  0.00     0.169 C 
BRANCH  24  25
HETATM   25  C   UNL     1       5.461  26.321  53.068  1.00  0.00    -0.002 A 
HETATM   26  C   UNL     1       5.665  25.054  52.506  1.00  0.00     0.124 A 
HETATM   27  F   UNL     1       4.607  24.311  52.152  1.00  0.00    -0.205 F 
HETATM   28  C   UNL     1       6.940  24.532  52.321  1.00  0.00     0.043 A 
HETATM   29  C   UNL     1       8.051  25.288  52.683  1.00  0.00     0.003 A 
HETATM   30  C   UNL     1       7.877  26.562  53.223  1.00  0.00     0.001 A 
HETATM   31  C   UNL     1       6.591  27.078  53.412  1.00  0.00     0.012 A 
ENDBRANCH  24  25
ENDBRANCH   1  24
BRANCH   2  32
HETATM   32  C   UNL     1       3.860  28.795  55.393  1.00  0.00     0.228 C 
BRANCH  32  33
HETATM   33  N   UNL     1       5.095  28.695  56.163  1.00  0.00    -0.347 N 
HETATM   34  C   UNL     1       5.541  27.561  56.843  1.00  0.00     0.171 A 
HETATM   35  S   UNL     1       4.982  26.007  56.759  1.00  0.00    -0.041 SA
HETATM   36  N   UNL     1       6.591  27.926  57.657  1.00  0.00    -0.357 N 
HETATM   37  C   UNL     1       6.816  29.351  57.663  1.00  0.00     0.135 A 
HETATM   38  H   UNL     1       7.047  27.270  58.279  1.00  0.00     0.162 HD
HETATM   39  C   UNL     1       5.806  29.883  56.628  1.00  0.00     0.155 A 
BRANCH  37  40
HETATM   40  C   UNL     1       8.262  29.679  57.383  1.00  0.00    -0.034 A 
HETATM   41  C   UNL     1       8.887  29.286  56.188  1.00  0.00     0.009 A 
HETATM   42  C   UNL     1      10.235  29.574  55.959  1.00  0.00     0.001 A 
HETATM   43  C   UNL     1      10.974  30.257  56.921  1.00  0.00     0.000 A 
HETATM   44  C   UNL     1      10.370  30.653  58.112  1.00  0.00     0.001 A 
HETATM   45  C   UNL     1       9.023  30.367  58.342  1.00  0.00     0.009 A 
ENDBRANCH  37  40
ENDBRANCH  32  33
ENDBRANCH   2  32
TORSDOF 9
ENDMDL
