MODEL 1
REMARK VINA RESULT:     -10.5      0.000      0.000
REMARK  8 active torsions:
REMARK  status: ('A' for Active; 'I' for Inactive)
REMARK    1  A    between atoms: C_4  and  O_5 
REMARK    2  A    between atoms: O_5  and  C_6 
REMARK    3  A    between atoms: C_6  and  C_7 
REMARK       I    between atoms: C_7  and  N_8 
REMARK    4  A    between atoms: N_8  and  C_9 
REMARK    5  A    between atoms: C_9  and  N_10 
REMARK    6  A    between atoms: N_10  and  C_11 
REMARK    7  A    between atoms: C_14  and  N_15 
REMARK    8  A    between atoms: N_18  and  C_19 
ROOT
HETATM    1  C   UNL     1       5.583  31.388  57.712  1.00  0.00     0.034 A 
HETATM    2  C   UNL     1       6.823  30.943  58.180  1.00  0.00     0.031 A 
HETATM    3  C   UNL     1       7.216  29.603  58.042  1.00  0.00     0.026 A 
HETATM    4  C   UNL     1       6.382  28.653  57.442  1.00  0.00     0.010 A 
HETATM    5  C   UNL     1       5.109  29.103  57.055  1.00  0.00     0.026 A 
HETATM    6  C   UNL     1       4.716  30.447  57.175  1.00  0.00     0.031 A 
ENDROOT
BRANCH   4   7
HETATM    7  N   UNL     1       6.745  27.306  57.251  1.00  0.00    -0.280 NA
HETATM    8  C   UNL     1       8.183  27.006  57.039  1.00  0.00     0.115 C 
HETATM    9  C   UNL     1       8.455  25.482  57.017  1.00  0.00     0.138 C 
HETATM   10  N   UNL     1       7.604  24.808  56.008  1.00  0.00    -0.374 N 
HETATM   11  C   UNL     1       6.162  25.080  56.249  1.00  0.00     0.138 C 
HETATM   12  C   UNL     1       5.880  26.600  56.263  1.00  0.00     0.115 C 
BRANCH  10  13
HETATM   13  C   UNL     1       7.900  23.484  55.629  1.00  0.00     0.115 A 
HETATM   14  C   UNL     1       8.339  22.483  56.520  1.00  0.00     0.187 A 
HETATM   15  F   UNL     1       8.455  22.737  57.833  1.00  0.00    -0.200 F 
HETATM   16  C   UNL     1       8.646  21.192  56.087  1.00  0.00     0.199 A 
HETATM   17  F   UNL     1       9.050  20.272  56.975  1.00  0.00    -0.199 F 
HETATM   18  C   UNL     1       8.533  20.856  54.750  1.00  0.00     0.199 A 
HETATM   19  F   UNL     1       8.827  19.615  54.339  1.00  0.00    -0.199 F 
HETATM   20  C   UNL     1       8.119  21.810  53.840  1.00  0.00     0.199 A 
HETATM   21  F   UNL     1       8.018  21.497  52.540  1.00  0.00    -0.199 F 
HETATM   22  C   UNL     1       7.814  23.101  54.270  1.00  0.00     0.187 A 
HETATM   23  F   UNL     1       7.461  24.003  53.339  1.00  0.00    -0.200 F 
ENDBRANCH  10  13
ENDBRANCH   4   7
BRANCH   1  24
HETATM   24  N   UNL     1       5.322  32.766  57.849  1.00  0.00    -0.333 N 
HETATM   25  H   UNL     1       6.087  33.362  57.532  1.00  0.00     0.168 HD
BRANCH  24  26
HETATM   26  C   UNL     1       4.201  33.478  58.212  1.00  0.00     0.178 C 
HETATM   27  S   UNL     1       3.127  34.338  57.265  1.00  0.00    -0.040 SA
BRANCH  26  28
HETATM   28  N   UNL     1       3.969  33.523  59.579  1.00  0.00    -0.302 N 
HETATM   29  C   UNL     1       3.423  32.553  60.408  1.00  0.00     0.248 C 
HETATM   30  O   UNL     1       2.925  31.505  59.998  1.00  0.00    -0.271 OA
HETATM   31  H   UNL     1       4.364  34.339  60.037  1.00  0.00     0.171 HD
BRANCH  29  32
HETATM   32  C   UNL     1       3.463  32.912  61.888  1.00  0.00     0.278 C 
BRANCH  32  33
HETATM   33  O   UNL     1       4.122  31.935  62.685  1.00  0.00    -0.342 OA
BRANCH  33  34
HETATM   34  C   UNL     1       5.404  32.224  63.071  1.00  0.00     0.069 A 
HETATM   35  C   UNL     1       6.564  31.834  62.398  1.00  0.00     0.037 A 
HETATM   36  C   UNL     1       7.819  32.214  62.884  1.00  0.00     0.003 A 
HETATM   37  C   UNL     1       7.921  32.986  64.039  1.00  0.00     0.000 A 
HETATM   38  C   UNL     1       6.766  33.386  64.707  1.00  0.00     0.003 A 
HETATM   39  C   UNL     1       5.512  33.014  64.218  1.00  0.00     0.037 A 
ENDBRANCH  33  34
ENDBRANCH  32  33
ENDBRANCH  29  32
ENDBRANCH  26  28
ENDBRANCH  24  26
ENDBRANCH   1  24
TORSDOF 8
ENDMDL
MODEL 2
REMARK VINA RESULT:     -10.4      6.106     11.784
REMARK  8 active torsions:
REMARK  status: ('A' for Active; 'I' for Inactive)
REMARK    1  A    between atoms: C_4  and  O_5 
REMARK    2  A    between atoms: O_5  and  C_6 
REMARK    3  A    between atoms: C_6  and  C_7 
REMARK       I    between atoms: C_7  and  N_8 
REMARK    4  A    between atoms: N_8  and  C_9 
REMARK    5  A    between atoms: C_9  and  N_10 
REMARK    6  A    between atoms: N_10  and  C_11 
REMARK    7  A    between atoms: C_14  and  N_15 
REMARK    8  A    between atoms: N_18  and  C_19 
ROOT
HETATM    1  C   UNL     1       7.941  29.335  55.956  1.00  0.00     0.034 A 
HETATM    2  C   UNL     1       6.690  29.864  56.285  1.00  0.00     0.031 A 
HETATM    3  C   UNL     1       6.489  30.565  57.484  1.00  0.00     0.026 A 
HETATM    4  C   UNL     1       7.525  30.754  58.405  1.00  0.00     0.010 A 
HETATM    5  C   UNL     1       8.750  30.142  58.094  1.00  0.00     0.026 A 
HETATM    6  C   UNL     1       8.963  29.453  56.887  1.00  0.00     0.031 A 
ENDROOT
BRANCH   4   7
HETATM    7  N   UNL     1       7.381  31.477  59.605  1.00  0.00    -0.280 NA
HETATM    8  C   UNL     1       7.935  30.871  60.842  1.00  0.00     0.115 C 
HETATM    9  C   UNL     1       7.861  31.846  62.042  1.00  0.00     0.138 C 
HETATM   10  N   UNL     1       6.474  32.328  62.246  1.00  0.00    -0.374 N 
HETATM   11  C   UNL     1       5.939  32.970  61.016  1.00  0.00     0.138 C 
HETATM   12  C   UNL     1       6.001  31.999  59.814  1.00  0.00     0.115 C 
BRANCH  10  13
HETATM   13  C   UNL     1       6.141  32.984  63.447  1.00  0.00     0.115 A 
HETATM   14  C   UNL     1       7.075  33.336  64.444  1.00  0.00     0.187 A 
HETATM   15  F   UNL     1       8.385  33.099  64.271  1.00  0.00    -0.200 F 
HETATM   16  C   UNL     1       6.688  33.963  65.630  1.00  0.00     0.199 A 
HETATM   17  F   UNL     1       7.615  34.286  66.543  1.00  0.00    -0.199 F 
HETATM   18  C   UNL     1       5.357  34.253  65.867  1.00  0.00     0.199 A 
HETATM   19  F   UNL     1       4.991  34.855  67.007  1.00  0.00    -0.199 F 
HETATM   20  C   UNL     1       4.406  33.914  64.923  1.00  0.00     0.199 A 
HETATM   21  F   UNL     1       3.112  34.180  65.150  1.00  0.00    -0.199 F 
HETATM   22  C   UNL     1       4.791  33.286  63.739  1.00  0.00     0.187 A 
HETATM   23  F   UNL     1       3.823  32.935  62.875  1.00  0.00    -0.200 F 
ENDBRANCH  10  13
ENDBRANCH   4   7
BRANCH   1  24
HETATM   24  N   UNL     1       8.041  28.705  54.699  1.00  0.00    -0.333 N 
HETATM   25  H   UNL     1       8.945  28.836  54.244  1.00  0.00     0.168 HD
BRANCH  24  26
HETATM   26  C   UNL     1       7.213  27.848  54.009  1.00  0.00     0.178 C 
HETATM   27  S   UNL     1       6.108  28.170  52.799  1.00  0.00    -0.040 SA
BRANCH  26  28
HETATM   28  N   UNL     1       7.280  26.527  54.429  1.00  0.00    -0.302 N 
HETATM   29  C   UNL     1       6.414  25.825  55.256  1.00  0.00     0.248 C 
HETATM   30  O   UNL     1       5.481  26.345  55.867  1.00  0.00    -0.271 OA
HETATM   31  H   UNL     1       8.003  25.984  53.966  1.00  0.00     0.171 HD
BRANCH  29  32
HETATM   32  C   UNL     1       6.738  24.341  55.372  1.00  0.00     0.278 C 
BRANCH  32  33
HETATM   33  O   UNL     1       6.988  23.722  54.115  1.00  0.00    -0.342 OA
BRANCH  33  34
HETATM   34  C   UNL     1       7.557  22.476  54.151  1.00  0.00     0.069 A 
HETATM   35  C   UNL     1       7.971  21.739  53.040  1.00  0.00     0.037 A 
HETATM   36  C   UNL     1       8.562  20.483  53.211  1.00  0.00     0.003 A 
HETATM   37  C   UNL     1       8.741  19.959  54.489  1.00  0.00     0.000 A 
HETATM   38  C   UNL     1       8.338  20.696  55.600  1.00  0.00     0.003 A 
HETATM   39  C   UNL     1       7.757  21.954  55.431  1.00  0.00     0.037 A 
ENDBRANCH  33  34
ENDBRANCH  32  33
ENDBRANCH  29  32
ENDBRANCH  26  28
ENDBRANCH  24  26
ENDBRANCH   1  24
TORSDOF 8
ENDMDL
MODEL 3
REMARK VINA RESULT:     -10.4      0.300      1.931
REMARK  8 active torsions:
REMARK  status: ('A' for Active; 'I' for Inactive)
REMARK    1  A    between atoms: C_4  and  O_5 
REMARK    2  A    between atoms: O_5  and  C_6 
REMARK    3  A    between atoms: C_6  and  C_7 
REMARK       I    between atoms: C_7  and  N_8 
REMARK    4  A    between atoms: N_8  and  C_9 
REMARK    5  A    between atoms: C_9  and  N_10 
REMARK    6  A    between atoms: N_10  and  C_11 
REMARK    7  A    between atoms: C_14  and  N_15 
REMARK    8  A    between atoms: N_18  and  C_19 
ROOT
HETATM    1  C   UNL     1       6.056  31.519  57.883  1.00  0.00     0.034 A 
HETATM    2  C   UNL     1       5.268  30.779  56.996  1.00  0.00     0.031 A 
HETATM    3  C   UNL     1       5.537  29.426  56.737  1.00  0.00     0.026 A 
HETATM    4  C   UNL     1       6.609  28.763  57.345  1.00  0.00     0.010 A 
HETATM    5  C   UNL     1       7.437  29.546  58.166  1.00  0.00     0.026 A 
HETATM    6  C   UNL     1       7.163  30.897  58.442  1.00  0.00     0.031 A 
ENDROOT
BRANCH   4   7
HETATM    7  N   UNL     1       6.899  27.400  57.143  1.00  0.00    -0.280 NA
HETATM    8  C   UNL     1       8.329  27.001  57.109  1.00  0.00     0.115 C 
HETATM    9  C   UNL     1       8.494  25.463  57.056  1.00  0.00     0.138 C 
HETATM   10  N   UNL     1       7.742  24.890  55.914  1.00  0.00    -0.374 N 
HETATM   11  C   UNL     1       6.303  25.260  55.976  1.00  0.00     0.138 C 
HETATM   12  C   UNL     1       6.128  26.795  56.020  1.00  0.00     0.115 C 
BRANCH  10  13
HETATM   13  C   UNL     1       7.994  23.561  55.519  1.00  0.00     0.115 A 
HETATM   14  C   UNL     1       7.898  23.097  54.191  1.00  0.00     0.187 A 
HETATM   15  F   UNL     1       7.597  23.939  53.189  1.00  0.00    -0.200 F 
HETATM   16  C   UNL     1       8.133  21.762  53.857  1.00  0.00     0.199 A 
HETATM   17  F   UNL     1       8.039  21.370  52.578  1.00  0.00    -0.199 F 
HETATM   18  C   UNL     1       8.465  20.842  54.836  1.00  0.00     0.199 A 
HETATM   19  F   UNL     1       8.691  19.562  54.510  1.00  0.00    -0.199 F 
HETATM   20  C   UNL     1       8.557  21.252  56.153  1.00  0.00     0.199 A 
HETATM   21  F   UNL     1       8.867  20.365  57.110  1.00  0.00    -0.199 F 
HETATM   22  C   UNL     1       8.320  22.584  56.488  1.00  0.00     0.187 A 
HETATM   23  F   UNL     1       8.378  22.921  57.788  1.00  0.00    -0.200 F 
ENDBRANCH  10  13
ENDBRANCH   4   7
BRANCH   1  24
HETATM   24  N   UNL     1       5.655  32.850  58.112  1.00  0.00    -0.333 N 
HETATM   25  H   UNL     1       6.374  33.539  57.888  1.00  0.00     0.168 HD
BRANCH  24  26
HETATM   26  C   UNL     1       4.454  33.423  58.462  1.00  0.00     0.178 C 
HETATM   27  S   UNL     1       3.349  34.251  57.522  1.00  0.00    -0.040 SA
BRANCH  26  28
HETATM   28  N   UNL     1       4.151  33.337  59.814  1.00  0.00    -0.302 N 
HETATM   29  C   UNL     1       3.472  32.339  60.498  1.00  0.00     0.248 C 
HETATM   30  O   UNL     1       2.903  31.398  59.947  1.00  0.00    -0.271 OA
HETATM   31  H   UNL     1       4.594  34.054  60.381  1.00  0.00     0.171 HD
BRANCH  29  32
HETATM   32  C   UNL     1       3.463  32.525  62.011  1.00  0.00     0.278 C 
BRANCH  32  33
HETATM   33  O   UNL     1       4.281  31.584  62.696  1.00  0.00    -0.342 OA
BRANCH  33  34
HETATM   34  C   UNL     1       5.501  32.036  63.127  1.00  0.00     0.069 A 
HETATM   35  C   UNL     1       6.737  31.695  62.574  1.00  0.00     0.037 A 
HETATM   36  C   UNL     1       7.914  32.244  63.093  1.00  0.00     0.003 A 
HETATM   37  C   UNL     1       7.861  33.135  64.162  1.00  0.00     0.000 A 
HETATM   38  C   UNL     1       6.629  33.486  64.709  1.00  0.00     0.003 A 
HETATM   39  C   UNL     1       5.454  32.945  64.187  1.00  0.00     0.037 A 
ENDBRANCH  33  34
ENDBRANCH  32  33
ENDBRANCH  29  32
ENDBRANCH  26  28
ENDBRANCH  24  26
ENDBRANCH   1  24
TORSDOF 8
ENDMDL
MODEL 4
REMARK VINA RESULT:      -9.9      1.393      2.737
REMARK  8 active torsions:
REMARK  status: ('A' for Active; 'I' for Inactive)
REMARK    1  A    between atoms: C_4  and  O_5 
REMARK    2  A    between atoms: O_5  and  C_6 
REMARK    3  A    between atoms: C_6  and  C_7 
REMARK       I    between atoms: C_7  and  N_8 
REMARK    4  A    between atoms: N_8  and  C_9 
REMARK    5  A    between atoms: C_9  and  N_10 
REMARK    6  A    between atoms: N_10  and  C_11 
REMARK    7  A    between atoms: C_14  and  N_15 
REMARK    8  A    between atoms: N_18  and  C_19 
ROOT
HETATM    1  C   UNL     1       5.935  31.478  58.286  1.00  0.00     0.034 A 
HETATM    2  C   UNL     1       4.980  30.649  57.691  1.00  0.00     0.031 A 
HETATM    3  C   UNL     1       5.273  29.314  57.372  1.00  0.00     0.026 A 
HETATM    4  C   UNL     1       6.532  28.759  57.624  1.00  0.00     0.010 A 
HETATM    5  C   UNL     1       7.501  29.633  58.144  1.00  0.00     0.026 A 
HETATM    6  C   UNL     1       7.209  30.966  58.481  1.00  0.00     0.031 A 
ENDROOT
BRANCH   4   7
HETATM    7  N   UNL     1       6.863  27.418  57.353  1.00  0.00    -0.280 NA
HETATM    8  C   UNL     1       8.298  27.091  57.156  1.00  0.00     0.115 C 
HETATM    9  C   UNL     1       8.530  25.565  57.041  1.00  0.00     0.138 C 
HETATM   10  N   UNL     1       7.687  24.983  55.969  1.00  0.00    -0.374 N 
HETATM   11  C   UNL     1       6.248  25.279  56.192  1.00  0.00     0.138 C 
HETATM   12  C   UNL     1       6.006  26.802  56.300  1.00  0.00     0.115 C 
BRANCH  10  13
HETATM   13  C   UNL     1       7.959  23.679  55.510  1.00  0.00     0.115 A 
HETATM   14  C   UNL     1       7.843  23.271  54.165  1.00  0.00     0.187 A 
HETATM   15  F   UNL     1       7.504  24.149  53.208  1.00  0.00    -0.200 F 
HETATM   16  C   UNL     1       8.099  21.957  53.768  1.00  0.00     0.199 A 
HETATM   17  F   UNL     1       7.985  21.620  52.475  1.00  0.00    -0.199 F 
HETATM   18  C   UNL     1       8.470  21.003  54.698  1.00  0.00     0.199 A 
HETATM   19  F   UNL     1       8.716  19.744  54.312  1.00  0.00    -0.199 F 
HETATM   20  C   UNL     1       8.583  21.357  56.030  1.00  0.00     0.199 A 
HETATM   21  F   UNL     1       8.931  20.436  56.941  1.00  0.00    -0.199 F 
HETATM   22  C   UNL     1       8.326  22.668  56.428  1.00  0.00     0.187 A 
HETATM   23  F   UNL     1       8.404  22.949  57.740  1.00  0.00    -0.200 F 
ENDBRANCH  10  13
ENDBRANCH   4   7
BRANCH   1  24
HETATM   24  N   UNL     1       5.510  32.781  58.617  1.00  0.00    -0.333 N 
HETATM   25  H   UNL     1       5.841  33.497  57.970  1.00  0.00     0.168 HD
BRANCH  24  26
HETATM   26  C   UNL     1       4.643  33.273  59.566  1.00  0.00     0.178 C 
HETATM   27  S   UNL     1       3.502  34.487  59.445  1.00  0.00    -0.040 SA
BRANCH  26  28
HETATM   28  N   UNL     1       4.785  32.702  60.822  1.00  0.00    -0.302 N 
HETATM   29  C   UNL     1       5.852  32.783  61.706  1.00  0.00     0.248 C 
HETATM   30  O   UNL     1       6.933  33.301  61.427  1.00  0.00    -0.271 OA
HETATM   31  H   UNL     1       3.939  32.264  61.174  1.00  0.00     0.171 HD
BRANCH  29  32
HETATM   32  C   UNL     1       5.582  32.140  63.061  1.00  0.00     0.278 C 
BRANCH  32  33
HETATM   33  O   UNL     1       4.361  32.570  63.651  1.00  0.00    -0.342 OA
BRANCH  33  34
HETATM   34  C   UNL     1       4.394  33.765  64.321  1.00  0.00     0.069 A 
HETATM   35  C   UNL     1       3.886  34.977  63.848  1.00  0.00     0.037 A 
HETATM   36  C   UNL     1       3.961  36.126  64.641  1.00  0.00     0.003 A 
HETATM   37  C   UNL     1       4.542  36.071  65.906  1.00  0.00     0.000 A 
HETATM   38  C   UNL     1       5.041  34.861  66.385  1.00  0.00     0.003 A 
HETATM   39  C   UNL     1       4.958  33.711  65.598  1.00  0.00     0.037 A 
ENDBRANCH  33  34
ENDBRANCH  32  33
ENDBRANCH  29  32
ENDBRANCH  26  28
ENDBRANCH  24  26
ENDBRANCH   1  24
TORSDOF 8
ENDMDL
MODEL 5
REMARK VINA RESULT:      -9.7      1.324      2.331
REMARK  8 active torsions:
REMARK  status: ('A' for Active; 'I' for Inactive)
REMARK    1  A    between atoms: C_4  and  O_5 
REMARK    2  A    between atoms: O_5  and  C_6 
REMARK    3  A    between atoms: C_6  and  C_7 
REMARK       I    between atoms: C_7  and  N_8 
REMARK    4  A    between atoms: N_8  and  C_9 
REMARK    5  A    between atoms: C_9  and  N_10 
REMARK    6  A    between atoms: N_10  and  C_11 
REMARK    7  A    between atoms: C_14  and  N_15 
REMARK    8  A    between atoms: N_18  and  C_19 
ROOT
HETATM    1  C   UNL     1       4.963  31.084  56.132  1.00  0.00     0.034 A 
HETATM    2  C   UNL     1       6.028  30.463  56.789  1.00  0.00     0.031 A 
HETATM    3  C   UNL     1       6.355  29.121  56.540  1.00  0.00     0.026 A 
HETATM    4  C   UNL     1       5.624  28.345  55.633  1.00  0.00     0.010 A 
HETATM    5  C   UNL     1       4.507  28.965  55.048  1.00  0.00     0.026 A 
HETATM    6  C   UNL     1       4.185  30.313  55.281  1.00  0.00     0.031 A 
ENDROOT
BRANCH   4   7
HETATM    7  N   UNL     1       5.932  27.006  55.325  1.00  0.00    -0.280 NA
HETATM    8  C   UNL     1       5.623  25.978  56.349  1.00  0.00     0.115 C 
HETATM    9  C   UNL     1       5.851  24.544  55.811  1.00  0.00     0.138 C 
HETATM   10  N   UNL     1       7.228  24.391  55.284  1.00  0.00    -0.374 N 
HETATM   11  C   UNL     1       7.518  25.399  54.230  1.00  0.00     0.138 C 
HETATM   12  C   UNL     1       7.301  26.834  54.762  1.00  0.00     0.115 C 
BRANCH  10  13
HETATM   13  C   UNL     1       7.726  23.100  55.021  1.00  0.00     0.115 A 
HETATM   14  C   UNL     1       7.591  22.435  53.784  1.00  0.00     0.187 A 
HETATM   15  F   UNL     1       7.003  23.040  52.740  1.00  0.00    -0.200 F 
HETATM   16  C   UNL     1       8.081  21.142  53.584  1.00  0.00     0.199 A 
HETATM   17  F   UNL     1       7.937  20.556  52.387  1.00  0.00    -0.199 F 
HETATM   18  C   UNL     1       8.714  20.466  54.611  1.00  0.00     0.199 A 
HETATM   19  F   UNL     1       9.183  19.226  54.414  1.00  0.00    -0.199 F 
HETATM   20  C   UNL     1       8.856  21.076  55.844  1.00  0.00     0.199 A 
HETATM   21  F   UNL     1       9.458  20.423  56.849  1.00  0.00    -0.199 F 
HETATM   22  C   UNL     1       8.366  22.365  56.046  1.00  0.00     0.187 A 
HETATM   23  F   UNL     1       8.488  22.894  57.275  1.00  0.00    -0.200 F 
ENDBRANCH  10  13
ENDBRANCH   4   7
BRANCH   1  24
HETATM   24  N   UNL     1       4.767  32.451  56.416  1.00  0.00    -0.333 N 
HETATM   25  H   UNL     1       5.475  33.061  56.006  1.00  0.00     0.168 HD
BRANCH  24  26
HETATM   26  C   UNL     1       3.751  33.146  57.032  1.00  0.00     0.178 C 
HETATM   27  S   UNL     1       2.578  34.136  56.372  1.00  0.00    -0.040 SA
BRANCH  26  28
HETATM   28  N   UNL     1       3.744  33.042  58.416  1.00  0.00    -0.302 N 
HETATM   29  C   UNL     1       4.809  33.092  59.304  1.00  0.00     0.248 C 
HETATM   30  O   UNL     1       5.989  33.112  58.955  1.00  0.00    -0.271 OA
HETATM   31  H   UNL     1       2.813  33.045  58.824  1.00  0.00     0.171 HD
BRANCH  29  32
HETATM   32  C   UNL     1       4.392  33.088  60.769  1.00  0.00     0.278 C 
BRANCH  32  33
HETATM   33  O   UNL     1       4.996  32.044  61.521  1.00  0.00    -0.342 OA
BRANCH  33  34
HETATM   34  C   UNL     1       5.813  32.428  62.552  1.00  0.00     0.069 A 
HETATM   35  C   UNL     1       7.203  32.295  62.581  1.00  0.00     0.037 A 
HETATM   36  C   UNL     1       7.929  32.750  63.687  1.00  0.00     0.003 A 
HETATM   37  C   UNL     1       7.271  33.337  64.766  1.00  0.00     0.000 A 
HETATM   38  C   UNL     1       5.886  33.479  64.736  1.00  0.00     0.003 A 
HETATM   39  C   UNL     1       5.162  33.035  63.628  1.00  0.00     0.037 A 
ENDBRANCH  33  34
ENDBRANCH  32  33
ENDBRANCH  29  32
ENDBRANCH  26  28
ENDBRANCH  24  26
ENDBRANCH   1  24
TORSDOF 8
ENDMDL
MODEL 6
REMARK VINA RESULT:      -9.7      1.440      2.598
REMARK  8 active torsions:
REMARK  status: ('A' for Active; 'I' for Inactive)
REMARK    1  A    between atoms: C_4  and  O_5 
REMARK    2  A    between atoms: O_5  and  C_6 
REMARK    3  A    between atoms: C_6  and  C_7 
REMARK       I    between atoms: C_7  and  N_8 
REMARK    4  A    between atoms: N_8  and  C_9 
REMARK    5  A    between atoms: C_9  and  N_10 
REMARK    6  A    between atoms: N_10  and  C_11 
REMARK    7  A    between atoms: C_14  and  N_15 
REMARK    8  A    between atoms: N_18  and  C_19 
ROOT
HETATM    1  C   UNL     1       5.349  30.893  57.494  1.00  0.00     0.034 A 
HETATM    2  C   UNL     1       6.583  30.291  57.758  1.00  0.00     0.031 A 
HETATM    3  C   UNL     1       6.864  28.985  57.326  1.00  0.00     0.026 A 
HETATM    4  C   UNL     1       5.920  28.227  56.625  1.00  0.00     0.010 A 
HETATM    5  C   UNL     1       4.660  28.819  56.446  1.00  0.00     0.026 A 
HETATM    6  C   UNL     1       4.378  30.132  56.861  1.00  0.00     0.031 A 
ENDROOT
BRANCH   4   7
HETATM    7  N   UNL     1       6.166  26.927  56.143  1.00  0.00    -0.280 NA
HETATM    8  C   UNL     1       5.923  25.793  57.071  1.00  0.00     0.115 C 
HETATM    9  C   UNL     1       6.066  24.427  56.358  1.00  0.00     0.138 C 
HETATM   10  N   UNL     1       7.386  24.313  55.694  1.00  0.00    -0.374 N 
HETATM   11  C   UNL     1       7.607  25.429  54.737  1.00  0.00     0.138 C 
HETATM   12  C   UNL     1       7.475  26.798  55.442  1.00  0.00     0.115 C 
BRANCH  10  13
HETATM   13  C   UNL     1       7.826  23.053  55.244  1.00  0.00     0.115 A 
HETATM   14  C   UNL     1       7.576  22.539  53.955  1.00  0.00     0.187 A 
HETATM   15  F   UNL     1       6.924  23.272  53.039  1.00  0.00    -0.200 F 
HETATM   16  C   UNL     1       8.012  21.270  53.569  1.00  0.00     0.199 A 
HETATM   17  F   UNL     1       7.758  20.830  52.328  1.00  0.00    -0.199 F 
HETATM   18  C   UNL     1       8.705  20.467  54.456  1.00  0.00     0.199 A 
HETATM   19  F   UNL     1       9.122  19.250  54.080  1.00  0.00    -0.199 F 
HETATM   20  C   UNL     1       8.961  20.926  55.735  1.00  0.00     0.199 A 
HETATM   21  F   UNL     1       9.621  20.149  56.606  1.00  0.00    -0.199 F 
HETATM   22  C   UNL     1       8.524  22.191  56.123  1.00  0.00     0.187 A 
HETATM   23  F   UNL     1       8.757  22.571  57.391  1.00  0.00    -0.200 F 
ENDBRANCH  10  13
ENDBRANCH   4   7
BRANCH   1  24
HETATM   24  N   UNL     1       5.202  32.228  57.922  1.00  0.00    -0.333 N 
HETATM   25  H   UNL     1       5.139  32.899  57.156  1.00  0.00     0.168 HD
BRANCH  24  26
HETATM   26  C   UNL     1       5.006  32.803  59.157  1.00  0.00     0.178 C 
HETATM   27  S   UNL     1       4.058  34.107  59.592  1.00  0.00    -0.040 SA
BRANCH  26  28
HETATM   28  N   UNL     1       5.757  32.236  60.177  1.00  0.00    -0.302 N 
HETATM   29  C   UNL     1       7.130  32.272  60.379  1.00  0.00     0.248 C 
HETATM   30  O   UNL     1       7.929  32.734  59.565  1.00  0.00    -0.271 OA
HETATM   31  H   UNL     1       5.199  31.843  60.930  1.00  0.00     0.171 HD
BRANCH  29  32
HETATM   32  C   UNL     1       7.575  31.655  61.699  1.00  0.00     0.278 C 
BRANCH  32  33
HETATM   33  O   UNL     1       6.508  31.474  62.622  1.00  0.00    -0.342 OA
BRANCH  33  34
HETATM   34  C   UNL     1       6.422  32.386  63.642  1.00  0.00     0.069 A 
HETATM   35  C   UNL     1       7.504  32.975  64.300  1.00  0.00     0.037 A 
HETATM   36  C   UNL     1       7.283  33.912  65.314  1.00  0.00     0.003 A 
HETATM   37  C   UNL     1       5.984  34.265  65.673  1.00  0.00     0.000 A 
HETATM   38  C   UNL     1       4.903  33.687  65.012  1.00  0.00     0.003 A 
HETATM   39  C   UNL     1       5.123  32.758  63.994  1.00  0.00     0.037 A 
ENDBRANCH  33  34
ENDBRANCH  32  33
ENDBRANCH  29  32
ENDBRANCH  26  28
ENDBRANCH  24  26
ENDBRANCH   1  24
TORSDOF 8
ENDMDL
MODEL 7
REMARK VINA RESULT:      -9.7      2.233      3.854
REMARK  8 active torsions:
REMARK  status: ('A' for Active; 'I' for Inactive)
REMARK    1  A    between atoms: C_4  and  O_5 
REMARK    2  A    between atoms: O_5  and  C_6 
REMARK    3  A    between atoms: C_6  and  C_7 
REMARK       I    between atoms: C_7  and  N_8 
REMARK    4  A    between atoms: N_8  and  C_9 
REMARK    5  A    between atoms: C_9  and  N_10 
REMARK    6  A    between atoms: N_10  and  C_11 
REMARK    7  A    between atoms: C_14  and  N_15 
REMARK    8  A    between atoms: N_18  and  C_19 
ROOT
HETATM    1  C   UNL     1       4.428  32.799  59.562  1.00  0.00     0.034 A 
HETATM    2  C   UNL     1       3.477  32.024  58.891  1.00  0.00     0.031 A 
HETATM    3  C   UNL     1       3.860  31.020  57.989  1.00  0.00     0.026 A 
HETATM    4  C   UNL     1       5.207  30.758  57.713  1.00  0.00     0.010 A 
HETATM    5  C   UNL     1       6.142  31.602  58.333  1.00  0.00     0.026 A 
HETATM    6  C   UNL     1       5.765  32.599  59.250  1.00  0.00     0.031 A 
ENDROOT
BRANCH   4   7
HETATM    7  N   UNL     1       5.641  29.740  56.843  1.00  0.00    -0.280 NA
HETATM    8  C   UNL     1       4.613  28.818  56.297  1.00  0.00     0.115 C 
HETATM    9  C   UNL     1       5.204  27.868  55.228  1.00  0.00     0.138 C 
HETATM   10  N   UNL     1       6.369  27.126  55.766  1.00  0.00    -0.374 N 
HETATM   11  C   UNL     1       7.412  28.055  56.274  1.00  0.00     0.138 C 
HETATM   12  C   UNL     1       6.833  29.002  57.350  1.00  0.00     0.115 C 
BRANCH  10  13
HETATM   13  C   UNL     1       6.863  26.011  55.060  1.00  0.00     0.115 A 
HETATM   14  C   UNL     1       7.418  26.075  53.765  1.00  0.00     0.187 A 
HETATM   15  F   UNL     1       7.555  27.252  53.135  1.00  0.00    -0.200 F 
HETATM   16  C   UNL     1       7.869  24.933  53.099  1.00  0.00     0.199 A 
HETATM   17  F   UNL     1       8.399  25.046  51.873  1.00  0.00    -0.199 F 
HETATM   18  C   UNL     1       7.775  23.690  53.697  1.00  0.00     0.199 A 
HETATM   19  F   UNL     1       8.211  22.598  53.054  1.00  0.00    -0.199 F 
HETATM   20  C   UNL     1       7.225  23.580  54.961  1.00  0.00     0.199 A 
HETATM   21  F   UNL     1       7.119  22.377  55.543  1.00  0.00    -0.199 F 
HETATM   22  C   UNL     1       6.772  24.718  55.626  1.00  0.00     0.187 A 
HETATM   23  F   UNL     1       6.203  24.552  56.833  1.00  0.00    -0.200 F 
ENDBRANCH  10  13
ENDBRANCH   4   7
BRANCH   1  24
HETATM   24  N   UNL     1       3.929  33.735  60.489  1.00  0.00    -0.333 N 
HETATM   25  H   UNL     1       3.657  34.625  60.069  1.00  0.00     0.168 HD
BRANCH  24  26
HETATM   26  C   UNL     1       3.619  33.658  61.828  1.00  0.00     0.178 C 
HETATM   27  S   UNL     1       2.240  34.140  62.637  1.00  0.00    -0.040 SA
BRANCH  26  28
HETATM   28  N   UNL     1       4.637  33.148  62.622  1.00  0.00    -0.302 N 
HETATM   29  C   UNL     1       5.806  33.762  63.049  1.00  0.00     0.248 C 
HETATM   30  O   UNL     1       6.182  34.866  62.656  1.00  0.00    -0.271 OA
HETATM   31  H   UNL     1       4.426  32.243  63.031  1.00  0.00     0.171 HD
BRANCH  29  32
HETATM   32  C   UNL     1       6.615  32.930  64.037  1.00  0.00     0.278 C 
BRANCH  32  33
HETATM   33  O   UNL     1       8.012  32.942  63.767  1.00  0.00    -0.342 OA
BRANCH  33  34
HETATM   34  C   UNL     1       8.420  32.288  62.634  1.00  0.00     0.069 A 
HETATM   35  C   UNL     1       8.828  32.897  61.446  1.00  0.00     0.037 A 
HETATM   36  C   UNL     1       9.246  32.116  60.364  1.00  0.00     0.003 A 
HETATM   37  C   UNL     1       9.258  30.727  60.464  1.00  0.00     0.000 A 
HETATM   38  C   UNL     1       8.861  30.116  61.651  1.00  0.00     0.003 A 
HETATM   39  C   UNL     1       8.452  30.895  62.735  1.00  0.00     0.037 A 
ENDBRANCH  33  34
ENDBRANCH  32  33
ENDBRANCH  29  32
ENDBRANCH  26  28
ENDBRANCH  24  26
ENDBRANCH   1  24
TORSDOF 8
ENDMDL
MODEL 8
REMARK VINA RESULT:      -9.6      1.461      1.834
REMARK  8 active torsions:
REMARK  status: ('A' for Active; 'I' for Inactive)
REMARK    1  A    between atoms: C_4  and  O_5 
REMARK    2  A    between atoms: O_5  and  C_6 
REMARK    3  A    between atoms: C_6  and  C_7 
REMARK       I    between atoms: C_7  and  N_8 
REMARK    4  A    between atoms: N_8  and  C_9 
REMARK    5  A    between atoms: C_9  and  N_10 
REMARK    6  A    between atoms: N_10  and  C_11 
REMARK    7  A    between atoms: C_14  and  N_15 
REMARK    8  A    between atoms: N_18  and  C_19 
ROOT
HETATM    1  C   UNL     1       4.403  30.965  56.101  1.00  0.00     0.034 A 
HETATM    2  C   UNL     1       4.753  30.369  57.316  1.00  0.00     0.031 A 
HETATM    3  C   UNL     1       5.272  29.066  57.364  1.00  0.00     0.026 A 
HETATM    4  C   UNL     1       5.452  28.305  56.204  1.00  0.00     0.010 A 
HETATM    5  C   UNL     1       5.015  28.891  55.005  1.00  0.00     0.026 A 
HETATM    6  C   UNL     1       4.510  30.202  54.948  1.00  0.00     0.031 A 
ENDROOT
BRANCH   4   7
HETATM    7  N   UNL     1       5.999  27.007  56.198  1.00  0.00    -0.280 NA
HETATM    8  C   UNL     1       7.475  26.887  56.089  1.00  0.00     0.115 C 
HETATM    9  C   UNL     1       7.946  25.423  56.269  1.00  0.00     0.138 C 
HETATM   10  N   UNL     1       7.255  24.524  55.315  1.00  0.00    -0.374 N 
HETATM   11  C   UNL     1       5.778  24.620  55.456  1.00  0.00     0.138 C 
HETATM   12  C   UNL     1       5.298  26.078  55.268  1.00  0.00     0.115 C 
BRANCH  10  13
HETATM   13  C   UNL     1       7.746  23.219  55.117  1.00  0.00     0.115 A 
HETATM   14  C   UNL     1       8.303  22.418  56.135  1.00  0.00     0.187 A 
HETATM   15  F   UNL     1       8.351  22.856  57.403  1.00  0.00    -0.200 F 
HETATM   16  C   UNL     1       8.801  21.139  55.879  1.00  0.00     0.199 A 
HETATM   17  F   UNL     1       9.312  20.412  56.883  1.00  0.00    -0.199 F 
HETATM   18  C   UNL     1       8.767  20.617  54.599  1.00  0.00     0.199 A 
HETATM   19  F   UNL     1       9.245  19.388  54.358  1.00  0.00    -0.199 F 
HETATM   20  C   UNL     1       8.242  21.373  53.568  1.00  0.00     0.199 A 
HETATM   21  F   UNL     1       8.216  20.880  52.321  1.00  0.00    -0.199 F 
HETATM   22  C   UNL     1       7.746  22.652  53.821  1.00  0.00     0.187 A 
HETATM   23  F   UNL     1       7.289  23.363  52.777  1.00  0.00    -0.200 F 
ENDBRANCH  10  13
ENDBRANCH   4   7
BRANCH   1  24
HETATM   24  N   UNL     1       3.949  32.298  56.168  1.00  0.00    -0.333 N 
HETATM   25  H   UNL     1       2.938  32.393  56.070  1.00  0.00     0.168 HD
BRANCH  24  26
HETATM   26  C   UNL     1       4.575  33.490  56.457  1.00  0.00     0.178 C 
HETATM   27  S   UNL     1       5.017  34.740  55.442  1.00  0.00    -0.040 SA
BRANCH  26  28
HETATM   28  N   UNL     1       4.933  33.639  57.790  1.00  0.00    -0.302 N 
HETATM   29  C   UNL     1       4.152  33.495  58.928  1.00  0.00     0.248 C 
HETATM   30  O   UNL     1       2.932  33.329  58.904  1.00  0.00    -0.271 OA
HETATM   31  H   UNL     1       5.931  33.756  57.937  1.00  0.00     0.171 HD
BRANCH  29  32
HETATM   32  C   UNL     1       4.936  33.595  60.231  1.00  0.00     0.278 C 
BRANCH  32  33
HETATM   33  O   UNL     1       5.399  32.336  60.703  1.00  0.00    -0.342 OA
BRANCH  33  34
HETATM   34  C   UNL     1       6.751  32.216  60.895  1.00  0.00     0.069 A 
HETATM   35  C   UNL     1       7.718  32.210  59.888  1.00  0.00     0.037 A 
HETATM   36  C   UNL     1       9.073  32.104  60.216  1.00  0.00     0.003 A 
HETATM   37  C   UNL     1       9.467  32.004  61.548  1.00  0.00     0.000 A 
HETATM   38  C   UNL     1       8.506  32.019  62.556  1.00  0.00     0.003 A 
HETATM   39  C   UNL     1       7.154  32.134  62.230  1.00  0.00     0.037 A 
ENDBRANCH  33  34
ENDBRANCH  32  33
ENDBRANCH  29  32
ENDBRANCH  26  28
ENDBRANCH  24  26
ENDBRANCH   1  24
TORSDOF 8
ENDMDL
MODEL 9
REMARK VINA RESULT:      -9.6      2.105      3.086
REMARK  8 active torsions:
REMARK  status: ('A' for Active; 'I' for Inactive)
REMARK    1  A    between atoms: C_4  and  O_5 
REMARK    2  A    between atoms: O_5  and  C_6 
REMARK    3  A    between atoms: C_6  and  C_7 
REMARK       I    between atoms: C_7  and  N_8 
REMARK    4  A    between atoms: N_8  and  C_9 
REMARK    5  A    between atoms: C_9  and  N_10 
REMARK    6  A    between atoms: N_10  and  C_11 
REMARK    7  A    between atoms: C_14  and  N_15 
REMARK    8  A    between atoms: N_18  and  C_19 
ROOT
HETATM    1  C   UNL     1       4.787  32.693  58.792  1.00  0.00     0.034 A 
HETATM    2  C   UNL     1       3.800  31.828  58.312  1.00  0.00     0.031 A 
HETATM    3  C   UNL     1       4.128  30.572  57.778  1.00  0.00     0.026 A 
HETATM    4  C   UNL     1       5.455  30.137  57.694  1.00  0.00     0.010 A 
HETATM    5  C   UNL     1       6.436  31.055  58.103  1.00  0.00     0.026 A 
HETATM    6  C   UNL     1       6.112  32.307  58.653  1.00  0.00     0.031 A 
ENDROOT
BRANCH   4   7
HETATM    7  N   UNL     1       5.832  28.873  57.198  1.00  0.00    -0.280 NA
HETATM    8  C   UNL     1       7.265  28.665  56.870  1.00  0.00     0.115 C 
HETATM    9  C   UNL     1       7.561  27.190  56.505  1.00  0.00     0.138 C 
HETATM   10  N   UNL     1       6.679  26.731  55.406  1.00  0.00    -0.374 N 
HETATM   11  C   UNL     1       5.245  26.905  55.757  1.00  0.00     0.138 C 
HETATM   12  C   UNL     1       4.937  28.377  56.114  1.00  0.00     0.115 C 
BRANCH  10  13
HETATM   13  C   UNL     1       6.982  25.530  54.735  1.00  0.00     0.115 A 
HETATM   14  C   UNL     1       7.051  24.267  55.360  1.00  0.00     0.187 A 
HETATM   15  F   UNL     1       6.773  24.133  56.667  1.00  0.00    -0.200 F 
HETATM   16  C   UNL     1       7.382  23.110  54.652  1.00  0.00     0.199 A 
HETATM   17  F   UNL     1       7.425  21.931  55.290  1.00  0.00    -0.199 F 
HETATM   18  C   UNL     1       7.663  23.172  53.299  1.00  0.00     0.199 A 
HETATM   19  F   UNL     1       7.979  22.059  52.624  1.00  0.00    -0.199 F 
HETATM   20  C   UNL     1       7.619  24.392  52.649  1.00  0.00     0.199 A 
HETATM   21  F   UNL     1       7.902  24.463  51.340  1.00  0.00    -0.199 F 
HETATM   22  C   UNL     1       7.291  25.548  53.355  1.00  0.00     0.187 A 
HETATM   23  F   UNL     1       7.308  26.714  52.687  1.00  0.00    -0.200 F 
ENDBRANCH  10  13
ENDBRANCH   4   7
BRANCH   1  24
HETATM   24  N   UNL     1       4.336  33.901  59.360  1.00  0.00    -0.333 N 
HETATM   25  H   UNL     1       4.184  34.645  58.678  1.00  0.00     0.168 HD
BRANCH  24  26
HETATM   26  C   UNL     1       3.943  34.252  60.632  1.00  0.00     0.178 C 
HETATM   27  S   UNL     1       2.962  35.504  61.142  1.00  0.00    -0.040 SA
BRANCH  26  28
HETATM   28  N   UNL     1       4.495  33.470  61.637  1.00  0.00    -0.302 N 
HETATM   29  C   UNL     1       5.581  33.738  62.459  1.00  0.00     0.248 C 
HETATM   30  O   UNL     1       6.324  34.708  62.315  1.00  0.00    -0.271 OA
HETATM   31  H   UNL     1       3.947  32.646  61.866  1.00  0.00     0.171 HD
BRANCH  29  32
HETATM   32  C   UNL     1       5.800  32.698  63.550  1.00  0.00     0.278 C 
BRANCH  32  33
HETATM   33  O   UNL     1       4.740  32.648  64.498  1.00  0.00    -0.342 OA
BRANCH  33  34
HETATM   34  C   UNL     1       4.604  33.736  65.320  1.00  0.00     0.069 A 
HETATM   35  C   UNL     1       3.511  34.604  65.346  1.00  0.00     0.037 A 
HETATM   36  C   UNL     1       3.482  35.669  66.252  1.00  0.00     0.003 A 
HETATM   37  C   UNL     1       4.542  35.871  67.133  1.00  0.00     0.000 A 
HETATM   38  C   UNL     1       5.630  35.001  67.115  1.00  0.00     0.003 A 
HETATM   39  C   UNL     1       5.656  33.932  66.218  1.00  0.00     0.037 A 
ENDBRANCH  33  34
ENDBRANCH  32  33
ENDBRANCH  29  32
ENDBRANCH  26  28
ENDBRANCH  24  26
ENDBRANCH   1  24
TORSDOF 8
ENDMDL
MODEL 10
REMARK VINA RESULT:      -9.4      6.401     12.277
REMARK  8 active torsions:
REMARK  status: ('A' for Active; 'I' for Inactive)
REMARK    1  A    between atoms: C_4  and  O_5 
REMARK    2  A    between atoms: O_5  and  C_6 
REMARK    3  A    between atoms: C_6  and  C_7 
REMARK       I    between atoms: C_7  and  N_8 
REMARK    4  A    between atoms: N_8  and  C_9 
REMARK    5  A    between atoms: C_9  and  N_10 
REMARK    6  A    between atoms: N_10  and  C_11 
REMARK    7  A    between atoms: C_14  and  N_15 
REMARK    8  A    between atoms: N_18  and  C_19 
ROOT
HETATM    1  C   UNL     1       6.249  29.756  55.904  1.00  0.00     0.034 A 
HETATM    2  C   UNL     1       7.205  29.642  56.917  1.00  0.00     0.031 A 
HETATM    3  C   UNL     1       7.202  30.507  58.023  1.00  0.00     0.026 A 
HETATM    4  C   UNL     1       6.251  31.525  58.153  1.00  0.00     0.010 A 
HETATM    5  C   UNL     1       5.353  31.675  57.084  1.00  0.00     0.026 A 
HETATM    6  C   UNL     1       5.341  30.802  55.982  1.00  0.00     0.031 A 
ENDROOT
BRANCH   4   7
HETATM    7  N   UNL     1       6.186  32.395  59.259  1.00  0.00    -0.280 NA
HETATM    8  C   UNL     1       7.014  32.060  60.445  1.00  0.00     0.115 C 
HETATM    9  C   UNL     1       6.978  33.186  61.506  1.00  0.00     0.138 C 
HETATM   10  N   UNL     1       5.582  33.506  61.890  1.00  0.00    -0.374 N 
HETATM   11  C   UNL     1       4.768  33.879  60.703  1.00  0.00     0.138 C 
HETATM   12  C   UNL     1       4.791  32.756  59.641  1.00  0.00     0.115 C 
BRANCH  10  13
HETATM   13  C   UNL     1       5.344  34.286  63.038  1.00  0.00     0.115 A 
HETATM   14  C   UNL     1       5.504  35.686  63.094  1.00  0.00     0.187 A 
HETATM   15  F   UNL     1       5.859  36.380  62.001  1.00  0.00    -0.200 F 
HETATM   16  C   UNL     1       5.280  36.408  64.268  1.00  0.00     0.199 A 
HETATM   17  F   UNL     1       5.436  37.740  64.269  1.00  0.00    -0.199 F 
HETATM   18  C   UNL     1       4.895  35.759  65.428  1.00  0.00     0.199 A 
HETATM   19  F   UNL     1       4.680  36.457  66.551  1.00  0.00    -0.199 F 
HETATM   20  C   UNL     1       4.739  34.386  65.421  1.00  0.00     0.199 A 
HETATM   21  F   UNL     1       4.378  33.747  66.543  1.00  0.00    -0.199 F 
HETATM   22  C   UNL     1       4.964  33.663  64.250  1.00  0.00     0.187 A 
HETATM   23  F   UNL     1       4.844  32.326  64.309  1.00  0.00    -0.200 F 
ENDBRANCH  10  13
ENDBRANCH   4   7
BRANCH   1  24
HETATM   24  N   UNL     1       6.313  28.796  54.875  1.00  0.00    -0.333 N 
HETATM   25  H   UNL     1       7.244  28.400  54.740  1.00  0.00     0.168 HD
BRANCH  24  26
HETATM   26  C   UNL     1       5.355  28.192  54.092  1.00  0.00     0.178 C 
HETATM   27  S   UNL     1       4.044  28.858  53.301  1.00  0.00    -0.040 SA
BRANCH  26  28
HETATM   28  N   UNL     1       5.480  26.813  53.997  1.00  0.00    -0.302 N 
HETATM   29  C   UNL     1       5.791  26.036  52.889  1.00  0.00     0.248 C 
HETATM   30  O   UNL     1       5.881  26.481  51.745  1.00  0.00    -0.271 OA
HETATM   31  H   UNL     1       5.449  26.334  54.892  1.00  0.00     0.171 HD
BRANCH  29  32
HETATM   32  C   UNL     1       5.983  24.558  53.207  1.00  0.00     0.278 C 
BRANCH  32  33
HETATM   33  O   UNL     1       7.319  24.232  53.571  1.00  0.00    -0.342 OA
BRANCH  33  34
HETATM   34  C   UNL     1       7.562  22.922  53.890  1.00  0.00     0.069 A 
HETATM   35  C   UNL     1       7.921  21.918  52.988  1.00  0.00     0.037 A 
HETATM   36  C   UNL     1       8.166  20.619  53.444  1.00  0.00     0.003 A 
HETATM   37  C   UNL     1       8.054  20.318  54.800  1.00  0.00     0.000 A 
HETATM   38  C   UNL     1       7.706  21.319  55.704  1.00  0.00     0.003 A 
HETATM   39  C   UNL     1       7.470  22.618  55.250  1.00  0.00     0.037 A 
ENDBRANCH  33  34
ENDBRANCH  32  33
ENDBRANCH  29  32
ENDBRANCH  26  28
ENDBRANCH  24  26
ENDBRANCH   1  24
TORSDOF 8
ENDMDL
