MODEL 1
REMARK VINA RESULT:     -10.7      0.000      0.000
REMARK  8 active torsions:
REMARK  status: ('A' for Active; 'I' for Inactive)
REMARK    1  A    between atoms: C_2  and  S_3 
REMARK    2  A    between atoms: C_2  and  C_24 
REMARK    3  A    between atoms: S_3  and  C_4 
REMARK    4  A    between atoms: N_5  and  C_6 
REMARK    5  A    between atoms: C_13  and  C_14 
REMARK    6  A    between atoms: C_14  and  N_15 
REMARK       I    between atoms: C_24  and  N_25 
REMARK    7  A    between atoms: N_25  and  C_26 
REMARK    8  A    between atoms: C_29  and  C_30 
REMARK       I    between atoms: C_30  and  N_31 
ROOT
HETATM    1  C   UNL     1       7.556  28.039  57.135  1.00  0.00     0.197 A 
HETATM    2  N   UNL     1       6.761  27.290  56.286  1.00  0.00    -0.274 N 
HETATM    3  C   UNL     1       6.770  26.021  56.857  1.00  0.00     0.161 A 
HETATM    4  N   UNL     1       7.496  26.034  57.959  1.00  0.00    -0.132 NA
HETATM    5  N   UNL     1       7.952  27.303  58.149  1.00  0.00    -0.122 NA
ENDROOT
BRANCH   1   6
HETATM    6  S   UNL     1       7.760  29.757  57.089  1.00  0.00    -0.076 SA
BRANCH   6   7
HETATM    7  C   UNL     1       9.102  30.089  58.284  1.00  0.00     0.143 C 
HETATM    8  C   UNL     1      10.410  30.342  57.541  1.00  0.00     0.031 C 
BRANCH   7   9
HETATM    9  C   UNL     1       8.779  31.202  59.282  1.00  0.00     0.236 C 
HETATM   10  N   UNL     1       7.984  30.817  60.345  1.00  0.00    -0.326 N 
HETATM   11  H   UNL     1       7.986  29.825  60.560  1.00  0.00     0.169 HD
HETATM   12  O   UNL     1       9.287  32.315  59.140  1.00  0.00    -0.272 OA
BRANCH  10  13
HETATM   13  C   UNL     1       7.540  31.663  61.381  1.00  0.00     0.034 A 
HETATM   14  C   UNL     1       6.355  32.400  61.310  1.00  0.00     0.030 A 
HETATM   15  C   UNL     1       5.980  33.240  62.365  1.00  0.00     0.019 A 
HETATM   16  C   UNL     1       6.797  33.352  63.493  1.00  0.00     0.032 A 
HETATM   17  C   UNL     1       7.978  32.608  63.572  1.00  0.00     0.019 A 
HETATM   18  C   UNL     1       8.336  31.751  62.529  1.00  0.00     0.030 A 
BRANCH  16  19
HETATM   19  C   UNL     1       6.477  34.283  64.603  1.00  0.00     0.249 C 
HETATM   20  N   UNL     1       7.191  34.146  65.759  1.00  0.00    -0.366 N 
HETATM   21  H   UNL     1       8.049  33.613  65.806  1.00  0.00     0.159 HD
HETATM   22  H   UNL     1       7.048  34.858  66.466  1.00  0.00     0.159 HD
HETATM   23  O   UNL     1       5.621  35.149  64.475  1.00  0.00    -0.268 OA
ENDBRANCH  16  19
ENDBRANCH  10  13
ENDBRANCH   7   9
ENDBRANCH   6   7
ENDBRANCH   1   6
BRANCH   2  24
HETATM   24  C   UNL     1       6.093  27.691  55.104  1.00  0.00     0.043 A 
HETATM   25  C   UNL     1       4.725  27.998  55.141  1.00  0.00     0.033 A 
HETATM   26  C   UNL     1       4.069  28.380  53.968  1.00  0.00     0.044 A 
HETATM   27  C   UNL     1       4.775  28.450  52.775  1.00  0.00     0.116 A 
HETATM   28  F   UNL     1       4.142  28.811  51.651  1.00  0.00    -0.206 F 
HETATM   29  C   UNL     1       6.131  28.148  52.727  1.00  0.00     0.044 A 
HETATM   30  C   UNL     1       6.798  27.767  53.894  1.00  0.00     0.033 A 
ENDBRANCH   2  24
BRANCH   3  31
HETATM   31  C   UNL     1       6.211  24.782  56.251  1.00  0.00     0.315 C 
BRANCH  31  32
HETATM   32  N   UNL     1       7.144  24.189  55.197  1.00  0.00    -0.064 N 
HETATM   33  H   UNL     1       7.952  24.834  55.175  1.00  0.00     0.280 HD
HETATM   34  C   UNL     1       7.694  22.839  55.604  1.00  0.00     0.235 C 
HETATM   35  C   UNL     1       8.734  22.389  54.589  1.00  0.00     0.028 C 
HETATM   36  C   UNL     1       8.160  22.354  53.178  1.00  0.00     0.003 C 
HETATM   37  C   UNL     1       7.547  23.698  52.801  1.00  0.00     0.028 C 
HETATM   38  C   UNL     1       6.522  24.164  53.827  1.00  0.00     0.235 C 
ENDBRANCH  31  32
ENDBRANCH   3  31
TORSDOF 8
ENDMDL
MODEL 2
REMARK VINA RESULT:     -10.0      3.959      9.850
REMARK  8 active torsions:
REMARK  status: ('A' for Active; 'I' for Inactive)
REMARK    1  A    between atoms: C_2  and  S_3 
REMARK    2  A    between atoms: C_2  and  C_24 
REMARK    3  A    between atoms: S_3  and  C_4 
REMARK    4  A    between atoms: N_5  and  C_6 
REMARK    5  A    between atoms: C_13  and  C_14 
REMARK    6  A    between atoms: C_14  and  N_15 
REMARK       I    between atoms: C_24  and  N_25 
REMARK    7  A    between atoms: N_25  and  C_26 
REMARK    8  A    between atoms: C_29  and  C_30 
REMARK       I    between atoms: C_30  and  N_31 
ROOT
HETATM    1  C   UNL     1       5.983  28.257  57.236  1.00  0.00     0.197 A 
HETATM    2  N   UNL     1       6.231  29.582  57.547  1.00  0.00    -0.274 N 
HETATM    3  C   UNL     1       7.525  29.566  58.056  1.00  0.00     0.161 A 
HETATM    4  N   UNL     1       7.999  28.335  58.028  1.00  0.00    -0.132 NA
HETATM    5  N   UNL     1       7.049  27.529  57.480  1.00  0.00    -0.122 NA
ENDROOT
BRANCH   1   6
HETATM    6  S   UNL     1       4.618  27.654  56.359  1.00  0.00    -0.076 SA
BRANCH   6   7
HETATM    7  C   UNL     1       5.203  27.526  54.633  1.00  0.00     0.143 C 
HETATM    8  C   UNL     1       6.341  28.513  54.395  1.00  0.00     0.031 C 
BRANCH   7   9
HETATM    9  C   UNL     1       5.572  26.104  54.210  1.00  0.00     0.236 C 
HETATM   10  N   UNL     1       6.672  25.571  54.857  1.00  0.00    -0.326 N 
HETATM   11  H   UNL     1       6.901  25.989  55.753  1.00  0.00     0.169 HD
HETATM   12  O   UNL     1       4.857  25.501  53.409  1.00  0.00    -0.272 OA
BRANCH  10  13
HETATM   13  C   UNL     1       7.212  24.290  54.627  1.00  0.00     0.034 A 
HETATM   14  C   UNL     1       7.741  23.894  53.396  1.00  0.00     0.030 A 
HETATM   15  C   UNL     1       8.243  22.599  53.225  1.00  0.00     0.019 A 
HETATM   16  C   UNL     1       8.211  21.691  54.287  1.00  0.00     0.032 A 
HETATM   17  C   UNL     1       7.692  22.087  55.523  1.00  0.00     0.019 A 
HETATM   18  C   UNL     1       7.215  23.388  55.698  1.00  0.00     0.030 A 
BRANCH  16  19
HETATM   19  C   UNL     1       8.665  20.288  54.133  1.00  0.00     0.249 C 
HETATM   20  N   UNL     1       9.053  19.628  55.265  1.00  0.00    -0.366 N 
HETATM   21  H   UNL     1       8.831  19.966  56.191  1.00  0.00     0.159 HD
HETATM   22  H   UNL     1       9.249  18.639  55.166  1.00  0.00     0.159 HD
HETATM   23  O   UNL     1       8.672  19.742  53.037  1.00  0.00    -0.268 OA
ENDBRANCH  16  19
ENDBRANCH  10  13
ENDBRANCH   7   9
ENDBRANCH   6   7
ENDBRANCH   1   6
BRANCH   2  24
HETATM   24  C   UNL     1       5.383  30.707  57.401  1.00  0.00     0.043 A 
HETATM   25  C   UNL     1       4.460  31.026  58.408  1.00  0.00     0.033 A 
HETATM   26  C   UNL     1       3.618  32.128  58.251  1.00  0.00     0.044 A 
HETATM   27  C   UNL     1       3.698  32.900  57.099  1.00  0.00     0.116 A 
HETATM   28  F   UNL     1       2.886  33.953  56.949  1.00  0.00    -0.206 F 
HETATM   29  C   UNL     1       4.610  32.594  56.095  1.00  0.00     0.044 A 
HETATM   30  C   UNL     1       5.459  31.494  56.242  1.00  0.00     0.033 A 
ENDBRANCH   2  24
BRANCH   3  31
HETATM   31  C   UNL     1       8.227  30.707  58.707  1.00  0.00     0.315 C 
BRANCH  31  32
HETATM   32  N   UNL     1       7.902  30.804  60.196  1.00  0.00    -0.064 N 
HETATM   33  H   UNL     1       7.262  30.012  60.373  1.00  0.00     0.280 HD
HETATM   34  C   UNL     1       9.115  30.569  61.069  1.00  0.00     0.235 C 
HETATM   35  C   UNL     1       8.687  30.518  62.528  1.00  0.00     0.028 C 
HETATM   36  C   UNL     1       7.944  31.785  62.937  1.00  0.00     0.003 C 
HETATM   37  C   UNL     1       6.763  32.052  62.009  1.00  0.00     0.028 C 
HETATM   38  C   UNL     1       7.184  32.079  60.546  1.00  0.00     0.235 C 
ENDBRANCH  31  32
ENDBRANCH   3  31
TORSDOF 8
ENDMDL
MODEL 3
REMARK VINA RESULT:      -9.5      4.779      9.099
REMARK  8 active torsions:
REMARK  status: ('A' for Active; 'I' for Inactive)
REMARK    1  A    between atoms: C_2  and  S_3 
REMARK    2  A    between atoms: C_2  and  C_24 
REMARK    3  A    between atoms: S_3  and  C_4 
REMARK    4  A    between atoms: N_5  and  C_6 
REMARK    5  A    between atoms: C_13  and  C_14 
REMARK    6  A    between atoms: C_14  and  N_15 
REMARK       I    between atoms: C_24  and  N_25 
REMARK    7  A    between atoms: N_25  and  C_26 
REMARK    8  A    between atoms: C_29  and  C_30 
REMARK       I    between atoms: C_30  and  N_31 
ROOT
HETATM    1  C   UNL     1       5.372  28.804  56.137  1.00  0.00     0.197 A 
HETATM    2  N   UNL     1       6.623  28.238  56.305  1.00  0.00    -0.274 N 
HETATM    3  C   UNL     1       6.396  26.876  56.134  1.00  0.00     0.161 A 
HETATM    4  N   UNL     1       5.121  26.667  55.870  1.00  0.00    -0.132 NA
HETATM    5  N   UNL     1       4.493  27.875  55.834  1.00  0.00    -0.122 NA
ENDROOT
BRANCH   1   6
HETATM    6  S   UNL     1       5.026  30.496  56.013  1.00  0.00    -0.076 SA
BRANCH   6   7
HETATM    7  C   UNL     1       3.572  30.585  54.911  1.00  0.00     0.143 C 
HETATM    8  C   UNL     1       2.823  31.893  55.142  1.00  0.00     0.031 C 
BRANCH   7   9
HETATM    9  C   UNL     1       3.901  30.360  53.435  1.00  0.00     0.236 C 
HETATM   10  N   UNL     1       3.680  29.073  52.979  1.00  0.00    -0.326 N 
HETATM   11  H   UNL     1       3.019  28.522  53.518  1.00  0.00     0.169 HD
HETATM   12  O   UNL     1       4.254  31.311  52.736  1.00  0.00    -0.272 OA
BRANCH  10  13
HETATM   13  C   UNL     1       3.922  28.620  51.667  1.00  0.00     0.034 A 
HETATM   14  C   UNL     1       3.058  28.876  50.599  1.00  0.00     0.030 A 
HETATM   15  C   UNL     1       3.344  28.379  49.322  1.00  0.00     0.019 A 
HETATM   16  C   UNL     1       4.496  27.616  49.111  1.00  0.00     0.032 A 
HETATM   17  C   UNL     1       5.368  27.367  50.175  1.00  0.00     0.019 A 
HETATM   18  C   UNL     1       5.092  27.886  51.442  1.00  0.00     0.030 A 
BRANCH  16  19
HETATM   19  C   UNL     1       4.803  27.009  47.794  1.00  0.00     0.249 C 
HETATM   20  N   UNL     1       5.958  27.402  47.178  1.00  0.00    -0.366 N 
HETATM   21  H   UNL     1       6.694  27.891  47.670  1.00  0.00     0.159 HD
HETATM   22  H   UNL     1       6.217  26.897  46.339  1.00  0.00     0.159 HD
HETATM   23  O   UNL     1       4.059  26.176  47.292  1.00  0.00    -0.268 OA
ENDBRANCH  16  19
ENDBRANCH  10  13
ENDBRANCH   7   9
ENDBRANCH   6   7
ENDBRANCH   1   6
BRANCH   2  24
HETATM   24  C   UNL     1       7.857  28.870  56.593  1.00  0.00     0.043 A 
HETATM   25  C   UNL     1       8.801  29.066  55.574  1.00  0.00     0.033 A 
HETATM   26  C   UNL     1      10.021  29.677  55.868  1.00  0.00     0.044 A 
HETATM   27  C   UNL     1      10.293  30.086  57.167  1.00  0.00     0.116 A 
HETATM   28  F   UNL     1      11.465  30.667  57.447  1.00  0.00    -0.206 F 
HETATM   29  C   UNL     1       9.364  29.898  58.185  1.00  0.00     0.044 A 
HETATM   30  C   UNL     1       8.140  29.289  57.902  1.00  0.00     0.033 A 
ENDBRANCH   2  24
BRANCH   3  31
HETATM   31  C   UNL     1       7.378  25.785  56.382  1.00  0.00     0.315 C 
BRANCH  31  32
HETATM   32  N   UNL     1       7.796  25.088  55.089  1.00  0.00    -0.064 N 
HETATM   33  H   UNL     1       8.826  25.027  55.150  1.00  0.00     0.280 HD
HETATM   34  C   UNL     1       7.294  23.663  55.011  1.00  0.00     0.235 C 
HETATM   35  C   UNL     1       7.883  22.985  53.783  1.00  0.00     0.028 C 
HETATM   36  C   UNL     1       7.562  23.758  52.509  1.00  0.00     0.003 C 
HETATM   37  C   UNL     1       8.010  25.211  52.623  1.00  0.00     0.028 C 
HETATM   38  C   UNL     1       7.442  25.887  53.864  1.00  0.00     0.235 C 
ENDBRANCH  31  32
ENDBRANCH   3  31
TORSDOF 8
ENDMDL
MODEL 4
REMARK VINA RESULT:      -9.4      1.792      2.324
REMARK  8 active torsions:
REMARK  status: ('A' for Active; 'I' for Inactive)
REMARK    1  A    between atoms: C_2  and  S_3 
REMARK    2  A    between atoms: C_2  and  C_24 
REMARK    3  A    between atoms: S_3  and  C_4 
REMARK    4  A    between atoms: N_5  and  C_6 
REMARK    5  A    between atoms: C_13  and  C_14 
REMARK    6  A    between atoms: C_14  and  N_15 
REMARK       I    between atoms: C_24  and  N_25 
REMARK    7  A    between atoms: N_25  and  C_26 
REMARK    8  A    between atoms: C_29  and  C_30 
REMARK       I    between atoms: C_30  and  N_31 
ROOT
HETATM    1  C   UNL     1       7.212  29.014  57.701  1.00  0.00     0.197 A 
HETATM    2  N   UNL     1       6.213  28.579  56.848  1.00  0.00    -0.274 N 
HETATM    3  C   UNL     1       6.417  27.205  56.771  1.00  0.00     0.161 A 
HETATM    4  N   UNL     1       7.440  26.864  57.532  1.00  0.00    -0.132 NA
HETATM    5  N   UNL     1       7.908  27.989  58.140  1.00  0.00    -0.122 NA
ENDROOT
BRANCH   1   6
HETATM    6  S   UNL     1       7.360  30.602  58.372  1.00  0.00    -0.076 SA
BRANCH   6   7
HETATM    7  C   UNL     1       8.861  30.521  59.411  1.00  0.00     0.143 C 
HETATM    8  C   UNL     1       9.998  31.287  58.744  1.00  0.00     0.031 C 
BRANCH   7   9
HETATM    9  C   UNL     1       8.635  30.963  60.857  1.00  0.00     0.236 C 
HETATM   10  N   UNL     1       7.529  31.771  61.053  1.00  0.00    -0.326 N 
HETATM   11  H   UNL     1       6.805  31.705  60.345  1.00  0.00     0.169 HD
HETATM   12  O   UNL     1       9.368  30.533  61.748  1.00  0.00    -0.272 OA
BRANCH  10  13
HETATM   13  C   UNL     1       7.125  32.315  62.288  1.00  0.00     0.034 A 
HETATM   14  C   UNL     1       8.026  32.803  63.239  1.00  0.00     0.030 A 
HETATM   15  C   UNL     1       7.562  33.312  64.457  1.00  0.00     0.019 A 
HETATM   16  C   UNL     1       6.192  33.327  64.732  1.00  0.00     0.032 A 
HETATM   17  C   UNL     1       5.288  32.850  63.779  1.00  0.00     0.019 A 
HETATM   18  C   UNL     1       5.752  32.366  62.554  1.00  0.00     0.030 A 
BRANCH  16  19
HETATM   19  C   UNL     1       5.659  33.790  66.036  1.00  0.00     0.249 C 
HETATM   20  N   UNL     1       6.568  34.131  66.998  1.00  0.00    -0.366 N 
HETATM   21  H   UNL     1       7.543  34.295  66.787  1.00  0.00     0.159 HD
HETATM   22  H   UNL     1       6.198  34.555  67.840  1.00  0.00     0.159 HD
HETATM   23  O   UNL     1       4.454  33.880  66.231  1.00  0.00    -0.268 OA
ENDBRANCH  16  19
ENDBRANCH  10  13
ENDBRANCH   7   9
ENDBRANCH   6   7
ENDBRANCH   1   6
BRANCH   2  24
HETATM   24  C   UNL     1       5.213  29.333  56.187  1.00  0.00     0.043 A 
HETATM   25  C   UNL     1       5.355  29.647  54.827  1.00  0.00     0.033 A 
HETATM   26  C   UNL     1       4.372  30.403  54.185  1.00  0.00     0.044 A 
HETATM   27  C   UNL     1       3.262  30.840  54.897  1.00  0.00     0.116 A 
HETATM   28  F   UNL     1       2.324  31.568  54.281  1.00  0.00    -0.206 F 
HETATM   29  C   UNL     1       3.112  30.533  56.245  1.00  0.00     0.044 A 
HETATM   30  C   UNL     1       4.088  29.777  56.897  1.00  0.00     0.033 A 
ENDBRANCH   2  24
BRANCH   3  31
HETATM   31  C   UNL     1       5.726  26.265  55.848  1.00  0.00     0.315 C 
BRANCH  31  32
HETATM   32  N   UNL     1       6.701  25.582  54.891  1.00  0.00    -0.064 N 
HETATM   33  H   UNL     1       7.619  25.659  55.359  1.00  0.00     0.280 HD
HETATM   34  C   UNL     1       6.426  24.102  54.743  1.00  0.00     0.235 C 
HETATM   35  C   UNL     1       7.528  23.462  53.911  1.00  0.00     0.028 C 
HETATM   36  C   UNL     1       7.668  24.140  52.554  1.00  0.00     0.003 C 
HETATM   37  C   UNL     1       7.876  25.643  52.710  1.00  0.00     0.028 C 
HETATM   38  C   UNL     1       6.788  26.283  53.562  1.00  0.00     0.235 C 
ENDBRANCH  31  32
ENDBRANCH   3  31
TORSDOF 8
ENDMDL
MODEL 5
REMARK VINA RESULT:      -9.1      4.991      9.966
REMARK  8 active torsions:
REMARK  status: ('A' for Active; 'I' for Inactive)
REMARK    1  A    between atoms: C_2  and  S_3 
REMARK    2  A    between atoms: C_2  and  C_24 
REMARK    3  A    between atoms: S_3  and  C_4 
REMARK    4  A    between atoms: N_5  and  C_6 
REMARK    5  A    between atoms: C_13  and  C_14 
REMARK    6  A    between atoms: C_14  and  N_15 
REMARK       I    between atoms: C_24  and  N_25 
REMARK    7  A    between atoms: N_25  and  C_26 
REMARK    8  A    between atoms: C_29  and  C_30 
REMARK       I    between atoms: C_30  and  N_31 
ROOT
HETATM    1  C   UNL     1       5.009  29.149  53.300  1.00  0.00     0.197 A 
HETATM    2  N   UNL     1       4.841  29.042  54.669  1.00  0.00    -0.274 N 
HETATM    3  C   UNL     1       3.797  29.919  54.945  1.00  0.00     0.161 A 
HETATM    4  N   UNL     1       3.378  30.478  53.826  1.00  0.00    -0.132 NA
HETATM    5  N   UNL     1       4.110  29.966  52.798  1.00  0.00    -0.122 NA
ENDROOT
BRANCH   1   6
HETATM    6  S   UNL     1       6.013  28.142  52.314  1.00  0.00    -0.076 SA
BRANCH   6   7
HETATM    7  C   UNL     1       4.944  26.730  51.864  1.00  0.00     0.143 C 
HETATM    8  C   UNL     1       4.962  26.524  50.354  1.00  0.00     0.031 C 
BRANCH   7   9
HETATM    9  C   UNL     1       5.264  25.445  52.628  1.00  0.00     0.236 C 
HETATM   10  N   UNL     1       6.611  25.207  52.828  1.00  0.00    -0.326 N 
HETATM   11  H   UNL     1       7.213  26.023  52.784  1.00  0.00     0.169 HD
HETATM   12  O   UNL     1       4.345  24.758  53.077  1.00  0.00    -0.272 OA
BRANCH  10  13
HETATM   13  C   UNL     1       7.152  24.086  53.488  1.00  0.00     0.034 A 
HETATM   14  C   UNL     1       7.538  22.920  52.822  1.00  0.00     0.030 A 
HETATM   15  C   UNL     1       8.050  21.832  53.537  1.00  0.00     0.019 A 
HETATM   16  C   UNL     1       8.170  21.904  54.928  1.00  0.00     0.032 A 
HETATM   17  C   UNL     1       7.795  23.073  55.597  1.00  0.00     0.019 A 
HETATM   18  C   UNL     1       7.309  24.167  54.877  1.00  0.00     0.030 A 
BRANCH  16  19
HETATM   19  C   UNL     1       8.638  20.752  55.735  1.00  0.00     0.249 C 
HETATM   20  N   UNL     1       9.084  19.653  55.057  1.00  0.00    -0.366 N 
HETATM   21  H   UNL     1       9.316  19.681  54.074  1.00  0.00     0.159 HD
HETATM   22  H   UNL     1       9.510  18.921  55.613  1.00  0.00     0.159 HD
HETATM   23  O   UNL     1       8.642  20.797  56.959  1.00  0.00    -0.268 OA
ENDBRANCH  16  19
ENDBRANCH  10  13
ENDBRANCH   7   9
ENDBRANCH   6   7
ENDBRANCH   1   6
BRANCH   2  24
HETATM   24  C   UNL     1       5.555  28.244  55.596  1.00  0.00     0.043 A 
HETATM   25  C   UNL     1       5.001  27.043  56.062  1.00  0.00     0.033 A 
HETATM   26  C   UNL     1       5.705  26.268  56.986  1.00  0.00     0.044 A 
HETATM   27  C   UNL     1       6.947  26.693  57.439  1.00  0.00     0.116 A 
HETATM   28  F   UNL     1       7.617  25.951  58.329  1.00  0.00    -0.206 F 
HETATM   29  C   UNL     1       7.506  27.882  56.984  1.00  0.00     0.044 A 
HETATM   30  C   UNL     1       6.811  28.664  56.058  1.00  0.00     0.033 A 
ENDBRANCH   2  24
BRANCH   3  31
HETATM   31  C   UNL     1       3.324  30.323  56.297  1.00  0.00     0.315 C 
BRANCH  31  32
HETATM   32  N   UNL     1       4.130  31.491  56.860  1.00  0.00    -0.064 N 
HETATM   33  H   UNL     1       4.990  31.512  56.287  1.00  0.00     0.280 HD
HETATM   34  C   UNL     1       3.447  32.824  56.643  1.00  0.00     0.235 C 
HETATM   35  C   UNL     1       4.377  33.947  57.079  1.00  0.00     0.028 C 
HETATM   36  C   UNL     1       4.818  33.776  58.528  1.00  0.00     0.003 C 
HETATM   37  C   UNL     1       5.443  32.404  58.754  1.00  0.00     0.028 C 
HETATM   38  C   UNL     1       4.525  31.278  58.297  1.00  0.00     0.235 C 
ENDBRANCH  31  32
ENDBRANCH   3  31
TORSDOF 8
ENDMDL
MODEL 6
REMARK VINA RESULT:      -9.0      5.760     10.607
REMARK  8 active torsions:
REMARK  status: ('A' for Active; 'I' for Inactive)
REMARK    1  A    between atoms: C_2  and  S_3 
REMARK    2  A    between atoms: C_2  and  C_24 
REMARK    3  A    between atoms: S_3  and  C_4 
REMARK    4  A    between atoms: N_5  and  C_6 
REMARK    5  A    between atoms: C_13  and  C_14 
REMARK    6  A    between atoms: C_14  and  N_15 
REMARK       I    between atoms: C_24  and  N_25 
REMARK    7  A    between atoms: N_25  and  C_26 
REMARK    8  A    between atoms: C_29  and  C_30 
REMARK       I    between atoms: C_30  and  N_31 
ROOT
HETATM    1  C   UNL     1       5.138  26.704  53.809  1.00  0.00     0.197 A 
HETATM    2  N   UNL     1       6.399  26.496  54.339  1.00  0.00    -0.274 N 
HETATM    3  C   UNL     1       6.790  25.277  53.796  1.00  0.00     0.161 A 
HETATM    4  N   UNL     1       5.842  24.820  52.999  1.00  0.00    -0.132 NA
HETATM    5  N   UNL     1       4.831  25.732  52.980  1.00  0.00    -0.122 NA
ENDROOT
BRANCH   1   6
HETATM    6  S   UNL     1       4.208  28.159  53.931  1.00  0.00    -0.076 SA
BRANCH   6   7
HETATM    7  C   UNL     1       4.402  28.964  52.303  1.00  0.00     0.143 C 
HETATM    8  C   UNL     1       5.724  28.544  51.669  1.00  0.00     0.031 C 
BRANCH   7   9
HETATM    9  C   UNL     1       3.216  28.751  51.363  1.00  0.00     0.236 C 
HETATM   10  N   UNL     1       3.553  28.548  50.037  1.00  0.00    -0.326 N 
HETATM   11  H   UNL     1       4.495  28.212  49.869  1.00  0.00     0.169 HD
HETATM   12  O   UNL     1       2.075  28.693  51.824  1.00  0.00    -0.272 OA
BRANCH  10  13
HETATM   13  C   UNL     1       2.638  28.345  48.985  1.00  0.00     0.034 A 
HETATM   14  C   UNL     1       2.401  27.094  48.410  1.00  0.00     0.030 A 
HETATM   15  C   UNL     1       1.494  26.961  47.352  1.00  0.00     0.019 A 
HETATM   16  C   UNL     1       0.825  28.085  46.860  1.00  0.00     0.032 A 
HETATM   17  C   UNL     1       1.051  29.337  47.441  1.00  0.00     0.019 A 
HETATM   18  C   UNL     1       1.937  29.461  48.513  1.00  0.00     0.030 A 
BRANCH  16  19
HETATM   19  C   UNL     1      -0.089  28.006  45.695  1.00  0.00     0.249 C 
HETATM   20  N   UNL     1      -0.306  29.156  44.991  1.00  0.00    -0.366 N 
HETATM   21  H   UNL     1       0.287  29.969  45.086  1.00  0.00     0.159 HD
HETATM   22  H   UNL     1      -0.837  29.067  44.132  1.00  0.00     0.159 HD
HETATM   23  O   UNL     1      -0.611  26.947  45.372  1.00  0.00    -0.268 OA
ENDBRANCH  16  19
ENDBRANCH  10  13
ENDBRANCH   7   9
ENDBRANCH   6   7
ENDBRANCH   1   6
BRANCH   2  24
HETATM   24  C   UNL     1       7.137  27.310  55.233  1.00  0.00     0.043 A 
HETATM   25  C   UNL     1       7.959  28.332  54.737  1.00  0.00     0.033 A 
HETATM   26  C   UNL     1       8.694  29.121  55.624  1.00  0.00     0.044 A 
HETATM   27  C   UNL     1       8.607  28.888  56.990  1.00  0.00     0.116 A 
HETATM   28  F   UNL     1       9.317  29.643  57.837  1.00  0.00    -0.206 F 
HETATM   29  C   UNL     1       7.795  27.878  57.493  1.00  0.00     0.044 A 
HETATM   30  C   UNL     1       7.054  27.083  56.615  1.00  0.00     0.033 A 
ENDBRANCH   2  24
BRANCH   3  31
HETATM   31  C   UNL     1       7.999  24.495  54.172  1.00  0.00     0.315 C 
BRANCH  31  32
HETATM   32  N   UNL     1       7.708  22.999  54.263  1.00  0.00    -0.064 N 
HETATM   33  H   UNL     1       6.683  22.928  54.149  1.00  0.00     0.280 HD
HETATM   34  C   UNL     1       8.314  22.220  53.116  1.00  0.00     0.235 C 
HETATM   35  C   UNL     1       7.849  20.773  53.183  1.00  0.00     0.028 C 
HETATM   36  C   UNL     1       8.187  20.139  54.527  1.00  0.00     0.003 C 
HETATM   37  C   UNL     1       7.631  20.967  55.680  1.00  0.00     0.028 C 
HETATM   38  C   UNL     1       8.076  22.421  55.603  1.00  0.00     0.235 C 
ENDBRANCH  31  32
ENDBRANCH   3  31
TORSDOF 8
ENDMDL
MODEL 7
REMARK VINA RESULT:      -9.0      4.281     10.877
REMARK  8 active torsions:
REMARK  status: ('A' for Active; 'I' for Inactive)
REMARK    1  A    between atoms: C_2  and  S_3 
REMARK    2  A    between atoms: C_2  and  C_24 
REMARK    3  A    between atoms: S_3  and  C_4 
REMARK    4  A    between atoms: N_5  and  C_6 
REMARK    5  A    between atoms: C_13  and  C_14 
REMARK    6  A    between atoms: C_14  and  N_15 
REMARK       I    between atoms: C_24  and  N_25 
REMARK    7  A    between atoms: N_25  and  C_26 
REMARK    8  A    between atoms: C_29  and  C_30 
REMARK       I    between atoms: C_30  and  N_31 
ROOT
HETATM    1  C   UNL     1       5.874  30.124  57.561  1.00  0.00     0.197 A 
HETATM    2  N   UNL     1       6.165  31.224  58.348  1.00  0.00    -0.274 N 
HETATM    3  C   UNL     1       5.104  32.092  58.108  1.00  0.00     0.161 A 
HETATM    4  N   UNL     1       4.256  31.535  57.265  1.00  0.00    -0.132 NA
HETATM    5  N   UNL     1       4.720  30.293  56.956  1.00  0.00    -0.122 NA
ENDROOT
BRANCH   1   6
HETATM    6  S   UNL     1       6.704  28.605  57.585  1.00  0.00    -0.076 SA
BRANCH   6   7
HETATM    7  C   UNL     1       6.465  27.927  55.905  1.00  0.00     0.143 C 
HETATM    8  C   UNL     1       7.471  28.550  54.944  1.00  0.00     0.031 C 
BRANCH   7   9
HETATM    9  C   UNL     1       6.480  26.399  55.848  1.00  0.00     0.236 C 
HETATM   10  N   UNL     1       7.569  25.852  55.194  1.00  0.00    -0.326 N 
HETATM   11  H   UNL     1       8.391  26.444  55.136  1.00  0.00     0.169 HD
HETATM   12  O   UNL     1       5.605  25.758  56.431  1.00  0.00    -0.272 OA
BRANCH  10  13
HETATM   13  C   UNL     1       7.796  24.475  55.000  1.00  0.00     0.034 A 
HETATM   14  C   UNL     1       8.109  23.598  56.042  1.00  0.00     0.030 A 
HETATM   15  C   UNL     1       8.345  22.243  55.781  1.00  0.00     0.019 A 
HETATM   16  C   UNL     1       8.275  21.762  54.471  1.00  0.00     0.032 A 
HETATM   17  C   UNL     1       7.951  22.634  53.427  1.00  0.00     0.019 A 
HETATM   18  C   UNL     1       7.691  23.980  53.695  1.00  0.00     0.030 A 
BRANCH  16  19
HETATM   19  C   UNL     1       8.586  20.351  54.136  1.00  0.00     0.249 C 
HETATM   20  N   UNL     1       9.045  19.556  55.147  1.00  0.00    -0.366 N 
HETATM   21  H   UNL     1       8.963  19.815  56.121  1.00  0.00     0.159 HD
HETATM   22  H   UNL     1       9.143  18.569  54.937  1.00  0.00     0.159 HD
HETATM   23  O   UNL     1       8.418  19.918  53.003  1.00  0.00    -0.268 OA
ENDBRANCH  16  19
ENDBRANCH  10  13
ENDBRANCH   7   9
ENDBRANCH   6   7
ENDBRANCH   1   6
BRANCH   2  24
HETATM   24  C   UNL     1       7.276  31.445  59.197  1.00  0.00     0.043 A 
HETATM   25  C   UNL     1       8.567  31.533  58.656  1.00  0.00     0.033 A 
HETATM   26  C   UNL     1       9.659  31.738  59.501  1.00  0.00     0.044 A 
HETATM   27  C   UNL     1       9.461  31.851  60.871  1.00  0.00     0.116 A 
HETATM   28  F   UNL     1      10.510  32.042  61.679  1.00  0.00    -0.206 F 
HETATM   29  C   UNL     1       8.185  31.767  61.418  1.00  0.00     0.044 A 
HETATM   30  C   UNL     1       7.085  31.564  60.582  1.00  0.00     0.033 A 
ENDBRANCH   2  24
BRANCH   3  31
HETATM   31  C   UNL     1       5.002  33.502  58.572  1.00  0.00     0.315 C 
BRANCH  31  32
HETATM   32  N   UNL     1       4.119  33.635  59.811  1.00  0.00    -0.064 N 
HETATM   33  H   UNL     1       3.919  32.660  60.091  1.00  0.00     0.280 HD
HETATM   34  C   UNL     1       4.848  34.268  60.976  1.00  0.00     0.235 C 
HETATM   35  C   UNL     1       3.965  34.218  62.214  1.00  0.00     0.028 C 
HETATM   36  C   UNL     1       2.619  34.889  61.968  1.00  0.00     0.003 C 
HETATM   37  C   UNL     1       1.922  34.292  60.751  1.00  0.00     0.028 C 
HETATM   38  C   UNL     1       2.812  34.319  59.515  1.00  0.00     0.235 C 
ENDBRANCH  31  32
ENDBRANCH   3  31
TORSDOF 8
ENDMDL
MODEL 8
REMARK VINA RESULT:      -8.9      2.243      4.319
REMARK  8 active torsions:
REMARK  status: ('A' for Active; 'I' for Inactive)
REMARK    1  A    between atoms: C_2  and  S_3 
REMARK    2  A    between atoms: C_2  and  C_24 
REMARK    3  A    between atoms: S_3  and  C_4 
REMARK    4  A    between atoms: N_5  and  C_6 
REMARK    5  A    between atoms: C_13  and  C_14 
REMARK    6  A    between atoms: C_14  and  N_15 
REMARK       I    between atoms: C_24  and  N_25 
REMARK    7  A    between atoms: N_25  and  C_26 
REMARK    8  A    between atoms: C_29  and  C_30 
REMARK       I    between atoms: C_30  and  N_31 
ROOT
HETATM    1  C   UNL     1       6.581  28.525  56.788  1.00  0.00     0.197 A 
HETATM    2  N   UNL     1       6.130  28.118  55.544  1.00  0.00    -0.274 N 
HETATM    3  C   UNL     1       5.192  29.085  55.199  1.00  0.00     0.161 A 
HETATM    4  N   UNL     1       5.115  29.992  56.155  1.00  0.00    -0.132 NA
HETATM    5  N   UNL     1       6.011  29.660  57.125  1.00  0.00    -0.122 NA
ENDROOT
BRANCH   1   6
HETATM    6  S   UNL     1       7.921  27.856  57.656  1.00  0.00    -0.076 SA
BRANCH   6   7
HETATM    7  C   UNL     1       9.223  29.132  57.540  1.00  0.00     0.143 C 
HETATM    8  C   UNL     1       9.383  29.583  56.093  1.00  0.00     0.031 C 
BRANCH   7   9
HETATM    9  C   UNL     1       9.021  30.309  58.494  1.00  0.00     0.236 C 
HETATM   10  N   UNL     1       8.185  30.054  59.566  1.00  0.00    -0.326 N 
HETATM   11  H   UNL     1       8.079  29.076  59.817  1.00  0.00     0.169 HD
HETATM   12  O   UNL     1       9.647  31.355  58.315  1.00  0.00    -0.272 OA
BRANCH  10  13
HETATM   13  C   UNL     1       7.834  30.981  60.566  1.00  0.00     0.034 A 
HETATM   14  C   UNL     1       6.865  31.971  60.383  1.00  0.00     0.030 A 
HETATM   15  C   UNL     1       6.576  32.878  61.410  1.00  0.00     0.019 A 
HETATM   16  C   UNL     1       7.264  32.800  62.625  1.00  0.00     0.032 A 
HETATM   17  C   UNL     1       8.226  31.804  62.815  1.00  0.00     0.019 A 
HETATM   18  C   UNL     1       8.493  30.885  61.797  1.00  0.00     0.030 A 
BRANCH  16  19
HETATM   19  C   UNL     1       7.043  33.781  63.714  1.00  0.00     0.249 C 
HETATM   20  N   UNL     1       6.203  34.827  63.454  1.00  0.00    -0.366 N 
HETATM   21  H   UNL     1       5.572  34.830  62.664  1.00  0.00     0.159 HD
HETATM   22  H   UNL     1       5.968  35.423  64.238  1.00  0.00     0.159 HD
HETATM   23  O   UNL     1       7.580  33.645  64.806  1.00  0.00    -0.268 OA
ENDBRANCH  16  19
ENDBRANCH  10  13
ENDBRANCH   7   9
ENDBRANCH   6   7
ENDBRANCH   1   6
BRANCH   2  24
HETATM   24  C   UNL     1       6.509  26.984  54.785  1.00  0.00     0.043 A 
HETATM   25  C   UNL     1       5.956  25.729  55.074  1.00  0.00     0.033 A 
HETATM   26  C   UNL     1       6.344  24.613  54.330  1.00  0.00     0.044 A 
HETATM   27  C   UNL     1       7.277  24.753  53.311  1.00  0.00     0.116 A 
HETATM   28  F   UNL     1       7.652  23.681  52.603  1.00  0.00    -0.206 F 
HETATM   29  C   UNL     1       7.832  25.994  53.015  1.00  0.00     0.044 A 
HETATM   30  C   UNL     1       7.449  27.117  53.752  1.00  0.00     0.033 A 
ENDBRANCH   2  24
BRANCH   3  31
HETATM   31  C   UNL     1       4.272  29.038  54.030  1.00  0.00     0.315 C 
BRANCH  31  32
HETATM   32  N   UNL     1       4.771  29.903  52.875  1.00  0.00    -0.064 N 
HETATM   33  H   UNL     1       5.700  30.235  53.183  1.00  0.00     0.280 HD
HETATM   34  C   UNL     1       5.007  29.104  51.612  1.00  0.00     0.235 C 
HETATM   35  C   UNL     1       5.653  29.994  50.561  1.00  0.00     0.028 C 
HETATM   36  C   UNL     1       4.812  31.235  50.286  1.00  0.00     0.003 C 
HETATM   37  C   UNL     1       4.522  31.998  51.573  1.00  0.00     0.028 C 
HETATM   38  C   UNL     1       3.896  31.104  52.636  1.00  0.00     0.235 C 
ENDBRANCH  31  32
ENDBRANCH   3  31
TORSDOF 8
ENDMDL
MODEL 9
REMARK VINA RESULT:      -8.8      4.325     10.174
REMARK  8 active torsions:
REMARK  status: ('A' for Active; 'I' for Inactive)
REMARK    1  A    between atoms: C_2  and  S_3 
REMARK    2  A    between atoms: C_2  and  C_24 
REMARK    3  A    between atoms: S_3  and  C_4 
REMARK    4  A    between atoms: N_5  and  C_6 
REMARK    5  A    between atoms: C_13  and  C_14 
REMARK    6  A    between atoms: C_14  and  N_15 
REMARK       I    between atoms: C_24  and  N_25 
REMARK    7  A    between atoms: N_25  and  C_26 
REMARK    8  A    between atoms: C_29  and  C_30 
REMARK       I    between atoms: C_30  and  N_31 
ROOT
HETATM    1  C   UNL     1       6.674  27.668  57.256  1.00  0.00     0.197 A 
HETATM    2  N   UNL     1       6.409  29.025  57.317  1.00  0.00    -0.274 N 
HETATM    3  C   UNL     1       7.491  29.543  58.021  1.00  0.00     0.161 A 
HETATM    4  N   UNL     1       8.328  28.571  58.329  1.00  0.00    -0.132 NA
HETATM    5  N   UNL     1       7.834  27.410  57.816  1.00  0.00    -0.122 NA
ENDROOT
BRANCH   1   6
HETATM    6  S   UNL     1       5.808  26.501  56.317  1.00  0.00    -0.076 SA
BRANCH   6   7
HETATM    7  C   UNL     1       6.589  26.571  54.667  1.00  0.00     0.143 C 
HETATM    8  C   UNL     1       7.340  25.272  54.391  1.00  0.00     0.031 C 
BRANCH   7   9
HETATM    9  C   UNL     1       5.622  26.930  53.539  1.00  0.00     0.236 C 
HETATM   10  N   UNL     1       6.169  26.899  52.270  1.00  0.00    -0.326 N 
HETATM   11  H   UNL     1       6.999  26.325  52.163  1.00  0.00     0.169 HD
HETATM   12  O   UNL     1       4.436  27.142  53.798  1.00  0.00    -0.272 OA
BRANCH  10  13
HETATM   13  C   UNL     1       5.483  27.206  51.078  1.00  0.00     0.034 A 
HETATM   14  C   UNL     1       5.296  28.512  50.620  1.00  0.00     0.030 A 
HETATM   15  C   UNL     1       4.586  28.753  49.437  1.00  0.00     0.019 A 
HETATM   16  C   UNL     1       4.054  27.683  48.712  1.00  0.00     0.032 A 
HETATM   17  C   UNL     1       4.249  26.374  49.162  1.00  0.00     0.019 A 
HETATM   18  C   UNL     1       4.979  26.136  50.328  1.00  0.00     0.030 A 
BRANCH  16  19
HETATM   19  C   UNL     1       3.235  27.893  47.494  1.00  0.00     0.249 C 
HETATM   20  N   UNL     1       3.155  29.167  47.005  1.00  0.00    -0.366 N 
HETATM   21  H   UNL     1       3.792  29.897  47.292  1.00  0.00     0.159 HD
HETATM   22  H   UNL     1       2.692  29.279  46.111  1.00  0.00     0.159 HD
HETATM   23  O   UNL     1       2.671  26.957  46.942  1.00  0.00    -0.268 OA
ENDBRANCH  16  19
ENDBRANCH  10  13
ENDBRANCH   7   9
ENDBRANCH   6   7
ENDBRANCH   1   6
BRANCH   2  24
HETATM   24  C   UNL     1       5.301  29.742  56.804  1.00  0.00     0.043 A 
HETATM   25  C   UNL     1       4.231  30.078  57.646  1.00  0.00     0.033 A 
HETATM   26  C   UNL     1       3.135  30.773  57.129  1.00  0.00     0.044 A 
HETATM   27  C   UNL     1       3.112  31.124  55.786  1.00  0.00     0.116 A 
HETATM   28  F   UNL     1       2.058  31.785  55.292  1.00  0.00    -0.206 F 
HETATM   29  C   UNL     1       4.167  30.796  54.942  1.00  0.00     0.044 A 
HETATM   30  C   UNL     1       5.269  30.103  55.449  1.00  0.00     0.033 A 
ENDBRANCH   2  24
BRANCH   3  31
HETATM   31  C   UNL     1       7.626  30.938  58.522  1.00  0.00     0.315 C 
BRANCH  31  32
HETATM   32  N   UNL     1       7.541  31.009  60.045  1.00  0.00    -0.064 N 
HETATM   33  H   UNL     1       7.053  30.140  60.318  1.00  0.00     0.280 HD
HETATM   34  C   UNL     1       8.902  30.953  60.704  1.00  0.00     0.235 C 
HETATM   35  C   UNL     1       8.732  30.864  62.213  1.00  0.00     0.028 C 
HETATM   36  C   UNL     1       7.901  32.022  62.751  1.00  0.00     0.003 C 
HETATM   37  C   UNL     1       6.558  32.114  62.034  1.00  0.00     0.028 C 
HETATM   38  C   UNL     1       6.724  32.180  60.522  1.00  0.00     0.235 C 
ENDBRANCH  31  32
ENDBRANCH   3  31
TORSDOF 8
ENDMDL
MODEL 10
REMARK VINA RESULT:      -8.7      2.713      4.005
REMARK  8 active torsions:
REMARK  status: ('A' for Active; 'I' for Inactive)
REMARK    1  A    between atoms: C_2  and  S_3 
REMARK    2  A    between atoms: C_2  and  C_24 
REMARK    3  A    between atoms: S_3  and  C_4 
REMARK    4  A    between atoms: N_5  and  C_6 
REMARK    5  A    between atoms: C_13  and  C_14 
REMARK    6  A    between atoms: C_14  and  N_15 
REMARK       I    between atoms: C_24  and  N_25 
REMARK    7  A    between atoms: N_25  and  C_26 
REMARK    8  A    between atoms: C_29  and  C_30 
REMARK       I    between atoms: C_30  and  N_31 
ROOT
HETATM    1  C   UNL     1       4.715  28.295  54.888  1.00  0.00     0.197 A 
HETATM    2  N   UNL     1       6.057  27.964  54.820  1.00  0.00    -0.274 N 
HETATM    3  C   UNL     1       6.141  27.150  53.696  1.00  0.00     0.161 A 
HETATM    4  N   UNL     1       4.949  27.030  53.143  1.00  0.00    -0.132 NA
HETATM    5  N   UNL     1       4.070  27.777  53.868  1.00  0.00    -0.122 NA
ENDROOT
BRANCH   1   6
HETATM    6  S   UNL     1       4.006  29.468  55.946  1.00  0.00    -0.076 SA
BRANCH   6   7
HETATM    7  C   UNL     1       4.800  31.045  55.476  1.00  0.00     0.143 C 
HETATM    8  C   UNL     1       3.902  31.812  54.510  1.00  0.00     0.031 C 
BRANCH   7   9
HETATM    9  C   UNL     1       5.230  31.900  56.668  1.00  0.00     0.236 C 
HETATM   10  N   UNL     1       5.589  31.185  57.796  1.00  0.00    -0.326 N 
HETATM   11  H   UNL     1       5.874  30.224  57.637  1.00  0.00     0.169 HD
HETATM   12  O   UNL     1       5.309  33.123  56.546  1.00  0.00    -0.272 OA
BRANCH  10  13
HETATM   13  C   UNL     1       6.004  31.748  59.020  1.00  0.00     0.034 A 
HETATM   14  C   UNL     1       7.332  31.736  59.454  1.00  0.00     0.030 A 
HETATM   15  C   UNL     1       7.678  32.293  60.691  1.00  0.00     0.019 A 
HETATM   16  C   UNL     1       6.691  32.858  61.503  1.00  0.00     0.032 A 
HETATM   17  C   UNL     1       5.363  32.881  61.066  1.00  0.00     0.019 A 
HETATM   18  C   UNL     1       5.026  32.348  59.820  1.00  0.00     0.030 A 
BRANCH  16  19
HETATM   19  C   UNL     1       6.997  33.395  62.850  1.00  0.00     0.249 C 
HETATM   20  N   UNL     1       8.022  32.810  63.539  1.00  0.00    -0.366 N 
HETATM   21  H   UNL     1       8.699  32.208  63.092  1.00  0.00     0.159 HD
HETATM   22  H   UNL     1       8.298  33.258  64.405  1.00  0.00     0.159 HD
HETATM   23  O   UNL     1       6.367  34.337  63.314  1.00  0.00    -0.268 OA
ENDBRANCH  16  19
ENDBRANCH  10  13
ENDBRANCH   7   9
ENDBRANCH   6   7
ENDBRANCH   1   6
BRANCH   2  24
HETATM   24  C   UNL     1       7.114  28.343  55.683  1.00  0.00     0.043 A 
HETATM   25  C   UNL     1       7.051  28.033  57.049  1.00  0.00     0.033 A 
HETATM   26  C   UNL     1       8.090  28.422  57.897  1.00  0.00     0.044 A 
HETATM   27  C   UNL     1       9.178  29.114  57.381  1.00  0.00     0.116 A 
HETATM   28  F   UNL     1      10.171  29.490  58.197  1.00  0.00    -0.206 F 
HETATM   29  C   UNL     1       9.252  29.425  56.028  1.00  0.00     0.044 A 
HETATM   30  C   UNL     1       8.219  29.040  55.171  1.00  0.00     0.033 A 
ENDBRANCH   2  24
BRANCH   3  31
HETATM   31  C   UNL     1       7.334  26.374  53.261  1.00  0.00     0.315 C 
BRANCH  31  32
HETATM   32  N   UNL     1       7.221  24.896  53.631  1.00  0.00    -0.064 N 
HETATM   33  H   UNL     1       6.222  24.671  53.494  1.00  0.00     0.280 HD
HETATM   34  C   UNL     1       7.988  24.002  52.681  1.00  0.00     0.235 C 
HETATM   35  C   UNL     1       7.698  22.545  53.011  1.00  0.00     0.028 C 
HETATM   36  C   UNL     1       8.026  22.225  54.465  1.00  0.00     0.003 C 
HETATM   37  C   UNL     1       7.302  23.175  55.412  1.00  0.00     0.028 C 
HETATM   38  C   UNL     1       7.571  24.634  55.071  1.00  0.00     0.235 C 
ENDBRANCH  31  32
ENDBRANCH   3  31
TORSDOF 8
ENDMDL
