MODEL 1
REMARK VINA RESULT:      -7.0      0.000      0.000
REMARK  2 active torsions:
REMARK  status: ('A' for Active; 'I' for Inactive)
REMARK    1  A    between atoms: N_6  and  C_7 
REMARK    2  A    between atoms: C_11  and  N_12 
ROOT
HETATM    1  C   UNL     1       7.163  24.583  54.315  1.00  0.00     0.070 A 
HETATM    2  C   UNL     1       7.393  24.409  55.698  1.00  0.00     0.145 A 
HETATM    3  F   UNL     1       7.258  25.444  56.542  1.00  0.00    -0.204 F 
HETATM    4  C   UNL     1       7.810  23.197  56.245  1.00  0.00     0.082 A 
HETATM    5  C   UNL     1       8.008  22.112  55.394  1.00  0.00     0.123 A 
HETATM    6  C   UNL     1       7.790  22.217  54.024  1.00  0.00     0.046 A 
HETATM    7 BR   UNL     1       8.003  20.771  52.816  1.00  0.00    -0.048 Br
HETATM    8  C   UNL     1       7.365  23.448  53.501  1.00  0.00     0.054 A 
ENDROOT
BRANCH   1   9
HETATM    9  N   UNL     1       6.709  25.772  53.739  1.00  0.00    -0.375 N 
HETATM   10  C   UNL     1       7.682  26.856  53.485  1.00  0.00     0.150 C 
HETATM   11  C   UNL     1       7.623  27.923  54.602  1.00  0.00     0.254 C 
HETATM   12  N   UNL     1       6.194  28.438  54.784  1.00  0.00    -0.072 N 
HETATM   13  C   UNL     1       6.111  29.508  55.829  1.00  0.00     0.269 C 
HETATM   14  H   UNL     1       5.905  28.854  53.890  1.00  0.00     0.279 HD
HETATM   15  C   UNL     1       5.230  27.280  55.069  1.00  0.00     0.254 C 
HETATM   16  C   UNL     1       5.319  26.230  53.943  1.00  0.00     0.150 C 
ENDBRANCH   1   9
BRANCH   5  17
HETATM   17  N   UNL     1       8.460  20.876  55.984  1.00  0.00    -0.114 N 
HETATM   18  O   UNL     1       7.593  20.145  56.474  1.00  0.00    -0.532 OA
HETATM   19  O   UNL     1       9.682  20.683  56.002  1.00  0.00    -0.532 OA
ENDBRANCH   5  17
TORSDOF 2
ENDMDL
MODEL 2
REMARK VINA RESULT:      -6.8      5.191      6.810
REMARK  2 active torsions:
REMARK  status: ('A' for Active; 'I' for Inactive)
REMARK    1  A    between atoms: N_6  and  C_7 
REMARK    2  A    between atoms: C_11  and  N_12 
ROOT
HETATM    1  C   UNL     1       7.066  28.411  56.664  1.00  0.00     0.070 A 
HETATM    2  C   UNL     1       8.076  28.558  55.688  1.00  0.00     0.145 A 
HETATM    3  F   UNL     1       7.943  27.980  54.484  1.00  0.00    -0.204 F 
HETATM    4  C   UNL     1       9.259  29.253  55.928  1.00  0.00     0.082 A 
HETATM    5  C   UNL     1       9.455  29.825  57.183  1.00  0.00     0.123 A 
HETATM    6  C   UNL     1       8.496  29.724  58.183  1.00  0.00     0.046 A 
HETATM    7 BR   UNL     1       8.681  30.512  59.898  1.00  0.00    -0.048 Br
HETATM    8  C   UNL     1       7.309  29.023  57.912  1.00  0.00     0.054 A 
ENDROOT
BRANCH   1   9
HETATM    9  N   UNL     1       5.852  27.755  56.445  1.00  0.00    -0.375 N 
HETATM   10  C   UNL     1       5.794  26.288  56.627  1.00  0.00     0.150 C 
HETATM   11  C   UNL     1       5.898  25.558  55.268  1.00  0.00     0.254 C 
HETATM   12  N   UNL     1       4.840  26.078  54.293  1.00  0.00    -0.072 N 
HETATM   13  C   UNL     1       4.883  25.359  52.980  1.00  0.00     0.269 C 
HETATM   14  H   UNL     1       3.920  25.897  54.716  1.00  0.00     0.279 HD
HETATM   15  C   UNL     1       4.957  27.597  54.119  1.00  0.00     0.254 C 
HETATM   16  C   UNL     1       4.860  28.295  55.492  1.00  0.00     0.150 C 
ENDBRANCH   1   9
BRANCH   5  17
HETATM   17  N   UNL     1      10.699  30.520  57.411  1.00  0.00    -0.114 N 
HETATM   18  O   UNL     1      10.618  31.706  57.747  1.00  0.00    -0.532 OA
HETATM   19  O   UNL     1      11.738  29.885  57.192  1.00  0.00    -0.532 OA
ENDBRANCH   5  17
TORSDOF 2
ENDMDL
MODEL 3
REMARK VINA RESULT:      -6.6      2.152      2.519
REMARK  2 active torsions:
REMARK  status: ('A' for Active; 'I' for Inactive)
REMARK    1  A    between atoms: N_6  and  C_7 
REMARK    2  A    between atoms: C_11  and  N_12 
ROOT
HETATM    1  C   UNL     1       7.141  25.748  53.860  1.00  0.00     0.070 A 
HETATM    2  C   UNL     1       7.299  25.020  52.660  1.00  0.00     0.145 A 
HETATM    3  F   UNL     1       6.975  25.577  51.483  1.00  0.00    -0.204 F 
HETATM    4  C   UNL     1       7.740  23.699  52.634  1.00  0.00     0.082 A 
HETATM    5  C   UNL     1       8.039  23.069  53.840  1.00  0.00     0.123 A 
HETATM    6  C   UNL     1       7.913  23.735  55.055  1.00  0.00     0.046 A 
HETATM    7 BR   UNL     1       8.341  22.952  56.728  1.00  0.00    -0.048 Br
HETATM    8  C   UNL     1       7.472  25.068  55.052  1.00  0.00     0.054 A 
ENDROOT
BRANCH   1   9
HETATM    9  N   UNL     1       6.738  27.084  53.920  1.00  0.00    -0.375 N 
HETATM   10  C   UNL     1       7.774  28.136  54.005  1.00  0.00     0.150 C 
HETATM   11  C   UNL     1       7.959  28.613  55.463  1.00  0.00     0.254 C 
HETATM   12  N   UNL     1       6.620  29.048  56.063  1.00  0.00    -0.072 N 
HETATM   13  C   UNL     1       6.771  29.561  57.462  1.00  0.00     0.269 C 
HETATM   14  H   UNL     1       6.266  29.822  55.486  1.00  0.00     0.279 HD
HETATM   15  C   UNL     1       5.589  27.917  55.974  1.00  0.00     0.254 C 
HETATM   16  C   UNL     1       5.435  27.458  54.509  1.00  0.00     0.150 C 
ENDBRANCH   1   9
BRANCH   5  17
HETATM   17  N   UNL     1       8.473  21.695  53.785  1.00  0.00    -0.114 N 
HETATM   18  O   UNL     1       7.593  20.831  53.853  1.00  0.00    -0.532 OA
HETATM   19  O   UNL     1       9.694  21.500  53.735  1.00  0.00    -0.532 OA
ENDBRANCH   5  17
TORSDOF 2
ENDMDL
MODEL 4
REMARK VINA RESULT:      -6.5      1.334      2.097
REMARK  2 active torsions:
REMARK  status: ('A' for Active; 'I' for Inactive)
REMARK    1  A    between atoms: N_6  and  C_7 
REMARK    2  A    between atoms: C_11  and  N_12 
ROOT
HETATM    1  C   UNL     1       7.609  25.628  55.781  1.00  0.00     0.070 A 
HETATM    2  C   UNL     1       7.912  24.929  56.970  1.00  0.00     0.145 A 
HETATM    3  F   UNL     1       8.000  25.586  58.138  1.00  0.00    -0.204 F 
HETATM    4  C   UNL     1       8.177  23.562  56.992  1.00  0.00     0.082 A 
HETATM    5  C   UNL     1       8.144  22.854  55.793  1.00  0.00     0.123 A 
HETATM    6  C   UNL     1       7.843  23.483  54.590  1.00  0.00     0.046 A 
HETATM    7 BR   UNL     1       7.742  22.574  52.929  1.00  0.00    -0.048 Br
HETATM    8  C   UNL     1       7.574  24.861  54.597  1.00  0.00     0.054 A 
ENDROOT
BRANCH   1   9
HETATM    9  N   UNL     1       7.301  26.990  55.728  1.00  0.00    -0.375 N 
HETATM   10  C   UNL     1       6.169  27.494  56.536  1.00  0.00     0.150 C 
HETATM   11  C   UNL     1       4.898  27.650  55.670  1.00  0.00     0.254 C 
HETATM   12  N   UNL     1       5.184  28.517  54.442  1.00  0.00    -0.072 N 
HETATM   13  C   UNL     1       3.960  28.726  53.605  1.00  0.00     0.269 C 
HETATM   14  H   UNL     1       5.487  29.438  54.784  1.00  0.00     0.279 HD
HETATM   15  C   UNL     1       6.347  27.940  53.626  1.00  0.00     0.254 C 
HETATM   16  C   UNL     1       7.595  27.788  54.519  1.00  0.00     0.150 C 
ENDBRANCH   1   9
BRANCH   5  17
HETATM   17  N   UNL     1       8.444  21.444  55.842  1.00  0.00    -0.114 N 
HETATM   18  O   UNL     1       9.609  21.116  55.598  1.00  0.00    -0.532 OA
HETATM   19  O   UNL     1       7.495  20.682  56.066  1.00  0.00    -0.532 OA
ENDBRANCH   5  17
TORSDOF 2
ENDMDL
MODEL 5
REMARK VINA RESULT:      -6.4      5.228      7.127
REMARK  2 active torsions:
REMARK  status: ('A' for Active; 'I' for Inactive)
REMARK    1  A    between atoms: N_6  and  C_7 
REMARK    2  A    between atoms: C_11  and  N_12 
ROOT
HETATM    1  C   UNL     1       7.084  28.921  56.562  1.00  0.00     0.070 A 
HETATM    2  C   UNL     1       6.518  29.708  57.590  1.00  0.00     0.145 A 
HETATM    3  F   UNL     1       5.185  29.762  57.744  1.00  0.00    -0.204 F 
HETATM    4  C   UNL     1       7.286  30.490  58.448  1.00  0.00     0.082 A 
HETATM    5  C   UNL     1       8.670  30.498  58.288  1.00  0.00     0.123 A 
HETATM    6  C   UNL     1       9.289  29.739  57.302  1.00  0.00     0.046 A 
HETATM    7 BR   UNL     1      11.167  29.672  57.054  1.00  0.00    -0.048 Br
HETATM    8  C   UNL     1       8.491  28.954  56.454  1.00  0.00     0.054 A 
ENDROOT
BRANCH   1   9
HETATM    9  N   UNL     1       6.347  28.096  55.709  1.00  0.00    -0.375 N 
HETATM   10  C   UNL     1       5.940  26.758  56.190  1.00  0.00     0.150 C 
HETATM   11  C   UNL     1       6.896  25.666  55.659  1.00  0.00     0.254 C 
HETATM   12  N   UNL     1       7.007  25.740  54.135  1.00  0.00    -0.072 N 
HETATM   13  C   UNL     1       7.891  24.664  53.583  1.00  0.00     0.269 C 
HETATM   14  H   UNL     1       6.064  25.593  53.753  1.00  0.00     0.279 HD
HETATM   15  C   UNL     1       7.455  27.137  53.688  1.00  0.00     0.254 C 
HETATM   16  C   UNL     1       6.488  28.204  54.242  1.00  0.00     0.150 C 
ENDBRANCH   1   9
BRANCH   5  17
HETATM   17  N   UNL     1       9.439  31.334  59.178  1.00  0.00    -0.114 N 
HETATM   18  O   UNL     1       9.477  30.993  60.365  1.00  0.00    -0.532 OA
HETATM   19  O   UNL     1       9.944  32.351  58.686  1.00  0.00    -0.532 OA
ENDBRANCH   5  17
TORSDOF 2
ENDMDL
MODEL 6
REMARK VINA RESULT:      -6.2      9.418     11.504
REMARK  2 active torsions:
REMARK  status: ('A' for Active; 'I' for Inactive)
REMARK    1  A    between atoms: N_6  and  C_7 
REMARK    2  A    between atoms: C_11  and  N_12 
ROOT
HETATM    1  C   UNL     1       6.584  32.969  62.338  1.00  0.00     0.070 A 
HETATM    2  C   UNL     1       7.927  32.612  62.594  1.00  0.00     0.145 A 
HETATM    3  F   UNL     1       8.474  32.852  63.796  1.00  0.00    -0.204 F 
HETATM    4  C   UNL     1       8.754  32.050  61.624  1.00  0.00     0.082 A 
HETATM    5  C   UNL     1       8.236  31.830  60.350  1.00  0.00     0.123 A 
HETATM    6  C   UNL     1       6.920  32.152  60.037  1.00  0.00     0.046 A 
HETATM    7 BR   UNL     1       6.141  31.843  58.336  1.00  0.00    -0.048 Br
HETATM    8  C   UNL     1       6.107  32.712  61.035  1.00  0.00     0.054 A 
ENDROOT
BRANCH   1   9
HETATM    9  N   UNL     1       5.717  33.499  63.297  1.00  0.00    -0.375 N 
HETATM   10  C   UNL     1       4.259  33.373  63.083  1.00  0.00     0.150 C 
HETATM   11  C   UNL     1       3.670  34.680  62.507  1.00  0.00     0.254 C 
HETATM   12  N   UNL     1       4.040  35.874  63.389  1.00  0.00    -0.072 N 
HETATM   13  C   UNL     1       3.445  37.153  62.883  1.00  0.00     0.269 C 
HETATM   14  H   UNL     1       3.646  35.697  64.322  1.00  0.00     0.279 HD
HETATM   15  C   UNL     1       5.560  35.976  63.560  1.00  0.00     0.254 C 
HETATM   16  C   UNL     1       6.118  34.654  64.126  1.00  0.00     0.150 C 
ENDBRANCH   1   9
BRANCH   5  17
HETATM   17  N   UNL     1       9.121  31.267  59.359  1.00  0.00    -0.114 N 
HETATM   18  O   UNL     1       9.161  30.034  59.288  1.00  0.00    -0.532 OA
HETATM   19  O   UNL     1       9.806  32.065  58.708  1.00  0.00    -0.532 OA
ENDBRANCH   5  17
TORSDOF 2
ENDMDL
MODEL 7
REMARK VINA RESULT:      -6.2      5.471      7.352
REMARK  2 active torsions:
REMARK  status: ('A' for Active; 'I' for Inactive)
REMARK    1  A    between atoms: N_6  and  C_7 
REMARK    2  A    between atoms: C_11  and  N_12 
ROOT
HETATM    1  C   UNL     1       6.592  28.731  56.951  1.00  0.00     0.070 A 
HETATM    2  C   UNL     1       7.969  28.457  57.105  1.00  0.00     0.145 A 
HETATM    3  F   UNL     1       8.505  27.357  56.554  1.00  0.00    -0.204 F 
HETATM    4  C   UNL     1       8.817  29.266  57.858  1.00  0.00     0.082 A 
HETATM    5  C   UNL     1       8.287  30.391  58.485  1.00  0.00     0.123 A 
HETATM    6  C   UNL     1       6.941  30.720  58.365  1.00  0.00     0.046 A 
HETATM    7 BR   UNL     1       6.163  32.256  59.159  1.00  0.00    -0.048 Br
HETATM    8  C   UNL     1       6.110  29.891  57.596  1.00  0.00     0.054 A 
ENDROOT
BRANCH   1   9
HETATM    9  N   UNL     1       5.721  27.964  56.173  1.00  0.00    -0.375 N 
HETATM   10  C   UNL     1       5.142  26.735  56.757  1.00  0.00     0.150 C 
HETATM   11  C   UNL     1       5.917  25.482  56.288  1.00  0.00     0.254 C 
HETATM   12  N   UNL     1       5.995  25.435  54.761  1.00  0.00    -0.072 N 
HETATM   13  C   UNL     1       6.700  24.208  54.271  1.00  0.00     0.269 C 
HETATM   14  H   UNL     1       5.029  25.399  54.408  1.00  0.00     0.279 HD
HETATM   15  C   UNL     1       6.623  26.719  54.207  1.00  0.00     0.254 C 
HETATM   16  C   UNL     1       5.834  27.949  54.700  1.00  0.00     0.150 C 
ENDBRANCH   1   9
BRANCH   5  17
HETATM   17  N   UNL     1       9.184  31.198  59.276  1.00  0.00    -0.114 N 
HETATM   18  O   UNL     1       9.309  30.887  60.464  1.00  0.00    -0.532 OA
HETATM   19  O   UNL     1       9.704  32.167  58.709  1.00  0.00    -0.532 OA
ENDBRANCH   5  17
TORSDOF 2
ENDMDL
MODEL 8
REMARK VINA RESULT:      -6.0      6.056      7.398
REMARK  2 active torsions:
REMARK  status: ('A' for Active; 'I' for Inactive)
REMARK    1  A    between atoms: N_6  and  C_7 
REMARK    2  A    between atoms: C_11  and  N_12 
ROOT
HETATM    1  C   UNL     1       7.182  28.605  57.250  1.00  0.00     0.070 A 
HETATM    2  C   UNL     1       8.583  28.542  57.416  1.00  0.00     0.145 A 
HETATM    3  F   UNL     1       9.269  27.473  56.981  1.00  0.00    -0.204 F 
HETATM    4  C   UNL     1       9.309  29.537  58.067  1.00  0.00     0.082 A 
HETATM    5  C   UNL     1       8.626  30.639  58.576  1.00  0.00     0.123 A 
HETATM    6  C   UNL     1       7.248  30.764  58.438  1.00  0.00     0.046 A 
HETATM    7 BR   UNL     1       6.262  32.254  59.071  1.00  0.00    -0.048 Br
HETATM    8  C   UNL     1       6.542  29.750  57.772  1.00  0.00     0.054 A 
ENDROOT
BRANCH   1   9
HETATM    9  N   UNL     1       6.429  27.645  56.569  1.00  0.00    -0.375 N 
HETATM   10  C   UNL     1       6.841  27.255  55.204  1.00  0.00     0.150 C 
HETATM   11  C   UNL     1       5.998  27.994  54.140  1.00  0.00     0.254 C 
HETATM   12  N   UNL     1       4.504  27.782  54.392  1.00  0.00    -0.072 N 
HETATM   13  C   UNL     1       3.658  28.448  53.351  1.00  0.00     0.269 C 
HETATM   14  H   UNL     1       4.326  26.771  54.336  1.00  0.00     0.279 HD
HETATM   15  C   UNL     1       4.122  28.224  55.810  1.00  0.00     0.254 C 
HETATM   16  C   UNL     1       4.987  27.477  56.846  1.00  0.00     0.150 C 
ENDBRANCH   1   9
BRANCH   5  17
HETATM   17  N   UNL     1       9.400  31.643  59.265  1.00  0.00    -0.114 N 
HETATM   18  O   UNL     1      10.094  32.386  58.563  1.00  0.00    -0.532 OA
HETATM   19  O   UNL     1       9.347  31.634  60.501  1.00  0.00    -0.532 OA
ENDBRANCH   5  17
TORSDOF 2
ENDMDL
MODEL 9
REMARK VINA RESULT:      -5.8      8.501     10.865
REMARK  2 active torsions:
REMARK  status: ('A' for Active; 'I' for Inactive)
REMARK    1  A    between atoms: N_6  and  C_7 
REMARK    2  A    between atoms: C_11  and  N_12 
ROOT
HETATM    1  C   UNL     1       6.041  32.838  61.101  1.00  0.00     0.070 A 
HETATM    2  C   UNL     1       5.866  32.620  59.717  1.00  0.00     0.145 A 
HETATM    3  F   UNL     1       4.845  33.198  59.064  1.00  0.00    -0.204 F 
HETATM    4  C   UNL     1       6.692  31.776  58.978  1.00  0.00     0.082 A 
HETATM    5  C   UNL     1       7.733  31.120  59.631  1.00  0.00     0.123 A 
HETATM    6  C   UNL     1       7.963  31.299  60.990  1.00  0.00     0.046 A 
HETATM    7 BR   UNL     1       9.383  30.469  61.932  1.00  0.00    -0.048 Br
HETATM    8  C   UNL     1       7.119  32.160  61.709  1.00  0.00     0.054 A 
ENDROOT
BRANCH   1   9
HETATM    9  N   UNL     1       5.256  33.707  61.864  1.00  0.00    -0.375 N 
HETATM   10  C   UNL     1       5.843  34.988  62.312  1.00  0.00     0.150 C 
HETATM   11  C   UNL     1       6.329  34.890  63.777  1.00  0.00     0.254 C 
HETATM   12  N   UNL     1       5.202  34.402  64.689  1.00  0.00    -0.072 N 
HETATM   13  C   UNL     1       5.627  34.341  66.124  1.00  0.00     0.269 C 
HETATM   14  H   UNL     1       4.438  35.087  64.621  1.00  0.00     0.279 HD
HETATM   15  C   UNL     1       4.644  33.062  64.197  1.00  0.00     0.254 C 
HETATM   16  C   UNL     1       4.177  33.190  62.732  1.00  0.00     0.150 C 
ENDBRANCH   1   9
BRANCH   5  17
HETATM   17  N   UNL     1       8.559  30.235  58.846  1.00  0.00    -0.114 N 
HETATM   18  O   UNL     1       9.557  30.733  58.314  1.00  0.00    -0.532 OA
HETATM   19  O   UNL     1       8.164  29.069  58.724  1.00  0.00    -0.532 OA
ENDBRANCH   5  17
TORSDOF 2
ENDMDL
MODEL 10
REMARK VINA RESULT:      -5.8      5.370      6.661
REMARK  2 active torsions:
REMARK  status: ('A' for Active; 'I' for Inactive)
REMARK    1  A    between atoms: N_6  and  C_7 
REMARK    2  A    between atoms: C_11  and  N_12 
ROOT
HETATM    1  C   UNL     1       5.714  27.548  52.107  1.00  0.00     0.070 A 
HETATM    2  C   UNL     1       5.327  26.253  51.700  1.00  0.00     0.145 A 
HETATM    3  F   UNL     1       5.460  25.212  52.538  1.00  0.00    -0.204 F 
HETATM    4  C   UNL     1       4.843  25.978  50.423  1.00  0.00     0.082 A 
HETATM    5  C   UNL     1       4.737  27.024  49.509  1.00  0.00     0.123 A 
HETATM    6  C   UNL     1       5.093  28.324  49.852  1.00  0.00     0.046 A 
HETATM    7 BR   UNL     1       4.936  29.799  48.671  1.00  0.00    -0.048 Br
HETATM    8  C   UNL     1       5.572  28.573  51.147  1.00  0.00     0.054 A 
ENDROOT
BRANCH   1   9
HETATM    9  N   UNL     1       6.167  27.865  53.391  1.00  0.00    -0.375 N 
HETATM   10  C   UNL     1       7.534  27.460  53.782  1.00  0.00     0.150 C 
HETATM   11  C   UNL     1       7.507  26.161  54.620  1.00  0.00     0.254 C 
HETATM   12  N   UNL     1       6.566  26.310  55.817  1.00  0.00    -0.072 N 
HETATM   13  C   UNL     1       6.552  25.083  56.676  1.00  0.00     0.269 C 
HETATM   14  H   UNL     1       6.922  27.086  56.390  1.00  0.00     0.279 HD
HETATM   15  C   UNL     1       5.158  26.706  55.358  1.00  0.00     0.254 C 
HETATM   16  C   UNL     1       5.220  27.998  54.517  1.00  0.00     0.150 C 
ENDBRANCH   1   9
BRANCH   5  17
HETATM   17  N   UNL     1       4.252  26.707  48.188  1.00  0.00    -0.114 N 
HETATM   18  O   UNL     1       3.027  26.687  48.036  1.00  0.00    -0.532 OA
HETATM   19  O   UNL     1       5.105  26.426  47.337  1.00  0.00    -0.532 OA
ENDBRANCH   5  17
TORSDOF 2
ENDMDL
