MODEL 1
REMARK VINA RESULT:      -7.9      0.000      0.000
REMARK  6 active torsions:
REMARK  status: ('A' for Active; 'I' for Inactive)
REMARK    1  A    between atoms: C_2  and  O_3 
REMARK    2  A    between atoms: O_3  and  C_4 
REMARK    3  A    between atoms: C_4  and  C_5 
REMARK    4  A    between atoms: C_10  and  C_11 
REMARK    5  A    between atoms: C_11  and  N_12 
REMARK    6  A    between atoms: C_11  and  C_16 
ROOT
HETATM    1  C   UNL     1       5.852  27.724  53.534  1.00  0.00     0.118 A 
HETATM    2  N   UNL     1       6.623  28.780  53.953  1.00  0.00    -0.350 N 
HETATM    3  H   UNL     1       6.662  29.677  53.484  1.00  0.00     0.166 HD
HETATM    4  C   UNL     1       7.347  28.446  55.065  1.00  0.00     0.043 A 
HETATM    5  C   UNL     1       7.010  27.138  55.412  1.00  0.00     0.002 A 
HETATM    6  C   UNL     1       6.040  26.675  54.442  1.00  0.00     0.022 A 
HETATM    7  C   UNL     1       8.269  29.219  55.783  1.00  0.00     0.030 A 
HETATM    8  C   UNL     1       8.873  28.643  56.899  1.00  0.00     0.002 A 
HETATM    9  C   UNL     1       8.561  27.346  57.283  1.00  0.00     0.001 A 
HETATM   10  C   UNL     1       7.635  26.587  56.555  1.00  0.00     0.014 A 
ENDROOT
BRANCH   6  11
HETATM   11  C   UNL     1       5.363  25.333  54.347  1.00  0.00     0.252 C 
BRANCH  11  12
HETATM   12  N   UNL     1       4.295  25.245  53.332  1.00  0.00    -0.067 N 
HETATM   13  H   UNL     1       4.484  25.884  52.558  1.00  0.00     0.275 HD
HETATM   14  H   UNL     1       4.265  24.296  52.947  1.00  0.00     0.275 HD
HETATM   15  H   UNL     1       3.387  25.468  53.750  1.00  0.00     0.275 HD
ENDBRANCH  11  12
BRANCH  11  16
HETATM   16  C   UNL     1       6.429  24.284  54.109  1.00  0.00    -0.024 A 
HETATM   17  C   UNL     1       7.015  24.180  52.834  1.00  0.00     0.009 A 
HETATM   18  C   UNL     1       8.041  23.267  52.587  1.00  0.00     0.001 A 
HETATM   19  C   UNL     1       8.504  22.443  53.608  1.00  0.00     0.000 A 
HETATM   20  C   UNL     1       7.938  22.528  54.877  1.00  0.00     0.001 A 
HETATM   21  C   UNL     1       6.912  23.442  55.129  1.00  0.00     0.009 A 
ENDBRANCH  11  16
ENDBRANCH   6  11
BRANCH   1  22
HETATM   22  C   UNL     1       5.020  27.767  52.349  1.00  0.00     0.310 C 
HETATM   23  O   UNL     1       3.875  28.195  52.331  1.00  0.00    -0.258 OA
BRANCH  22  24
HETATM   24  O   UNL     1       5.691  27.231  51.297  1.00  0.00    -0.317 OA
BRANCH  24  25
HETATM   25  C   UNL     1       5.162  27.529  49.995  1.00  0.00     0.175 C 
HETATM   26  C   UNL     1       4.486  26.300  49.416  1.00  0.00     0.034 C 
ENDBRANCH  24  25
ENDBRANCH  22  24
ENDBRANCH   1  22
TORSDOF 6
ENDMDL
MODEL 2
REMARK VINA RESULT:      -7.7      1.529      4.402
REMARK  6 active torsions:
REMARK  status: ('A' for Active; 'I' for Inactive)
REMARK    1  A    between atoms: C_2  and  O_3 
REMARK    2  A    between atoms: O_3  and  C_4 
REMARK    3  A    between atoms: C_4  and  C_5 
REMARK    4  A    between atoms: C_10  and  C_11 
REMARK    5  A    between atoms: C_11  and  N_12 
REMARK    6  A    between atoms: C_11  and  C_16 
ROOT
HETATM    1  C   UNL     1       5.916  25.307  53.148  1.00  0.00     0.118 A 
HETATM    2  N   UNL     1       6.676  24.312  52.584  1.00  0.00    -0.350 N 
HETATM    3  H   UNL     1       6.675  24.086  51.596  1.00  0.00     0.166 HD
HETATM    4  C   UNL     1       7.409  23.656  53.536  1.00  0.00     0.043 A 
HETATM    5  C   UNL     1       7.149  24.267  54.763  1.00  0.00     0.002 A 
HETATM    6  C   UNL     1       6.205  25.335  54.518  1.00  0.00     0.022 A 
HETATM    7  C   UNL     1       8.282  22.571  53.385  1.00  0.00     0.030 A 
HETATM    8  C   UNL     1       8.920  22.086  54.525  1.00  0.00     0.002 A 
HETATM    9  C   UNL     1       8.696  22.669  55.765  1.00  0.00     0.001 A 
HETATM   10  C   UNL     1       7.821  23.755  55.898  1.00  0.00     0.014 A 
ENDROOT
BRANCH   6  11
HETATM   11  C   UNL     1       5.585  26.295  55.500  1.00  0.00     0.252 C 
BRANCH  11  12
HETATM   12  N   UNL     1       4.913  25.660  56.651  1.00  0.00    -0.067 N 
HETATM   13  H   UNL     1       3.904  25.812  56.604  1.00  0.00     0.275 HD
HETATM   14  H   UNL     1       5.074  24.648  56.626  1.00  0.00     0.275 HD
HETATM   15  H   UNL     1       5.279  26.038  57.530  1.00  0.00     0.275 HD
ENDBRANCH  11  12
BRANCH  11  16
HETATM   16  C   UNL     1       6.660  27.258  55.959  1.00  0.00    -0.024 A 
HETATM   17  C   UNL     1       6.990  27.315  57.327  1.00  0.00     0.009 A 
HETATM   18  C   UNL     1       8.014  28.145  57.785  1.00  0.00     0.001 A 
HETATM   19  C   UNL     1       8.729  28.932  56.887  1.00  0.00     0.000 A 
HETATM   20  C   UNL     1       8.419  28.892  55.531  1.00  0.00     0.001 A 
HETATM   21  C   UNL     1       7.396  28.061  55.068  1.00  0.00     0.009 A 
ENDBRANCH  11  16
ENDBRANCH   6  11
BRANCH   1  22
HETATM   22  C   UNL     1       4.999  26.134  52.391  1.00  0.00     0.310 C 
HETATM   23  O   UNL     1       4.368  27.068  52.865  1.00  0.00    -0.258 OA
BRANCH  22  24
HETATM   24  O   UNL     1       4.928  25.687  51.111  1.00  0.00    -0.317 OA
BRANCH  24  25
HETATM   25  C   UNL     1       4.898  26.699  50.092  1.00  0.00     0.175 C 
HETATM   26  C   UNL     1       4.088  26.216  48.903  1.00  0.00     0.034 C 
ENDBRANCH  24  25
ENDBRANCH  22  24
ENDBRANCH   1  22
TORSDOF 6
ENDMDL
MODEL 3
REMARK VINA RESULT:      -7.5      2.705      5.682
REMARK  6 active torsions:
REMARK  status: ('A' for Active; 'I' for Inactive)
REMARK    1  A    between atoms: C_2  and  O_3 
REMARK    2  A    between atoms: O_3  and  C_4 
REMARK    3  A    between atoms: C_4  and  C_5 
REMARK    4  A    between atoms: C_10  and  C_11 
REMARK    5  A    between atoms: C_11  and  N_12 
REMARK    6  A    between atoms: C_11  and  C_16 
ROOT
HETATM    1  C   UNL     1       7.932  24.934  56.353  1.00  0.00     0.118 A 
HETATM    2  N   UNL     1       8.998  24.075  56.249  1.00  0.00    -0.350 N 
HETATM    3  H   UNL     1       9.833  24.131  56.821  1.00  0.00     0.166 HD
HETATM    4  C   UNL     1       8.792  23.156  55.255  1.00  0.00     0.043 A 
HETATM    5  C   UNL     1       7.528  23.397  54.714  1.00  0.00     0.002 A 
HETATM    6  C   UNL     1       6.967  24.525  55.424  1.00  0.00     0.022 A 
HETATM    7  C   UNL     1       9.637  22.132  54.811  1.00  0.00     0.030 A 
HETATM    8  C   UNL     1       9.184  21.317  53.775  1.00  0.00     0.002 A 
HETATM    9  C   UNL     1       7.931  21.517  53.212  1.00  0.00     0.001 A 
HETATM   10  C   UNL     1       7.096  22.545  53.670  1.00  0.00     0.014 A 
ENDROOT
BRANCH   6  11
HETATM   11  C   UNL     1       5.636  25.202  55.225  1.00  0.00     0.252 C 
BRANCH  11  12
HETATM   12  N   UNL     1       5.228  26.108  56.317  1.00  0.00    -0.067 N 
HETATM   13  H   UNL     1       4.469  26.718  56.010  1.00  0.00     0.275 HD
HETATM   14  H   UNL     1       4.880  25.556  57.108  1.00  0.00     0.275 HD
HETATM   15  H   UNL     1       6.023  26.674  56.626  1.00  0.00     0.275 HD
ENDBRANCH  11  12
BRANCH  11  16
HETATM   16  C   UNL     1       5.671  25.930  53.897  1.00  0.00    -0.024 A 
HETATM   17  C   UNL     1       5.084  25.325  52.769  1.00  0.00     0.009 A 
HETATM   18  C   UNL     1       5.043  25.987  51.541  1.00  0.00     0.001 A 
HETATM   19  C   UNL     1       5.583  27.263  51.416  1.00  0.00     0.000 A 
HETATM   20  C   UNL     1       6.169  27.878  52.517  1.00  0.00     0.001 A 
HETATM   21  C   UNL     1       6.211  27.221  53.750  1.00  0.00     0.009 A 
ENDBRANCH  11  16
ENDBRANCH   6  11
BRANCH   1  22
HETATM   22  C   UNL     1       7.893  26.043  57.283  1.00  0.00     0.310 C 
HETATM   23  O   UNL     1       7.617  25.934  58.469  1.00  0.00    -0.258 OA
BRANCH  22  24
HETATM   24  O   UNL     1       8.167  27.201  56.628  1.00  0.00    -0.317 OA
BRANCH  24  25
HETATM   25  C   UNL     1       8.302  28.372  57.449  1.00  0.00     0.175 C 
HETATM   26  C   UNL     1       9.565  29.126  57.075  1.00  0.00     0.034 C 
ENDBRANCH  24  25
ENDBRANCH  22  24
ENDBRANCH   1  22
TORSDOF 6
ENDMDL
MODEL 4
REMARK VINA RESULT:      -7.5     11.481     14.418
REMARK  6 active torsions:
REMARK  status: ('A' for Active; 'I' for Inactive)
REMARK    1  A    between atoms: C_2  and  O_3 
REMARK    2  A    between atoms: O_3  and  C_4 
REMARK    3  A    between atoms: C_4  and  C_5 
REMARK    4  A    between atoms: C_10  and  C_11 
REMARK    5  A    between atoms: C_11  and  N_12 
REMARK    6  A    between atoms: C_11  and  C_16 
ROOT
HETATM    1  C   UNL     1       4.539  36.111  65.397  1.00  0.00     0.118 A 
HETATM    2  N   UNL     1       5.007  37.389  65.578  1.00  0.00    -0.350 N 
HETATM    3  H   UNL     1       4.941  37.900  66.451  1.00  0.00     0.166 HD
HETATM    4  C   UNL     1       5.545  37.883  64.421  1.00  0.00     0.043 A 
HETATM    5  C   UNL     1       5.463  36.878  63.455  1.00  0.00     0.002 A 
HETATM    6  C   UNL     1       4.832  35.736  64.079  1.00  0.00     0.022 A 
HETATM    7  C   UNL     1       6.100  39.144  64.174  1.00  0.00     0.030 A 
HETATM    8  C   UNL     1       6.594  39.400  62.896  1.00  0.00     0.002 A 
HETATM    9  C   UNL     1       6.539  38.427  61.907  1.00  0.00     0.001 A 
HETATM   10  C   UNL     1       5.981  37.168  62.171  1.00  0.00     0.014 A 
ENDROOT
BRANCH   6  11
HETATM   11  C   UNL     1       4.492  34.397  63.479  1.00  0.00     0.252 C 
BRANCH  11  12
HETATM   12  N   UNL     1       3.636  34.452  62.278  1.00  0.00    -0.067 N 
HETATM   13  H   UNL     1       3.553  33.526  61.855  1.00  0.00     0.275 HD
HETATM   14  H   UNL     1       2.694  34.756  62.543  1.00  0.00     0.275 HD
HETATM   15  H   UNL     1       4.022  35.110  61.594  1.00  0.00     0.275 HD
ENDBRANCH  11  12
BRANCH  11  16
HETATM   16  C   UNL     1       5.789  33.667  63.191  1.00  0.00    -0.024 A 
HETATM   17  C   UNL     1       6.093  33.310  61.863  1.00  0.00     0.009 A 
HETATM   18  C   UNL     1       7.302  32.690  61.546  1.00  0.00     0.001 A 
HETATM   19  C   UNL     1       8.231  32.418  62.545  1.00  0.00     0.000 A 
HETATM   20  C   UNL     1       7.951  32.761  63.864  1.00  0.00     0.001 A 
HETATM   21  C   UNL     1       6.742  33.384  64.186  1.00  0.00     0.009 A 
ENDBRANCH  11  16
ENDBRANCH   6  11
BRANCH   1  22
HETATM   22  C   UNL     1       3.869  35.354  66.433  1.00  0.00     0.310 C 
HETATM   23  O   UNL     1       2.719  35.558  66.796  1.00  0.00    -0.258 OA
BRANCH  22  24
HETATM   24  O   UNL     1       4.719  34.429  66.949  1.00  0.00    -0.317 OA
BRANCH  24  25
HETATM   25  C   UNL     1       5.405  34.808  68.153  1.00  0.00     0.175 C 
HETATM   26  C   UNL     1       6.869  34.419  68.062  1.00  0.00     0.034 C 
ENDBRANCH  24  25
ENDBRANCH  22  24
ENDBRANCH   1  22
TORSDOF 6
ENDMDL
MODEL 5
REMARK VINA RESULT:      -7.5      2.365      4.747
REMARK  6 active torsions:
REMARK  status: ('A' for Active; 'I' for Inactive)
REMARK    1  A    between atoms: C_2  and  O_3 
REMARK    2  A    between atoms: O_3  and  C_4 
REMARK    3  A    between atoms: C_4  and  C_5 
REMARK    4  A    between atoms: C_10  and  C_11 
REMARK    5  A    between atoms: C_11  and  N_12 
REMARK    6  A    between atoms: C_11  and  C_16 
ROOT
HETATM    1  C   UNL     1       6.711  28.343  54.813  1.00  0.00     0.118 A 
HETATM    2  N   UNL     1       6.706  28.513  53.450  1.00  0.00    -0.350 N 
HETATM    3  H   UNL     1       7.095  29.319  52.976  1.00  0.00     0.166 HD
HETATM    4  C   UNL     1       6.084  27.463  52.828  1.00  0.00     0.043 A 
HETATM    5  C   UNL     1       5.702  26.554  53.816  1.00  0.00     0.002 A 
HETATM    6  C   UNL     1       6.114  27.106  55.088  1.00  0.00     0.022 A 
HETATM    7  C   UNL     1       5.844  27.264  51.463  1.00  0.00     0.030 A 
HETATM    8  C   UNL     1       5.190  26.094  51.081  1.00  0.00     0.002 A 
HETATM    9  C   UNL     1       4.798  25.159  52.030  1.00  0.00     0.001 A 
HETATM   10  C   UNL     1       5.048  25.373  53.392  1.00  0.00     0.014 A 
ENDROOT
BRANCH   6  11
HETATM   11  C   UNL     1       5.932  26.536  56.470  1.00  0.00     0.252 C 
BRANCH  11  12
HETATM   12  N   UNL     1       4.558  26.101  56.788  1.00  0.00    -0.067 N 
HETATM   13  H   UNL     1       4.532  25.093  56.952  1.00  0.00     0.275 HD
HETATM   14  H   UNL     1       4.243  26.561  57.649  1.00  0.00     0.275 HD
HETATM   15  H   UNL     1       3.921  26.343  56.024  1.00  0.00     0.275 HD
ENDBRANCH  11  12
BRANCH  11  16
HETATM   16  C   UNL     1       6.918  25.399  56.645  1.00  0.00    -0.024 A 
HETATM   17  C   UNL     1       6.661  24.167  56.015  1.00  0.00     0.009 A 
HETATM   18  C   UNL     1       7.571  23.113  56.100  1.00  0.00     0.001 A 
HETATM   19  C   UNL     1       8.756  23.269  56.813  1.00  0.00     0.000 A 
HETATM   20  C   UNL     1       9.030  24.478  57.445  1.00  0.00     0.001 A 
HETATM   21  C   UNL     1       8.123  25.537  57.360  1.00  0.00     0.009 A 
ENDBRANCH  11  16
ENDBRANCH   6  11
BRANCH   1  22
HETATM   22  C   UNL     1       7.254  29.319  55.734  1.00  0.00     0.310 C 
HETATM   23  O   UNL     1       6.571  30.052  56.437  1.00  0.00    -0.258 OA
BRANCH  22  24
HETATM   24  O   UNL     1       8.610  29.314  55.662  1.00  0.00    -0.317 OA
BRANCH  24  25
HETATM   25  C   UNL     1       9.304  29.053  56.892  1.00  0.00     0.175 C 
HETATM   26  C   UNL     1      10.729  29.569  56.804  1.00  0.00     0.034 C 
ENDBRANCH  24  25
ENDBRANCH  22  24
ENDBRANCH   1  22
TORSDOF 6
ENDMDL
MODEL 6
REMARK VINA RESULT:      -7.4      1.593      4.661
REMARK  6 active torsions:
REMARK  status: ('A' for Active; 'I' for Inactive)
REMARK    1  A    between atoms: C_2  and  O_3 
REMARK    2  A    between atoms: O_3  and  C_4 
REMARK    3  A    between atoms: C_4  and  C_5 
REMARK    4  A    between atoms: C_10  and  C_11 
REMARK    5  A    between atoms: C_11  and  N_12 
REMARK    6  A    between atoms: C_11  and  C_16 
ROOT
HETATM    1  C   UNL     1       5.876  28.074  53.627  1.00  0.00     0.118 A 
HETATM    2  N   UNL     1       6.060  28.986  52.618  1.00  0.00    -0.350 N 
HETATM    3  H   UNL     1       6.410  29.926  52.757  1.00  0.00     0.166 HD
HETATM    4  C   UNL     1       5.681  28.463  51.410  1.00  0.00     0.043 A 
HETATM    5  C   UNL     1       5.271  27.148  51.630  1.00  0.00     0.002 A 
HETATM    6  C   UNL     1       5.408  26.888  53.047  1.00  0.00     0.022 A 
HETATM    7  C   UNL     1       5.683  29.068  50.147  1.00  0.00     0.030 A 
HETATM    8  C   UNL     1       5.252  28.309  49.061  1.00  0.00     0.002 A 
HETATM    9  C   UNL     1       4.842  26.994  49.233  1.00  0.00     0.001 A 
HETATM   10  C   UNL     1       4.848  26.403  50.504  1.00  0.00     0.014 A 
ENDROOT
BRANCH   6  11
HETATM   11  C   UNL     1       5.089  25.632  53.814  1.00  0.00     0.252 C 
BRANCH  11  12
HETATM   12  N   UNL     1       3.937  24.864  53.301  1.00  0.00    -0.067 N 
HETATM   13  H   UNL     1       4.140  24.496  52.370  1.00  0.00     0.275 HD
HETATM   14  H   UNL     1       3.757  24.064  53.916  1.00  0.00     0.275 HD
HETATM   15  H   UNL     1       3.102  25.456  53.265  1.00  0.00     0.275 HD
ENDBRANCH  11  12
BRANCH  11  16
HETATM   16  C   UNL     1       6.339  24.776  53.857  1.00  0.00    -0.024 A 
HETATM   17  C   UNL     1       6.994  24.582  55.088  1.00  0.00     0.009 A 
HETATM   18  C   UNL     1       8.114  23.755  55.182  1.00  0.00     0.001 A 
HETATM   19  C   UNL     1       8.598  23.104  54.053  1.00  0.00     0.000 A 
HETATM   20  C   UNL     1       7.967  23.282  52.826  1.00  0.00     0.001 A 
HETATM   21  C   UNL     1       6.845  24.108  52.726  1.00  0.00     0.009 A 
ENDBRANCH  11  16
ENDBRANCH   6  11
BRANCH   1  22
HETATM   22  C   UNL     1       6.139  28.366  55.021  1.00  0.00     0.310 C 
HETATM   23  O   UNL     1       5.283  28.714  55.822  1.00  0.00    -0.258 OA
BRANCH  22  24
HETATM   24  O   UNL     1       7.466  28.230  55.275  1.00  0.00    -0.317 OA
BRANCH  24  25
HETATM   25  C   UNL     1       7.817  27.901  56.629  1.00  0.00     0.175 C 
HETATM   26  C   UNL     1       9.120  28.580  57.008  1.00  0.00     0.034 C 
ENDBRANCH  24  25
ENDBRANCH  22  24
ENDBRANCH   1  22
TORSDOF 6
ENDMDL
MODEL 7
REMARK VINA RESULT:      -7.2      2.001      2.951
REMARK  6 active torsions:
REMARK  status: ('A' for Active; 'I' for Inactive)
REMARK    1  A    between atoms: C_2  and  O_3 
REMARK    2  A    between atoms: O_3  and  C_4 
REMARK    3  A    between atoms: C_4  and  C_5 
REMARK    4  A    between atoms: C_10  and  C_11 
REMARK    5  A    between atoms: C_11  and  N_12 
REMARK    6  A    between atoms: C_11  and  C_16 
ROOT
HETATM    1  C   UNL     1       7.824  27.979  54.587  1.00  0.00     0.118 A 
HETATM    2  N   UNL     1       8.821  28.921  54.519  1.00  0.00    -0.350 N 
HETATM    3  H   UNL     1       9.243  29.242  53.656  1.00  0.00     0.166 HD
HETATM    4  C   UNL     1       9.182  29.343  55.771  1.00  0.00     0.043 A 
HETATM    5  C   UNL     1       8.367  28.683  56.690  1.00  0.00     0.002 A 
HETATM    6  C   UNL     1       7.484  27.819  55.936  1.00  0.00     0.022 A 
HETATM    7  C   UNL     1      10.169  30.265  56.140  1.00  0.00     0.030 A 
HETATM    8  C   UNL     1      10.337  30.530  57.498  1.00  0.00     0.002 A 
HETATM    9  C   UNL     1       9.542  29.901  58.447  1.00  0.00     0.001 A 
HETATM   10  C   UNL     1       8.557  28.982  58.060  1.00  0.00     0.014 A 
ENDROOT
BRANCH   6  11
HETATM   11  C   UNL     1       6.421  26.879  56.441  1.00  0.00     0.252 C 
BRANCH  11  12
HETATM   12  N   UNL     1       5.182  26.852  55.639  1.00  0.00    -0.067 N 
HETATM   13  H   UNL     1       5.379  26.534  54.688  1.00  0.00     0.275 HD
HETATM   14  H   UNL     1       4.520  26.189  56.053  1.00  0.00     0.275 HD
HETATM   15  H   UNL     1       4.755  27.782  55.610  1.00  0.00     0.275 HD
ENDBRANCH  11  12
BRANCH  11  16
HETATM   16  C   UNL     1       7.029  25.496  56.552  1.00  0.00    -0.024 A 
HETATM   17  C   UNL     1       6.516  24.456  55.753  1.00  0.00     0.009 A 
HETATM   18  C   UNL     1       7.085  23.182  55.781  1.00  0.00     0.001 A 
HETATM   19  C   UNL     1       8.177  22.923  56.603  1.00  0.00     0.000 A 
HETATM   20  C   UNL     1       8.699  23.935  57.402  1.00  0.00     0.001 A 
HETATM   21  C   UNL     1       8.134  25.213  57.376  1.00  0.00     0.009 A 
ENDBRANCH  11  16
ENDBRANCH   6  11
BRANCH   1  22
HETATM   22  C   UNL     1       7.278  27.314  53.423  1.00  0.00     0.310 C 
HETATM   23  O   UNL     1       6.298  27.707  52.805  1.00  0.00    -0.258 OA
BRANCH  22  24
HETATM   24  O   UNL     1       7.992  26.189  53.160  1.00  0.00    -0.317 OA
BRANCH  24  25
HETATM   25  C   UNL     1       7.425  25.297  52.186  1.00  0.00     0.175 C 
HETATM   26  C   UNL     1       7.931  23.885  52.419  1.00  0.00     0.034 C 
ENDBRANCH  24  25
ENDBRANCH  22  24
ENDBRANCH   1  22
TORSDOF 6
ENDMDL
MODEL 8
REMARK VINA RESULT:      -7.0      1.700      4.320
REMARK  6 active torsions:
REMARK  status: ('A' for Active; 'I' for Inactive)
REMARK    1  A    between atoms: C_2  and  O_3 
REMARK    2  A    between atoms: O_3  and  C_4 
REMARK    3  A    between atoms: C_4  and  C_5 
REMARK    4  A    between atoms: C_10  and  C_11 
REMARK    5  A    between atoms: C_11  and  N_12 
REMARK    6  A    between atoms: C_11  and  C_16 
ROOT
HETATM    1  C   UNL     1       5.882  26.551  51.378  1.00  0.00     0.118 A 
HETATM    2  N   UNL     1       6.711  25.475  51.174  1.00  0.00    -0.350 N 
HETATM    3  H   UNL     1       7.028  25.165  50.263  1.00  0.00     0.166 HD
HETATM    4  C   UNL     1       7.025  24.868  52.361  1.00  0.00     0.043 A 
HETATM    5  C   UNL     1       6.412  25.594  53.382  1.00  0.00     0.002 A 
HETATM    6  C   UNL     1       5.690  26.683  52.759  1.00  0.00     0.022 A 
HETATM    7  C   UNL     1       7.813  23.733  52.589  1.00  0.00     0.030 A 
HETATM    8  C   UNL     1       7.988  23.316  53.907  1.00  0.00     0.002 A 
HETATM    9  C   UNL     1       7.401  24.014  54.955  1.00  0.00     0.001 A 
HETATM   10  C   UNL     1       6.617  25.149  54.709  1.00  0.00     0.014 A 
ENDROOT
BRANCH   6  11
HETATM   11  C   UNL     1       4.848  27.752  53.404  1.00  0.00     0.252 C 
BRANCH  11  12
HETATM   12  N   UNL     1       3.416  27.421  53.537  1.00  0.00    -0.067 N 
HETATM   13  H   UNL     1       3.298  26.438  53.791  1.00  0.00     0.275 HD
HETATM   14  H   UNL     1       3.002  27.984  54.287  1.00  0.00     0.275 HD
HETATM   15  H   UNL     1       2.922  27.612  52.660  1.00  0.00     0.275 HD
ENDBRANCH  11  12
BRANCH  11  16
HETATM   16  C   UNL     1       5.458  28.083  54.750  1.00  0.00    -0.024 A 
HETATM   17  C   UNL     1       6.735  28.674  54.796  1.00  0.00     0.009 A 
HETATM   18  C   UNL     1       7.309  29.049  56.012  1.00  0.00     0.001 A 
HETATM   19  C   UNL     1       6.620  28.845  57.202  1.00  0.00     0.000 A 
HETATM   20  C   UNL     1       5.357  28.262  57.181  1.00  0.00     0.001 A 
HETATM   21  C   UNL     1       4.777  27.887  55.966  1.00  0.00     0.009 A 
ENDBRANCH  11  16
ENDBRANCH   6  11
BRANCH   1  22
HETATM   22  C   UNL     1       5.342  27.353  50.300  1.00  0.00     0.310 C 
HETATM   23  O   UNL     1       5.642  28.522  50.099  1.00  0.00    -0.258 OA
BRANCH  22  24
HETATM   24  O   UNL     1       4.441  26.625  49.592  1.00  0.00    -0.317 OA
BRANCH  24  25
HETATM   25  C   UNL     1       4.647  26.580  48.171  1.00  0.00     0.175 C 
HETATM   26  C   UNL     1       3.311  26.484  47.456  1.00  0.00     0.034 C 
ENDBRANCH  24  25
ENDBRANCH  22  24
ENDBRANCH   1  22
TORSDOF 6
ENDMDL
MODEL 9
REMARK VINA RESULT:      -7.0     10.027     13.018
REMARK  6 active torsions:
REMARK  status: ('A' for Active; 'I' for Inactive)
REMARK    1  A    between atoms: C_2  and  O_3 
REMARK    2  A    between atoms: O_3  and  C_4 
REMARK    3  A    between atoms: C_4  and  C_5 
REMARK    4  A    between atoms: C_10  and  C_11 
REMARK    5  A    between atoms: C_11  and  N_12 
REMARK    6  A    between atoms: C_11  and  C_16 
ROOT
HETATM    1  C   UNL     1       5.449  34.446  64.438  1.00  0.00     0.118 A 
HETATM    2  N   UNL     1       5.033  35.744  64.268  1.00  0.00    -0.350 N 
HETATM    3  H   UNL     1       5.089  36.457  64.985  1.00  0.00     0.166 HD
HETATM    4  C   UNL     1       4.513  35.931  63.016  1.00  0.00     0.043 A 
HETATM    5  C   UNL     1       4.626  34.723  62.327  1.00  0.00     0.002 A 
HETATM    6  C   UNL     1       5.239  33.772  63.229  1.00  0.00     0.022 A 
HETATM    7  C   UNL     1       3.958  37.088  62.456  1.00  0.00     0.030 A 
HETATM    8  C   UNL     1       3.499  37.020  61.141  1.00  0.00     0.002 A 
HETATM    9  C   UNL     1       3.599  35.839  60.416  1.00  0.00     0.001 A 
HETATM   10  C   UNL     1       4.159  34.691  60.992  1.00  0.00     0.014 A 
ENDROOT
BRANCH   6  11
HETATM   11  C   UNL     1       5.573  32.322  62.992  1.00  0.00     0.252 C 
BRANCH  11  12
HETATM   12  N   UNL     1       4.471  31.512  62.438  1.00  0.00    -0.067 N 
HETATM   13  H   UNL     1       4.674  31.245  61.473  1.00  0.00     0.275 HD
HETATM   14  H   UNL     1       4.374  30.648  62.982  1.00  0.00     0.275 HD
HETATM   15  H   UNL     1       3.591  32.034  62.474  1.00  0.00     0.275 HD
ENDBRANCH  11  12
BRANCH  11  16
HETATM   16  C   UNL     1       6.796  32.261  62.100  1.00  0.00    -0.024 A 
HETATM   17  C   UNL     1       8.073  32.215  62.691  1.00  0.00     0.009 A 
HETATM   18  C   UNL     1       9.223  32.098  61.908  1.00  0.00     0.001 A 
HETATM   19  C   UNL     1       9.120  32.023  60.523  1.00  0.00     0.000 A 
HETATM   20  C   UNL     1       7.868  32.069  59.917  1.00  0.00     0.001 A 
HETATM   21  C   UNL     1       6.714  32.183  60.697  1.00  0.00     0.009 A 
ENDBRANCH  11  16
ENDBRANCH   6  11
BRANCH   1  22
HETATM   22  C   UNL     1       5.994  33.941  65.682  1.00  0.00     0.310 C 
HETATM   23  O   UNL     1       7.164  33.621  65.837  1.00  0.00    -0.258 OA
BRANCH  22  24
HETATM   24  O   UNL     1       5.008  33.849  66.611  1.00  0.00    -0.317 OA
BRANCH  24  25
HETATM   25  C   UNL     1       5.055  34.811  67.676  1.00  0.00     0.175 C 
HETATM   26  C   UNL     1       5.632  34.173  68.927  1.00  0.00     0.034 C 
ENDBRANCH  24  25
ENDBRANCH  22  24
ENDBRANCH   1  22
TORSDOF 6
ENDMDL
MODEL 10
REMARK VINA RESULT:      -6.9      8.570     10.878
REMARK  6 active torsions:
REMARK  status: ('A' for Active; 'I' for Inactive)
REMARK    1  A    between atoms: C_2  and  O_3 
REMARK    2  A    between atoms: O_3  and  C_4 
REMARK    3  A    between atoms: C_4  and  C_5 
REMARK    4  A    between atoms: C_10  and  C_11 
REMARK    5  A    between atoms: C_11  and  N_12 
REMARK    6  A    between atoms: C_11  and  C_16 
ROOT
HETATM    1  C   UNL     1       5.235  32.268  59.714  1.00  0.00     0.118 A 
HETATM    2  N   UNL     1       6.408  32.239  59.000  1.00  0.00    -0.350 N 
HETATM    3  H   UNL     1       6.459  32.272  57.988  1.00  0.00     0.166 HD
HETATM    4  C   UNL     1       7.488  32.132  59.835  1.00  0.00     0.043 A 
HETATM    5  C   UNL     1       7.009  32.130  61.145  1.00  0.00     0.002 A 
HETATM    6  C   UNL     1       5.567  32.232  61.074  1.00  0.00     0.022 A 
HETATM    7  C   UNL     1       8.847  32.043  59.511  1.00  0.00     0.030 A 
HETATM    8  C   UNL     1       9.761  31.950  60.559  1.00  0.00     0.002 A 
HETATM    9  C   UNL     1       9.329  31.952  61.879  1.00  0.00     0.001 A 
HETATM   10  C   UNL     1       7.964  32.043  62.185  1.00  0.00     0.014 A 
ENDROOT
BRANCH   6  11
HETATM   11  C   UNL     1       4.564  32.257  62.197  1.00  0.00     0.252 C 
BRANCH  11  12
HETATM   12  N   UNL     1       4.474  31.009  62.980  1.00  0.00    -0.067 N 
HETATM   13  H   UNL     1       5.293  30.904  63.581  1.00  0.00     0.275 HD
HETATM   14  H   UNL     1       3.649  31.044  63.587  1.00  0.00     0.275 HD
HETATM   15  H   UNL     1       4.398  30.201  62.356  1.00  0.00     0.275 HD
ENDBRANCH  11  12
BRANCH  11  16
HETATM   16  C   UNL     1       4.885  33.438  63.089  1.00  0.00    -0.024 A 
HETATM   17  C   UNL     1       4.903  34.731  62.534  1.00  0.00     0.009 A 
HETATM   18  C   UNL     1       5.136  35.852  63.331  1.00  0.00     0.001 A 
HETATM   19  C   UNL     1       5.353  35.705  64.697  1.00  0.00     0.000 A 
HETATM   20  C   UNL     1       5.341  34.436  65.268  1.00  0.00     0.001 A 
HETATM   21  C   UNL     1       5.106  33.310  64.474  1.00  0.00     0.009 A 
ENDBRANCH  11  16
ENDBRANCH   6  11
BRANCH   1  22
HETATM   22  C   UNL     1       3.928  32.322  59.095  1.00  0.00     0.310 C 
HETATM   23  O   UNL     1       3.074  31.456  59.219  1.00  0.00    -0.258 OA
BRANCH  22  24
HETATM   24  O   UNL     1       3.823  33.447  58.341  1.00  0.00    -0.317 OA
BRANCH  24  25
HETATM   25  C   UNL     1       3.738  34.685  59.066  1.00  0.00     0.175 C 
HETATM   26  C   UNL     1       2.393  34.788  59.762  1.00  0.00     0.034 C 
ENDBRANCH  24  25
ENDBRANCH  22  24
ENDBRANCH   1  22
TORSDOF 6
ENDMDL
