MODEL 1
REMARK VINA RESULT:     -10.6      0.000      0.000
REMARK  8 active torsions:
REMARK  status: ('A' for Active; 'I' for Inactive)
REMARK    1  A    between atoms: C_7  and  C_8 
REMARK       I    between atoms: C_8  and  N_9 
REMARK    2  A    between atoms: N_9  and  N_10 
REMARK    3  A    between atoms: N_10  and  C_11 
REMARK    4  A    between atoms: C_11  and  N_12 
REMARK    5  A    between atoms: N_12  and  C_13 
REMARK    6  A    between atoms: N_15  and  C_16 
REMARK    7  A    between atoms: C_16  and  C_17 
REMARK    8  A    between atoms: C_29  and  C_30 
ROOT
HETATM    1  C   UNL     1       5.325  25.677  56.658  1.00  0.00     0.290 C 
HETATM    2  N   UNL     1       5.055  26.799  55.901  1.00  0.00    -0.262 N 
HETATM    3  O   UNL     1       4.915  25.484  57.799  1.00  0.00    -0.264 OA
HETATM    4  H   UNL     1       5.356  26.806  54.927  1.00  0.00     0.190 HD
ENDROOT
BRANCH   2   5
HETATM    5  N   UNL     1       4.132  27.755  56.320  1.00  0.00    -0.273 N 
HETATM    6  H   UNL     1       3.294  27.426  56.814  1.00  0.00     0.189 HD
BRANCH   5   7
HETATM    7  C   UNL     1       4.467  29.079  56.424  1.00  0.00     0.192 C 
HETATM    8  S   UNL     1       3.376  30.318  56.735  1.00  0.00    -0.039 SA
BRANCH   7   9
HETATM    9  N   UNL     1       5.780  29.413  56.252  1.00  0.00    -0.315 N 
HETATM   10  H   UNL     1       6.127  29.343  55.306  1.00  0.00     0.170 HD
BRANCH   9  11
HETATM   11  C   UNL     1       6.702  29.735  57.226  1.00  0.00     0.151 A 
HETATM   12  N   UNL     1       6.948  30.978  57.652  1.00  0.00    -0.154 NA
HETATM   13  N   UNL     1       7.877  30.819  58.619  1.00  0.00    -0.275 N 
HETATM   14  C   UNL     1       8.240  29.516  58.807  1.00  0.00     0.116 A 
HETATM   15  C   UNL     1       7.496  28.787  57.910  1.00  0.00     0.071 A 
BRANCH  13  16
HETATM   16  C   UNL     1       8.440  31.984  59.290  1.00  0.00     0.192 C 
BRANCH  16  17
HETATM   17  C   UNL     1       7.871  32.163  60.668  1.00  0.00     0.000 A 
HETATM   18  C   UNL     1       8.706  32.128  61.787  1.00  0.00     0.124 A 
HETATM   19  F   UNL     1      10.025  31.945  61.627  1.00  0.00    -0.205 F 
HETATM   20  C   UNL     1       8.200  32.285  63.075  1.00  0.00     0.043 A 
HETATM   21  C   UNL     1       6.832  32.478  63.258  1.00  0.00     0.003 A 
HETATM   22  C   UNL     1       5.980  32.507  62.153  1.00  0.00     0.001 A 
HETATM   23  C   UNL     1       6.494  32.345  60.864  1.00  0.00     0.012 A 
ENDBRANCH  16  17
ENDBRANCH  13  16
ENDBRANCH   9  11
ENDBRANCH   7   9
ENDBRANCH   5   7
ENDBRANCH   2   5
BRANCH   1  24
HETATM   24  C   UNL     1       6.179  24.722  55.935  1.00  0.00     0.150 A 
HETATM   25  N   UNL     1       7.218  24.101  56.541  1.00  0.00    -0.165 NA
HETATM   26  N   UNL     1       7.698  23.289  55.588  1.00  0.00    -0.240 N 
HETATM   27  C   UNL     1       7.092  23.428  54.373  1.00  0.00     0.123 A 
HETATM   28  C   UNL     1       8.800  22.385  55.840  1.00  0.00     0.221 C 
HETATM   29  N   UNL     1       7.515  22.748  53.289  1.00  0.00    -0.371 N 
HETATM   30  C   UNL     1       6.072  24.325  54.571  1.00  0.00     0.089 A 
HETATM   31  C   UNL     1       8.733  21.944  53.280  1.00  0.00     0.081 C 
HETATM   32  H   UNL     1       7.052  22.865  52.389  1.00  0.00     0.161 HD
HETATM   33  C   UNL     1       8.389  20.485  53.002  1.00  0.00     0.032 C 
HETATM   34  C   UNL     1       9.588  22.158  54.541  1.00  0.00     0.061 C 
BRANCH  28  35
HETATM   35  C   UNL     1       8.285  21.120  56.486  1.00  0.00     0.409 C 
HETATM   36  F   UNL     1       8.203  21.235  57.832  1.00  0.00    -0.169 F 
HETATM   37  F   UNL     1       7.074  20.730  56.043  1.00  0.00    -0.169 F 
HETATM   38  F   UNL     1       9.141  20.092  56.244  1.00  0.00    -0.169 F 
ENDBRANCH  28  35
ENDBRANCH   1  24
TORSDOF 8
ENDMDL
MODEL 2
REMARK VINA RESULT:     -10.4      1.757      2.866
REMARK  8 active torsions:
REMARK  status: ('A' for Active; 'I' for Inactive)
REMARK    1  A    between atoms: C_7  and  C_8 
REMARK       I    between atoms: C_8  and  N_9 
REMARK    2  A    between atoms: N_9  and  N_10 
REMARK    3  A    between atoms: N_10  and  C_11 
REMARK    4  A    between atoms: C_11  and  N_12 
REMARK    5  A    between atoms: N_12  and  C_13 
REMARK    6  A    between atoms: N_15  and  C_16 
REMARK    7  A    between atoms: C_16  and  C_17 
REMARK    8  A    between atoms: C_29  and  C_30 
ROOT
HETATM    1  C   UNL     1       5.250  25.533  56.651  1.00  0.00     0.290 C 
HETATM    2  N   UNL     1       5.150  26.743  55.994  1.00  0.00    -0.262 N 
HETATM    3  O   UNL     1       4.674  25.252  57.698  1.00  0.00    -0.264 OA
HETATM    4  H   UNL     1       5.584  26.829  55.076  1.00  0.00     0.190 HD
ENDROOT
BRANCH   2   5
HETATM    5  N   UNL     1       4.228  27.711  56.389  1.00  0.00    -0.273 N 
HETATM    6  H   UNL     1       3.916  27.703  57.367  1.00  0.00     0.189 HD
BRANCH   5   7
HETATM    7  C   UNL     1       4.023  28.847  55.653  1.00  0.00     0.192 C 
HETATM    8  S   UNL     1       3.971  28.899  53.975  1.00  0.00    -0.039 SA
BRANCH   7   9
HETATM    9  N   UNL     1       3.859  30.020  56.333  1.00  0.00    -0.315 N 
HETATM   10  H   UNL     1       3.004  30.521  56.137  1.00  0.00     0.170 HD
BRANCH   9  11
HETATM   11  C   UNL     1       4.761  30.640  57.172  1.00  0.00     0.151 A 
HETATM   12  N   UNL     1       5.800  30.030  57.750  1.00  0.00    -0.154 NA
HETATM   13  N   UNL     1       6.420  31.011  58.441  1.00  0.00    -0.275 N 
HETATM   14  C   UNL     1       5.796  32.220  58.333  1.00  0.00     0.116 A 
HETATM   15  C   UNL     1       4.709  32.009  57.518  1.00  0.00     0.071 A 
BRANCH  13  16
HETATM   16  C   UNL     1       7.588  30.704  59.257  1.00  0.00     0.192 C 
BRANCH  16  17
HETATM   17  C   UNL     1       8.755  30.270  58.419  1.00  0.00     0.000 A 
HETATM   18  C   UNL     1       9.908  31.056  58.351  1.00  0.00     0.124 A 
HETATM   19  F   UNL     1       9.973  32.200  59.049  1.00  0.00    -0.205 F 
HETATM   20  C   UNL     1      11.000  30.677  57.575  1.00  0.00     0.043 A 
HETATM   21  C   UNL     1      10.948  29.491  56.847  1.00  0.00     0.003 A 
HETATM   22  C   UNL     1       9.802  28.696  56.894  1.00  0.00     0.001 A 
HETATM   23  C   UNL     1       8.708  29.084  57.671  1.00  0.00     0.012 A 
ENDBRANCH  16  17
ENDBRANCH  13  16
ENDBRANCH   9  11
ENDBRANCH   7   9
ENDBRANCH   5   7
ENDBRANCH   2   5
BRANCH   1  24
HETATM   24  C   UNL     1       6.146  24.601  55.947  1.00  0.00     0.150 A 
HETATM   25  N   UNL     1       7.159  23.973  56.588  1.00  0.00    -0.165 NA
HETATM   26  N   UNL     1       7.691  23.187  55.640  1.00  0.00    -0.240 N 
HETATM   27  C   UNL     1       7.142  23.353  54.401  1.00  0.00     0.123 A 
HETATM   28  C   UNL     1       8.785  22.284  55.924  1.00  0.00     0.221 C 
HETATM   29  N   UNL     1       7.623  22.701  53.323  1.00  0.00    -0.371 N 
HETATM   30  C   UNL     1       6.108  24.238  54.571  1.00  0.00     0.089 A 
HETATM   31  C   UNL     1       8.846  21.906  53.354  1.00  0.00     0.081 C 
HETATM   32  H   UNL     1       7.203  22.838  52.404  1.00  0.00     0.161 HD
HETATM   33  C   UNL     1       8.527  20.452  53.024  1.00  0.00     0.032 C 
HETATM   34  C   UNL     1       9.638  22.094  54.659  1.00  0.00     0.061 C 
BRANCH  28  35
HETATM   35  C   UNL     1       8.249  21.001  56.513  1.00  0.00     0.409 C 
HETATM   36  F   UNL     1       8.113  21.078  57.858  1.00  0.00    -0.169 F 
HETATM   37  F   UNL     1       7.058  20.621  56.010  1.00  0.00    -0.169 F 
HETATM   38  F   UNL     1       9.118  19.982  56.277  1.00  0.00    -0.169 F 
ENDBRANCH  28  35
ENDBRANCH   1  24
TORSDOF 8
ENDMDL
MODEL 3
REMARK VINA RESULT:     -10.2      5.245      8.806
REMARK  8 active torsions:
REMARK  status: ('A' for Active; 'I' for Inactive)
REMARK    1  A    between atoms: C_7  and  C_8 
REMARK       I    between atoms: C_8  and  N_9 
REMARK    2  A    between atoms: N_9  and  N_10 
REMARK    3  A    between atoms: N_10  and  C_11 
REMARK    4  A    between atoms: C_11  and  N_12 
REMARK    5  A    between atoms: N_12  and  C_13 
REMARK    6  A    between atoms: N_15  and  C_16 
REMARK    7  A    between atoms: C_16  and  C_17 
REMARK    8  A    between atoms: C_29  and  C_30 
ROOT
HETATM    1  C   UNL     1       6.879  27.492  53.277  1.00  0.00     0.290 C 
HETATM    2  N   UNL     1       6.734  28.702  53.926  1.00  0.00    -0.262 N 
HETATM    3  O   UNL     1       7.658  26.604  53.613  1.00  0.00    -0.264 OA
HETATM    4  H   UNL     1       5.981  29.320  53.626  1.00  0.00     0.190 HD
ENDROOT
BRANCH   2   5
HETATM    5  N   UNL     1       7.357  28.952  55.148  1.00  0.00    -0.273 N 
HETATM    6  H   UNL     1       8.332  29.271  55.130  1.00  0.00     0.189 HD
BRANCH   5   7
HETATM    7  C   UNL     1       6.634  29.141  56.295  1.00  0.00     0.192 C 
HETATM    8  S   UNL     1       5.756  30.528  56.651  1.00  0.00    -0.039 SA
BRANCH   7   9
HETATM    9  N   UNL     1       6.637  28.133  57.216  1.00  0.00    -0.315 N 
HETATM   10  H   UNL     1       6.564  28.426  58.181  1.00  0.00     0.170 HD
BRANCH   9  11
HETATM   11  C   UNL     1       6.825  26.786  56.991  1.00  0.00     0.151 A 
HETATM   12  N   UNL     1       8.019  26.190  56.925  1.00  0.00    -0.154 NA
HETATM   13  N   UNL     1       7.729  24.885  56.732  1.00  0.00    -0.275 N 
HETATM   14  C   UNL     1       6.389  24.639  56.657  1.00  0.00     0.116 A 
HETATM   15  C   UNL     1       5.774  25.858  56.817  1.00  0.00     0.071 A 
BRANCH  13  16
HETATM   16  C   UNL     1       8.803  23.916  56.554  1.00  0.00     0.192 C 
BRANCH  16  17
HETATM   17  C   UNL     1       8.459  22.888  55.515  1.00  0.00     0.000 A 
HETATM   18  C   UNL     1       8.259  21.555  55.880  1.00  0.00     0.124 A 
HETATM   19  F   UNL     1       8.365  21.196  57.168  1.00  0.00    -0.205 F 
HETATM   20  C   UNL     1       7.945  20.583  54.934  1.00  0.00     0.043 A 
HETATM   21  C   UNL     1       7.829  20.940  53.592  1.00  0.00     0.003 A 
HETATM   22  C   UNL     1       8.035  22.266  53.206  1.00  0.00     0.001 A 
HETATM   23  C   UNL     1       8.353  23.236  54.161  1.00  0.00     0.012 A 
ENDBRANCH  16  17
ENDBRANCH  13  16
ENDBRANCH   9  11
ENDBRANCH   7   9
ENDBRANCH   5   7
ENDBRANCH   2   5
BRANCH   1  24
HETATM   24  C   UNL     1       5.985  27.384  52.113  1.00  0.00     0.150 A 
HETATM   25  N   UNL     1       5.440  28.481  51.536  1.00  0.00    -0.165 NA
HETATM   26  N   UNL     1       4.752  27.980  50.499  1.00  0.00    -0.240 N 
HETATM   27  C   UNL     1       4.741  26.616  50.439  1.00  0.00     0.123 A 
HETATM   28  C   UNL     1       4.050  28.834  49.566  1.00  0.00     0.221 C 
HETATM   29  N   UNL     1       4.023  25.956  49.508  1.00  0.00    -0.371 N 
HETATM   30  C   UNL     1       5.565  26.195  51.452  1.00  0.00     0.089 A 
HETATM   31  C   UNL     1       3.088  26.620  48.606  1.00  0.00     0.081 C 
HETATM   32  H   UNL     1       4.024  24.937  49.478  1.00  0.00     0.161 HD
HETATM   33  C   UNL     1       3.537  26.429  47.161  1.00  0.00     0.032 C 
HETATM   34  C   UNL     1       2.835  28.086  48.996  1.00  0.00     0.061 C 
BRANCH  28  35
HETATM   35  C   UNL     1       5.013  29.348  48.521  1.00  0.00     0.409 C 
HETATM   36  F   UNL     1       6.004  28.463  48.265  1.00  0.00    -0.169 F 
HETATM   37  F   UNL     1       4.434  29.654  47.343  1.00  0.00    -0.169 F 
HETATM   38  F   UNL     1       5.620  30.481  48.965  1.00  0.00    -0.169 F 
ENDBRANCH  28  35
ENDBRANCH   1  24
TORSDOF 8
ENDMDL
MODEL 4
REMARK VINA RESULT:     -10.1      3.445     11.394
REMARK  8 active torsions:
REMARK  status: ('A' for Active; 'I' for Inactive)
REMARK    1  A    between atoms: C_7  and  C_8 
REMARK       I    between atoms: C_8  and  N_9 
REMARK    2  A    between atoms: N_9  and  N_10 
REMARK    3  A    between atoms: N_10  and  C_11 
REMARK    4  A    between atoms: C_11  and  N_12 
REMARK    5  A    between atoms: N_12  and  C_13 
REMARK    6  A    between atoms: N_15  and  C_16 
REMARK    7  A    between atoms: C_16  and  C_17 
REMARK    8  A    between atoms: C_29  and  C_30 
ROOT
HETATM    1  C   UNL     1       6.410  32.139  59.648  1.00  0.00     0.290 C 
HETATM    2  N   UNL     1       7.176  31.031  59.952  1.00  0.00    -0.262 N 
HETATM    3  O   UNL     1       6.179  32.542  58.512  1.00  0.00    -0.264 OA
HETATM    4  H   UNL     1       7.212  30.724  60.924  1.00  0.00     0.190 HD
ENDROOT
BRANCH   2   5
HETATM    5  N   UNL     1       7.620  30.159  58.960  1.00  0.00    -0.273 N 
HETATM    6  H   UNL     1       6.912  29.642  58.427  1.00  0.00     0.189 HD
BRANCH   5   7
HETATM    7  C   UNL     1       8.886  30.245  58.444  1.00  0.00     0.192 C 
HETATM    8  S   UNL     1       9.936  31.530  58.705  1.00  0.00    -0.039 SA
BRANCH   7   9
HETATM    9  N   UNL     1       9.317  29.218  57.654  1.00  0.00    -0.315 N 
HETATM   10  H   UNL     1      10.314  29.182  57.493  1.00  0.00     0.170 HD
BRANCH   9  11
HETATM   11  C   UNL     1       8.548  28.294  56.979  1.00  0.00     0.151 A 
HETATM   12  N   UNL     1       8.172  27.113  57.479  1.00  0.00    -0.154 NA
HETATM   13  N   UNL     1       7.414  26.565  56.505  1.00  0.00    -0.275 N 
HETATM   14  C   UNL     1       7.314  27.355  55.396  1.00  0.00     0.116 A 
HETATM   15  C   UNL     1       8.046  28.485  55.672  1.00  0.00     0.071 A 
BRANCH  13  16
HETATM   16  C   UNL     1       6.863  25.227  56.673  1.00  0.00     0.192 C 
BRANCH  16  17
HETATM   17  C   UNL     1       7.469  24.250  55.706  1.00  0.00     0.000 A 
HETATM   18  C   UNL     1       6.833  23.968  54.495  1.00  0.00     0.124 A 
HETATM   19  F   UNL     1       5.681  24.584  54.191  1.00  0.00    -0.205 F 
HETATM   20  C   UNL     1       7.372  23.062  53.586  1.00  0.00     0.043 A 
HETATM   21  C   UNL     1       8.569  22.416  53.886  1.00  0.00     0.003 A 
HETATM   22  C   UNL     1       9.215  22.677  55.095  1.00  0.00     0.001 A 
HETATM   23  C   UNL     1       8.667  23.585  56.005  1.00  0.00     0.012 A 
ENDBRANCH  16  17
ENDBRANCH  13  16
ENDBRANCH   9  11
ENDBRANCH   7   9
ENDBRANCH   5   7
ENDBRANCH   2   5
BRANCH   1  24
HETATM   24  C   UNL     1       5.899  32.800  60.859  1.00  0.00     0.150 A 
HETATM   25  N   UNL     1       6.105  32.278  62.091  1.00  0.00    -0.165 NA
HETATM   26  N   UNL     1       5.549  33.181  62.912  1.00  0.00    -0.240 N 
HETATM   27  C   UNL     1       4.906  34.201  62.271  1.00  0.00     0.123 A 
HETATM   28  C   UNL     1       5.598  33.037  64.351  1.00  0.00     0.221 C 
HETATM   29  N   UNL     1       4.221  35.143  62.951  1.00  0.00    -0.371 N 
HETATM   30  C   UNL     1       5.146  34.006  60.935  1.00  0.00     0.089 A 
HETATM   31  C   UNL     1       3.976  35.066  64.387  1.00  0.00     0.081 C 
HETATM   32  H   UNL     1       3.745  35.897  62.457  1.00  0.00     0.161 HD
HETATM   33  C   UNL     1       4.627  36.253  65.089  1.00  0.00     0.032 C 
HETATM   34  C   UNL     1       4.361  33.699  64.978  1.00  0.00     0.061 C 
BRANCH  28  35
HETATM   35  C   UNL     1       6.917  33.558  64.871  1.00  0.00     0.409 C 
HETATM   36  F   UNL     1       7.260  34.734  64.297  1.00  0.00    -0.169 F 
HETATM   37  F   UNL     1       6.948  33.739  66.206  1.00  0.00    -0.169 F 
HETATM   38  F   UNL     1       7.914  32.684  64.571  1.00  0.00    -0.169 F 
ENDBRANCH  28  35
ENDBRANCH   1  24
TORSDOF 8
ENDMDL
MODEL 5
REMARK VINA RESULT:     -10.0      1.581      2.066
REMARK  8 active torsions:
REMARK  status: ('A' for Active; 'I' for Inactive)
REMARK    1  A    between atoms: C_7  and  C_8 
REMARK       I    between atoms: C_8  and  N_9 
REMARK    2  A    between atoms: N_9  and  N_10 
REMARK    3  A    between atoms: N_10  and  C_11 
REMARK    4  A    between atoms: C_11  and  N_12 
REMARK    5  A    between atoms: N_12  and  C_13 
REMARK    6  A    between atoms: N_15  and  C_16 
REMARK    7  A    between atoms: C_16  and  C_17 
REMARK    8  A    between atoms: C_29  and  C_30 
ROOT
HETATM    1  C   UNL     1       5.606  25.742  56.863  1.00  0.00     0.290 C 
HETATM    2  N   UNL     1       6.137  27.010  56.746  1.00  0.00    -0.262 N 
HETATM    3  O   UNL     1       4.617  25.453  57.531  1.00  0.00    -0.264 OA
HETATM    4  H   UNL     1       6.894  27.154  56.078  1.00  0.00     0.190 HD
ENDROOT
BRANCH   2   5
HETATM    5  N   UNL     1       5.477  28.126  57.256  1.00  0.00    -0.273 N 
HETATM    6  H   UNL     1       5.854  28.557  58.107  1.00  0.00     0.189 HD
BRANCH   5   7
HETATM    7  C   UNL     1       4.609  28.858  56.489  1.00  0.00     0.192 C 
HETATM    8  S   UNL     1       4.348  28.613  54.848  1.00  0.00    -0.039 SA
BRANCH   7   9
HETATM    9  N   UNL     1       3.917  29.862  57.103  1.00  0.00    -0.315 N 
HETATM   10  H   UNL     1       2.910  29.798  57.041  1.00  0.00     0.170 HD
BRANCH   9  11
HETATM   11  C   UNL     1       4.428  30.992  57.706  1.00  0.00     0.151 A 
HETATM   12  N   UNL     1       4.744  31.080  59.001  1.00  0.00    -0.154 NA
HETATM   13  N   UNL     1       5.234  32.331  59.139  1.00  0.00    -0.275 N 
HETATM   14  C   UNL     1       5.222  33.044  57.975  1.00  0.00     0.116 A 
HETATM   15  C   UNL     1       4.697  32.200  57.025  1.00  0.00     0.071 A 
BRANCH  13  16
HETATM   16  C   UNL     1       5.640  32.817  60.452  1.00  0.00     0.192 C 
BRANCH  16  17
HETATM   17  C   UNL     1       6.972  32.262  60.864  1.00  0.00     0.000 A 
HETATM   18  C   UNL     1       7.104  31.556  62.062  1.00  0.00     0.124 A 
HETATM   19  F   UNL     1       6.029  31.363  62.841  1.00  0.00    -0.205 F 
HETATM   20  C   UNL     1       8.331  31.037  62.468  1.00  0.00     0.043 A 
HETATM   21  C   UNL     1       9.456  31.226  61.669  1.00  0.00     0.003 A 
HETATM   22  C   UNL     1       9.348  31.938  60.473  1.00  0.00     0.001 A 
HETATM   23  C   UNL     1       8.114  32.459  60.073  1.00  0.00     0.012 A 
ENDBRANCH  16  17
ENDBRANCH  13  16
ENDBRANCH   9  11
ENDBRANCH   7   9
ENDBRANCH   5   7
ENDBRANCH   2   5
BRANCH   1  24
HETATM   24  C   UNL     1       6.374  24.753  56.089  1.00  0.00     0.150 A 
HETATM   25  N   UNL     1       7.399  24.064  56.641  1.00  0.00    -0.165 NA
HETATM   26  N   UNL     1       7.792  23.243  55.655  1.00  0.00    -0.240 N 
HETATM   27  C   UNL     1       7.145  23.440  54.470  1.00  0.00     0.123 A 
HETATM   28  C   UNL     1       8.849  22.273  55.846  1.00  0.00     0.221 C 
HETATM   29  N   UNL     1       7.484  22.757  53.357  1.00  0.00    -0.371 N 
HETATM   30  C   UNL     1       6.188  24.389  54.724  1.00  0.00     0.089 A 
HETATM   31  C   UNL     1       8.652  21.885  53.284  1.00  0.00     0.081 C 
HETATM   32  H   UNL     1       6.992  22.917  52.479  1.00  0.00     0.161 HD
HETATM   33  C   UNL     1       8.214  20.453  52.997  1.00  0.00     0.032 C 
HETATM   34  C   UNL     1       9.570  22.027  54.511  1.00  0.00     0.061 C 
BRANCH  28  35
HETATM   35  C   UNL     1       8.289  21.028  56.493  1.00  0.00     0.409 C 
HETATM   36  F   UNL     1       8.232  21.138  57.840  1.00  0.00    -0.169 F 
HETATM   37  F   UNL     1       7.056  20.694  56.065  1.00  0.00    -0.169 F 
HETATM   38  F   UNL     1       9.096  19.966  56.232  1.00  0.00    -0.169 F 
ENDBRANCH  28  35
ENDBRANCH   1  24
TORSDOF 8
ENDMDL
MODEL 6
REMARK VINA RESULT:      -9.8      3.028     11.077
REMARK  8 active torsions:
REMARK  status: ('A' for Active; 'I' for Inactive)
REMARK    1  A    between atoms: C_7  and  C_8 
REMARK       I    between atoms: C_8  and  N_9 
REMARK    2  A    between atoms: N_9  and  N_10 
REMARK    3  A    between atoms: N_10  and  C_11 
REMARK    4  A    between atoms: C_11  and  N_12 
REMARK    5  A    between atoms: N_12  and  C_13 
REMARK    6  A    between atoms: N_15  and  C_16 
REMARK    7  A    between atoms: C_16  and  C_17 
REMARK    8  A    between atoms: C_29  and  C_30 
ROOT
HETATM    1  C   UNL     1       8.559  30.678  59.815  1.00  0.00     0.290 C 
HETATM    2  N   UNL     1       7.552  29.888  59.299  1.00  0.00    -0.262 N 
HETATM    3  O   UNL     1       9.722  30.681  59.419  1.00  0.00    -0.264 OA
HETATM    4  H   UNL     1       6.600  30.046  59.631  1.00  0.00     0.190 HD
ENDROOT
BRANCH   2   5
HETATM    5  N   UNL     1       7.738  29.133  58.142  1.00  0.00    -0.273 N 
HETATM    6  H   UNL     1       8.562  28.522  58.098  1.00  0.00     0.189 HD
BRANCH   5   7
HETATM    7  C   UNL     1       6.714  28.905  57.262  1.00  0.00     0.192 C 
HETATM    8  S   UNL     1       6.272  29.949  56.023  1.00  0.00    -0.039 SA
BRANCH   7   9
HETATM    9  N   UNL     1       5.998  27.752  57.412  1.00  0.00    -0.315 N 
HETATM   10  H   UNL     1       5.115  27.848  57.894  1.00  0.00     0.170 HD
BRANCH   9  11
HETATM   11  C   UNL     1       6.381  26.472  57.073  1.00  0.00     0.151 A 
HETATM   12  N   UNL     1       7.645  26.092  56.862  1.00  0.00    -0.154 NA
HETATM   13  N   UNL     1       7.556  24.771  56.599  1.00  0.00    -0.275 N 
HETATM   14  C   UNL     1       6.273  24.305  56.619  1.00  0.00     0.116 A 
HETATM   15  C   UNL     1       5.485  25.391  56.920  1.00  0.00     0.071 A 
BRANCH  13  16
HETATM   16  C   UNL     1       8.752  24.010  56.259  1.00  0.00     0.192 C 
BRANCH  16  17
HETATM   17  C   UNL     1       8.450  22.899  55.295  1.00  0.00     0.000 A 
HETATM   18  C   UNL     1       8.258  23.172  53.938  1.00  0.00     0.124 A 
HETATM   19  F   UNL     1       8.357  24.434  53.495  1.00  0.00    -0.205 F 
HETATM   20  C   UNL     1       7.971  22.159  53.028  1.00  0.00     0.043 A 
HETATM   21  C   UNL     1       7.868  20.843  53.472  1.00  0.00     0.003 A 
HETATM   22  C   UNL     1       8.047  20.550  54.825  1.00  0.00     0.001 A 
HETATM   23  C   UNL     1       8.331  21.572  55.735  1.00  0.00     0.012 A 
ENDBRANCH  16  17
ENDBRANCH  13  16
ENDBRANCH   9  11
ENDBRANCH   7   9
ENDBRANCH   5   7
ENDBRANCH   2   5
BRANCH   1  24
HETATM   24  C   UNL     1       8.080  31.525  60.918  1.00  0.00     0.150 A 
HETATM   25  N   UNL     1       6.976  32.298  60.789  1.00  0.00    -0.165 NA
HETATM   26  N   UNL     1       6.841  32.858  62.000  1.00  0.00    -0.240 N 
HETATM   27  C   UNL     1       7.854  32.570  62.868  1.00  0.00     0.123 A 
HETATM   28  C   UNL     1       5.731  33.730  62.318  1.00  0.00     0.221 C 
HETATM   29  N   UNL     1       7.913  33.124  64.096  1.00  0.00    -0.371 N 
HETATM   30  C   UNL     1       8.659  31.674  62.211  1.00  0.00     0.089 A 
HETATM   31  C   UNL     1       7.009  34.182  64.535  1.00  0.00     0.081 C 
HETATM   32  H   UNL     1       8.678  32.899  64.731  1.00  0.00     0.161 HD
HETATM   33  C   UNL     1       6.189  33.701  65.727  1.00  0.00     0.032 C 
HETATM   34  C   UNL     1       6.165  34.751  63.381  1.00  0.00     0.061 C 
BRANCH  28  35
HETATM   35  C   UNL     1       4.526  32.904  62.702  1.00  0.00     0.409 C 
HETATM   36  F   UNL     1       3.718  32.663  61.643  1.00  0.00    -0.169 F 
HETATM   37  F   UNL     1       4.830  31.713  63.253  1.00  0.00    -0.169 F 
HETATM   38  F   UNL     1       3.772  33.576  63.611  1.00  0.00    -0.169 F 
ENDBRANCH  28  35
ENDBRANCH   1  24
TORSDOF 8
ENDMDL
MODEL 7
REMARK VINA RESULT:      -9.8      2.409     10.199
REMARK  8 active torsions:
REMARK  status: ('A' for Active; 'I' for Inactive)
REMARK    1  A    between atoms: C_7  and  C_8 
REMARK       I    between atoms: C_8  and  N_9 
REMARK    2  A    between atoms: N_9  and  N_10 
REMARK    3  A    between atoms: N_10  and  C_11 
REMARK    4  A    between atoms: C_11  and  N_12 
REMARK    5  A    between atoms: N_12  and  C_13 
REMARK    6  A    between atoms: N_15  and  C_16 
REMARK    7  A    between atoms: C_16  and  C_17 
REMARK    8  A    between atoms: C_29  and  C_30 
ROOT
HETATM    1  C   UNL     1       7.743  29.666  56.960  1.00  0.00     0.290 C 
HETATM    2  N   UNL     1       6.719  29.662  56.033  1.00  0.00    -0.262 N 
HETATM    3  O   UNL     1       8.825  29.106  56.813  1.00  0.00    -0.264 OA
HETATM    4  H   UNL     1       5.906  30.250  56.213  1.00  0.00     0.190 HD
ENDROOT
BRANCH   2   5
HETATM    5  N   UNL     1       6.901  29.150  54.750  1.00  0.00    -0.273 N 
HETATM    6  H   UNL     1       7.864  29.017  54.421  1.00  0.00     0.189 HD
BRANCH   5   7
HETATM    7  C   UNL     1       5.895  28.498  54.089  1.00  0.00     0.192 C 
HETATM    8  S   UNL     1       4.270  28.580  54.507  1.00  0.00    -0.039 SA
BRANCH   7   9
HETATM    9  N   UNL     1       6.241  27.719  53.022  1.00  0.00    -0.315 N 
HETATM   10  H   UNL     1       6.379  28.212  52.150  1.00  0.00     0.170 HD
BRANCH   9  11
HETATM   11  C   UNL     1       6.326  26.344  52.975  1.00  0.00     0.151 A 
HETATM   12  N   UNL     1       7.472  25.658  52.931  1.00  0.00    -0.154 NA
HETATM   13  N   UNL     1       7.086  24.364  52.933  1.00  0.00    -0.275 N 
HETATM   14  C   UNL     1       5.730  24.209  52.961  1.00  0.00     0.116 A 
HETATM   15  C   UNL     1       5.207  25.480  52.982  1.00  0.00     0.071 A 
BRANCH  13  16
HETATM   16  C   UNL     1       8.081  23.304  52.835  1.00  0.00     0.192 C 
BRANCH  16  17
HETATM   17  C   UNL     1       8.144  22.482  54.090  1.00  0.00     0.000 A 
HETATM   18  C   UNL     1       7.879  21.110  54.050  1.00  0.00     0.124 A 
HETATM   19  F   UNL     1       7.578  20.526  52.881  1.00  0.00    -0.205 F 
HETATM   20  C   UNL     1       7.925  20.329  55.202  1.00  0.00     0.043 A 
HETATM   21  C   UNL     1       8.239  20.921  56.423  1.00  0.00     0.003 A 
HETATM   22  C   UNL     1       8.498  22.291  56.486  1.00  0.00     0.001 A 
HETATM   23  C   UNL     1       8.446  23.070  55.327  1.00  0.00     0.012 A 
ENDBRANCH  16  17
ENDBRANCH  13  16
ENDBRANCH   9  11
ENDBRANCH   7   9
ENDBRANCH   5   7
ENDBRANCH   2   5
BRANCH   1  24
HETATM   24  C   UNL     1       7.383  30.423  58.169  1.00  0.00     0.150 A 
HETATM   25  N   UNL     1       7.934  30.140  59.372  1.00  0.00    -0.165 NA
HETATM   26  N   UNL     1       7.405  31.065  60.187  1.00  0.00    -0.240 N 
HETATM   27  C   UNL     1       6.466  31.861  59.596  1.00  0.00     0.123 A 
HETATM   28  C   UNL     1       7.779  31.158  61.581  1.00  0.00     0.221 C 
HETATM   29  N   UNL     1       5.777  32.783  60.299  1.00  0.00    -0.371 N 
HETATM   30  C   UNL     1       6.453  31.497  58.273  1.00  0.00     0.089 A 
HETATM   31  C   UNL     1       5.855  32.897  61.752  1.00  0.00     0.081 C 
HETATM   32  H   UNL     1       5.078  33.368  59.843  1.00  0.00     0.161 HD
HETATM   33  C   UNL     1       6.409  34.264  62.135  1.00  0.00     0.032 C 
HETATM   34  C   UNL     1       6.600  31.714  62.395  1.00  0.00     0.061 C 
BRANCH  28  35
HETATM   35  C   UNL     1       9.059  31.951  61.714  1.00  0.00     0.409 C 
HETATM   36  F   UNL     1       9.070  32.711  62.834  1.00  0.00    -0.169 F 
HETATM   37  F   UNL     1      10.174  31.194  61.731  1.00  0.00    -0.169 F 
HETATM   38  F   UNL     1       9.184  32.811  60.669  1.00  0.00    -0.169 F 
ENDBRANCH  28  35
ENDBRANCH   1  24
TORSDOF 8
ENDMDL
MODEL 8
REMARK VINA RESULT:      -9.8      2.974     11.308
REMARK  8 active torsions:
REMARK  status: ('A' for Active; 'I' for Inactive)
REMARK    1  A    between atoms: C_7  and  C_8 
REMARK       I    between atoms: C_8  and  N_9 
REMARK    2  A    between atoms: N_9  and  N_10 
REMARK    3  A    between atoms: N_10  and  C_11 
REMARK    4  A    between atoms: C_11  and  N_12 
REMARK    5  A    between atoms: N_12  and  C_13 
REMARK    6  A    between atoms: N_15  and  C_16 
REMARK    7  A    between atoms: C_16  and  C_17 
REMARK    8  A    between atoms: C_29  and  C_30 
ROOT
HETATM    1  C   UNL     1       7.154  31.758  59.233  1.00  0.00     0.290 C 
HETATM    2  N   UNL     1       6.391  30.781  58.624  1.00  0.00    -0.262 N 
HETATM    3  O   UNL     1       8.274  32.104  58.867  1.00  0.00    -0.264 OA
HETATM    4  H   UNL     1       5.432  30.651  58.945  1.00  0.00     0.190 HD
ENDROOT
BRANCH   2   5
HETATM    5  N   UNL     1       6.771  30.212  57.410  1.00  0.00    -0.273 N 
HETATM    6  H   UNL     1       6.580  30.743  56.553  1.00  0.00     0.189 HD
BRANCH   5   7
HETATM    7  C   UNL     1       7.683  29.192  57.351  1.00  0.00     0.192 C 
HETATM    8  S   UNL     1       9.103  29.233  56.455  1.00  0.00    -0.039 SA
BRANCH   7   9
HETATM    9  N   UNL     1       7.411  28.060  58.065  1.00  0.00    -0.315 N 
HETATM   10  H   UNL     1       7.356  28.179  59.067  1.00  0.00     0.170 HD
BRANCH   9  11
HETATM   11  C   UNL     1       7.301  26.770  57.590  1.00  0.00     0.151 A 
HETATM   12  N   UNL     1       8.275  25.857  57.649  1.00  0.00    -0.154 NA
HETATM   13  N   UNL     1       7.724  24.747  57.112  1.00  0.00    -0.275 N 
HETATM   14  C   UNL     1       6.436  24.934  56.698  1.00  0.00     0.116 A 
HETATM   15  C   UNL     1       6.135  26.243  56.991  1.00  0.00     0.071 A 
BRANCH  13  16
HETATM   16  C   UNL     1       8.521  23.537  56.955  1.00  0.00     0.192 C 
BRANCH  16  17
HETATM   17  C   UNL     1       8.288  22.886  55.623  1.00  0.00     0.000 A 
HETATM   18  C   UNL     1       7.965  21.529  55.546  1.00  0.00     0.124 A 
HETATM   19  F   UNL     1       7.851  20.809  56.672  1.00  0.00    -0.205 F 
HETATM   20  C   UNL     1       7.751  20.902  54.321  1.00  0.00     0.043 A 
HETATM   21  C   UNL     1       7.863  21.636  53.143  1.00  0.00     0.003 A 
HETATM   22  C   UNL     1       8.195  22.991  53.198  1.00  0.00     0.001 A 
HETATM   23  C   UNL     1       8.411  23.614  54.430  1.00  0.00     0.012 A 
ENDBRANCH  16  17
ENDBRANCH  13  16
ENDBRANCH   9  11
ENDBRANCH   7   9
ENDBRANCH   5   7
ENDBRANCH   2   5
BRANCH   1  24
HETATM   24  C   UNL     1       6.467  32.344  60.395  1.00  0.00     0.150 A 
HETATM   25  N   UNL     1       6.758  31.957  61.659  1.00  0.00    -0.165 NA
HETATM   26  N   UNL     1       5.980  32.745  62.415  1.00  0.00    -0.240 N 
HETATM   27  C   UNL     1       5.131  33.544  61.705  1.00  0.00     0.123 A 
HETATM   28  C   UNL     1       6.023  32.698  63.861  1.00  0.00     0.221 C 
HETATM   29  N   UNL     1       4.223  34.331  62.317  1.00  0.00    -0.371 N 
HETATM   30  C   UNL     1       5.446  33.337  60.386  1.00  0.00     0.089 A 
HETATM   31  C   UNL     1       3.964  34.279  63.752  1.00  0.00     0.081 C 
HETATM   32  H   UNL     1       3.595  34.920  61.772  1.00  0.00     0.161 HD
HETATM   33  C   UNL     1       4.294  35.625  64.388  1.00  0.00     0.032 C 
HETATM   34  C   UNL     1       4.647  33.079  64.430  1.00  0.00     0.061 C 
BRANCH  28  35
HETATM   35  C   UNL     1       7.165  33.549  64.366  1.00  0.00     0.409 C 
HETATM   36  F   UNL     1       7.088  33.762  65.700  1.00  0.00    -0.169 F 
HETATM   37  F   UNL     1       8.385  33.037  64.111  1.00  0.00    -0.169 F 
HETATM   38  F   UNL     1       7.124  34.776  63.782  1.00  0.00    -0.169 F 
ENDBRANCH  28  35
ENDBRANCH   1  24
TORSDOF 8
ENDMDL
MODEL 9
REMARK VINA RESULT:      -9.8      3.734     11.649
REMARK  8 active torsions:
REMARK  status: ('A' for Active; 'I' for Inactive)
REMARK    1  A    between atoms: C_7  and  C_8 
REMARK       I    between atoms: C_8  and  N_9 
REMARK    2  A    between atoms: N_9  and  N_10 
REMARK    3  A    between atoms: N_10  and  C_11 
REMARK    4  A    between atoms: C_11  and  N_12 
REMARK    5  A    between atoms: N_12  and  C_13 
REMARK    6  A    between atoms: N_15  and  C_16 
REMARK    7  A    between atoms: C_16  and  C_17 
REMARK    8  A    between atoms: C_29  and  C_30 
ROOT
HETATM    1  C   UNL     1       7.967  31.263  61.841  1.00  0.00     0.290 C 
HETATM    2  N   UNL     1       7.525  30.990  60.562  1.00  0.00    -0.262 N 
HETATM    3  O   UNL     1       8.833  30.626  62.436  1.00  0.00    -0.264 OA
HETATM    4  H   UNL     1       6.881  31.649  60.126  1.00  0.00     0.190 HD
ENDROOT
BRANCH   2   5
HETATM    5  N   UNL     1       8.163  30.048  59.757  1.00  0.00    -0.273 N 
HETATM    6  H   UNL     1       8.783  29.370  60.214  1.00  0.00     0.189 HD
BRANCH   5   7
HETATM    7  C   UNL     1       7.721  29.771  58.490  1.00  0.00     0.192 C 
HETATM    8  S   UNL     1       6.379  30.481  57.773  1.00  0.00    -0.039 SA
BRANCH   7   9
HETATM    9  N   UNL     1       8.418  28.846  57.767  1.00  0.00    -0.315 N 
HETATM   10  H   UNL     1       9.422  28.868  57.884  1.00  0.00     0.170 HD
BRANCH   9  11
HETATM   11  C   UNL     1       7.924  27.962  56.832  1.00  0.00     0.151 A 
HETATM   12  N   UNL     1       7.350  26.791  57.128  1.00  0.00    -0.154 NA
HETATM   13  N   UNL     1       6.989  26.285  55.928  1.00  0.00    -0.275 N 
HETATM   14  C   UNL     1       7.331  27.091  54.881  1.00  0.00     0.116 A 
HETATM   15  C   UNL     1       7.946  28.188  55.437  1.00  0.00     0.071 A 
BRANCH  13  16
HETATM   16  C   UNL     1       6.372  24.967  55.847  1.00  0.00     0.192 C 
BRANCH  16  17
HETATM   17  C   UNL     1       7.233  23.995  55.092  1.00  0.00     0.000 A 
HETATM   18  C   UNL     1       8.350  23.420  55.702  1.00  0.00     0.124 A 
HETATM   19  F   UNL     1       8.647  23.731  56.973  1.00  0.00    -0.205 F 
HETATM   20  C   UNL     1       9.166  22.521  55.021  1.00  0.00     0.043 A 
HETATM   21  C   UNL     1       8.870  22.186  53.701  1.00  0.00     0.003 A 
HETATM   22  C   UNL     1       7.763  22.757  53.071  1.00  0.00     0.001 A 
HETATM   23  C   UNL     1       6.950  23.661  53.760  1.00  0.00     0.012 A 
ENDBRANCH  16  17
ENDBRANCH  13  16
ENDBRANCH   9  11
ENDBRANCH   7   9
ENDBRANCH   5   7
ENDBRANCH   2   5
BRANCH   1  24
HETATM   24  C   UNL     1       7.268  32.417  62.427  1.00  0.00     0.150 A 
HETATM   25  N   UNL     1       6.415  33.173  61.697  1.00  0.00    -0.165 NA
HETATM   26  N   UNL     1       5.952  34.068  62.583  1.00  0.00    -0.240 N 
HETATM   27  C   UNL     1       6.536  33.993  63.814  1.00  0.00     0.123 A 
HETATM   28  C   UNL     1       4.951  35.049  62.223  1.00  0.00     0.221 C 
HETATM   29  N   UNL     1       6.245  34.878  64.789  1.00  0.00    -0.371 N 
HETATM   30  C   UNL     1       7.371  32.906  63.760  1.00  0.00     0.089 A 
HETATM   31  C   UNL     1       5.420  36.061  64.570  1.00  0.00     0.081 C 
HETATM   32  H   UNL     1       6.692  34.809  65.703  1.00  0.00     0.161 HD
HETATM   33  C   UNL     1       4.169  35.990  65.438  1.00  0.00     0.032 C 
HETATM   34  C   UNL     1       5.136  36.312  63.079  1.00  0.00     0.061 C 
BRANCH  28  35
HETATM   35  C   UNL     1       3.575  34.431  62.312  1.00  0.00     0.409 C 
HETATM   36  F   UNL     1       3.212  33.832  61.154  1.00  0.00    -0.169 F 
HETATM   37  F   UNL     1       3.445  33.519  63.295  1.00  0.00    -0.169 F 
HETATM   38  F   UNL     1       2.647  35.396  62.547  1.00  0.00    -0.169 F 
ENDBRANCH  28  35
ENDBRANCH   1  24
TORSDOF 8
ENDMDL
MODEL 10
REMARK VINA RESULT:      -9.6      2.527      3.481
REMARK  8 active torsions:
REMARK  status: ('A' for Active; 'I' for Inactive)
REMARK    1  A    between atoms: C_7  and  C_8 
REMARK       I    between atoms: C_8  and  N_9 
REMARK    2  A    between atoms: N_9  and  N_10 
REMARK    3  A    between atoms: N_10  and  C_11 
REMARK    4  A    between atoms: C_11  and  N_12 
REMARK    5  A    between atoms: N_12  and  C_13 
REMARK    6  A    between atoms: N_15  and  C_16 
REMARK    7  A    between atoms: C_16  and  C_17 
REMARK    8  A    between atoms: C_29  and  C_30 
ROOT
HETATM    1  C   UNL     1       7.304  26.955  55.966  1.00  0.00     0.290 C 
HETATM    2  N   UNL     1       7.490  27.523  57.210  1.00  0.00    -0.262 N 
HETATM    3  O   UNL     1       6.984  27.570  54.953  1.00  0.00    -0.264 OA
HETATM    4  H   UNL     1       7.861  26.936  57.956  1.00  0.00     0.190 HD
ENDROOT
BRANCH   2   5
HETATM    5  N   UNL     1       7.494  28.906  57.385  1.00  0.00    -0.273 N 
HETATM    6  H   UNL     1       6.654  29.339  57.784  1.00  0.00     0.189 HD
BRANCH   5   7
HETATM    7  C   UNL     1       8.661  29.624  57.395  1.00  0.00     0.192 C 
HETATM    8  S   UNL     1      10.119  29.081  56.762  1.00  0.00    -0.039 SA
BRANCH   7   9
HETATM    9  N   UNL     1       8.635  30.862  57.969  1.00  0.00    -0.315 N 
HETATM   10  H   UNL     1       8.579  31.639  57.326  1.00  0.00     0.170 HD
BRANCH   9  11
HETATM   11  C   UNL     1       8.775  31.175  59.305  1.00  0.00     0.151 A 
HETATM   12  N   UNL     1       7.950  30.756  60.270  1.00  0.00    -0.154 NA
HETATM   13  N   UNL     1       8.482  31.261  61.404  1.00  0.00    -0.275 N 
HETATM   14  C   UNL     1       9.608  32.001  61.185  1.00  0.00     0.116 A 
HETATM   15  C   UNL     1       9.821  31.968  59.828  1.00  0.00     0.071 A 
BRANCH  13  16
HETATM   16  C   UNL     1       7.811  31.055  62.681  1.00  0.00     0.192 C 
BRANCH  16  17
HETATM   17  C   UNL     1       7.162  32.313  63.179  1.00  0.00     0.000 A 
HETATM   18  C   UNL     1       5.986  32.784  62.588  1.00  0.00     0.124 A 
HETATM   19  F   UNL     1       5.431  32.098  61.578  1.00  0.00    -0.205 F 
HETATM   20  C   UNL     1       5.370  33.951  63.029  1.00  0.00     0.043 A 
HETATM   21  C   UNL     1       5.933  34.673  64.079  1.00  0.00     0.003 A 
HETATM   22  C   UNL     1       7.112  34.226  64.676  1.00  0.00     0.001 A 
HETATM   23  C   UNL     1       7.728  33.054  64.227  1.00  0.00     0.012 A 
ENDBRANCH  16  17
ENDBRANCH  13  16
ENDBRANCH   9  11
ENDBRANCH   7   9
ENDBRANCH   5   7
ENDBRANCH   2   5
BRANCH   1  24
HETATM   24  C   UNL     1       7.529  25.501  55.990  1.00  0.00     0.150 A 
HETATM   25  N   UNL     1       7.090  24.700  54.991  1.00  0.00    -0.165 NA
HETATM   26  N   UNL     1       7.531  23.484  55.346  1.00  0.00    -0.240 N 
HETATM   27  C   UNL     1       8.139  23.442  56.567  1.00  0.00     0.123 A 
HETATM   28  C   UNL     1       7.323  22.322  54.509  1.00  0.00     0.221 C 
HETATM   29  N   UNL     1       8.561  22.281  57.108  1.00  0.00    -0.371 N 
HETATM   30  C   UNL     1       8.190  24.744  56.999  1.00  0.00     0.089 A 
HETATM   31  C   UNL     1       8.265  20.978  56.523  1.00  0.00     0.081 C 
HETATM   32  H   UNL     1       9.012  22.267  58.022  1.00  0.00     0.161 HD
HETATM   33  C   UNL     1       9.562  20.278  56.133  1.00  0.00     0.032 C 
HETATM   34  C   UNL     1       7.232  21.064  55.386  1.00  0.00     0.061 C 
BRANCH  28  35
HETATM   35  C   UNL     1       8.392  22.264  53.442  1.00  0.00     0.409 C 
HETATM   36  F   UNL     1       8.584  21.005  52.985  1.00  0.00    -0.169 F 
HETATM   37  F   UNL     1       8.145  23.046  52.374  1.00  0.00    -0.169 F 
HETATM   38  F   UNL     1       9.584  22.667  53.957  1.00  0.00    -0.169 F 
ENDBRANCH  28  35
ENDBRANCH   1  24
TORSDOF 8
ENDMDL
