MODEL 1
REMARK VINA RESULT:      -9.1      0.000      0.000
REMARK  6 active torsions:
REMARK  status: ('A' for Active; 'I' for Inactive)
REMARK    1  A    between atoms: C_2  and  O_3 
REMARK    2  A    between atoms: C_2  and  C_4 
REMARK    3  A    between atoms: C_6  and  N_7 
REMARK       I    between atoms: N_7  and  C_8 
REMARK    4  A    between atoms: C_8  and  C_9 
REMARK    5  A    between atoms: C_12  and  C_13 
REMARK    6  A    between atoms: C_18  and  C_19 
ROOT
HETATM    1  C   UNL     1       6.374  29.395  56.942  1.00  0.00     0.096 A 
HETATM    2  C   UNL     1       6.674  28.824  55.720  1.00  0.00     0.138 A 
HETATM    3  N   UNL     1       5.533  28.939  54.963  1.00  0.00    -0.240 N 
HETATM    4  C   UNL     1       5.409  28.530  53.577  1.00  0.00     0.221 C 
HETATM    5  C   UNL     1       6.793  28.222  52.979  1.00  0.00     0.067 C 
HETATM    6  C   UNL     1       7.758  27.512  53.945  1.00  0.00     0.125 C 
HETATM    7  N   UNL     1       7.801  28.245  55.222  1.00  0.00    -0.365 N 
HETATM    8  N   UNL     1       4.514  29.530  55.605  1.00  0.00    -0.181 NA
HETATM    9  C   UNL     1       5.013  29.766  56.822  1.00  0.00     0.160 A 
HETATM   10  H   UNL     1       8.460  27.821  55.879  1.00  0.00     0.162 HD
ENDROOT
BRANCH   1  11
HETATM   11  C   UNL     1       7.226  29.612  58.100  1.00  0.00     0.261 C 
HETATM   12  N   UNL     1       6.969  30.810  58.742  1.00  0.00    -0.323 N 
HETATM   13  H   UNL     1       6.183  31.335  58.374  1.00  0.00     0.169 HD
HETATM   14  O   UNL     1       8.026  28.756  58.455  1.00  0.00    -0.267 OA
BRANCH  12  15
HETATM   15  C   UNL     1       7.555  31.299  59.925  1.00  0.00     0.035 A 
HETATM   16  C   UNL     1       6.834  31.884  60.969  1.00  0.00     0.039 A 
HETATM   17  C   UNL     1       7.486  32.378  62.113  1.00  0.00    -0.028 A 
HETATM   18  C   UNL     1       8.884  32.287  62.190  1.00  0.00     0.010 A 
HETATM   19  C   UNL     1       9.609  31.691  61.160  1.00  0.00     0.003 A 
HETATM   20  C   UNL     1       8.946  31.195  60.037  1.00  0.00     0.029 A 
BRANCH  17  21
HETATM   21  C   UNL     1       6.681  33.031  63.217  1.00  0.00     0.147 C 
HETATM   22  C   UNL     1       7.514  33.269  64.468  1.00  0.00     0.044 C 
BRANCH  21  23
HETATM   23  O   UNL     1       5.557  32.223  63.559  1.00  0.00    -0.391 OA
HETATM   24  H   UNL     1       5.903  31.456  64.046  1.00  0.00     0.210 HD
ENDBRANCH  21  23
ENDBRANCH  17  21
ENDBRANCH  12  15
ENDBRANCH   1  11
BRANCH   4  25
HETATM   25  C   UNL     1       4.410  27.401  53.438  1.00  0.00     0.409 C 
HETATM   26  F   UNL     1       4.437  26.523  54.458  1.00  0.00    -0.169 F 
HETATM   27  F   UNL     1       3.140  27.853  53.324  1.00  0.00    -0.169 F 
HETATM   28  F   UNL     1       4.660  26.699  52.301  1.00  0.00    -0.169 F 
ENDBRANCH   4  25
BRANCH   6  29
HETATM   29  C   UNL     1       7.519  26.025  54.073  1.00  0.00     0.005 A 
HETATM   30  S   UNL     1       7.349  25.319  55.633  1.00  0.00    -0.104 SA
HETATM   31  C   UNL     1       7.122  23.757  54.980  1.00  0.00     0.050 A 
HETATM   32  C   UNL     1       7.144  23.764  53.605  1.00  0.00     0.008 A 
HETATM   33  C   UNL     1       7.358  25.073  53.082  1.00  0.00     0.017 A 
ENDBRANCH   6  29
TORSDOF 6
ENDMDL
MODEL 2
REMARK VINA RESULT:      -9.0      6.549      8.518
REMARK  6 active torsions:
REMARK  status: ('A' for Active; 'I' for Inactive)
REMARK    1  A    between atoms: C_2  and  O_3 
REMARK    2  A    between atoms: C_2  and  C_4 
REMARK    3  A    between atoms: C_6  and  N_7 
REMARK       I    between atoms: N_7  and  C_8 
REMARK    4  A    between atoms: C_8  and  C_9 
REMARK    5  A    between atoms: C_12  and  C_13 
REMARK    6  A    between atoms: C_18  and  C_19 
ROOT
HETATM    1  C   UNL     1       5.388  26.594  52.960  1.00  0.00     0.096 A 
HETATM    2  C   UNL     1       5.359  27.339  51.796  1.00  0.00     0.138 A 
HETATM    3  N   UNL     1       4.785  28.540  52.136  1.00  0.00    -0.240 N 
HETATM    4  C   UNL     1       4.611  29.664  51.236  1.00  0.00     0.221 C 
HETATM    5  C   UNL     1       5.411  29.446  49.939  1.00  0.00     0.067 C 
HETATM    6  C   UNL     1       5.406  27.995  49.426  1.00  0.00     0.125 C 
HETATM    7  N   UNL     1       5.775  27.086  50.524  1.00  0.00    -0.365 N 
HETATM    8  N   UNL     1       4.428  28.625  53.426  1.00  0.00    -0.181 NA
HETATM    9  C   UNL     1       4.755  27.425  53.914  1.00  0.00     0.160 A 
HETATM   10  H   UNL     1       5.817  26.112  50.212  1.00  0.00     0.162 HD
ENDROOT
BRANCH   1  11
HETATM   11  C   UNL     1       5.949  25.275  53.203  1.00  0.00     0.261 C 
HETATM   12  N   UNL     1       6.782  25.238  54.305  1.00  0.00    -0.323 N 
HETATM   13  H   UNL     1       6.833  26.101  54.836  1.00  0.00     0.169 HD
HETATM   14  O   UNL     1       5.628  24.321  52.504  1.00  0.00    -0.267 OA
BRANCH  12  15
HETATM   15  C   UNL     1       7.430  24.119  54.863  1.00  0.00     0.035 A 
HETATM   16  C   UNL     1       7.868  23.020  54.119  1.00  0.00     0.039 A 
HETATM   17  C   UNL     1       8.485  21.920  54.743  1.00  0.00    -0.028 A 
HETATM   18  C   UNL     1       8.647  21.935  56.137  1.00  0.00     0.010 A 
HETATM   19  C   UNL     1       8.227  23.033  56.884  1.00  0.00     0.003 A 
HETATM   20  C   UNL     1       7.628  24.122  56.248  1.00  0.00     0.029 A 
BRANCH  17  21
HETATM   21  C   UNL     1       8.925  20.732  53.915  1.00  0.00     0.147 C 
HETATM   22  C   UNL     1       8.021  20.509  52.711  1.00  0.00     0.044 C 
BRANCH  21  23
HETATM   23  O   UNL     1       8.935  19.547  54.709  1.00  0.00    -0.391 OA
HETATM   24  H   UNL     1       9.666  18.997  54.380  1.00  0.00     0.210 HD
ENDBRANCH  21  23
ENDBRANCH  17  21
ENDBRANCH  12  15
ENDBRANCH   1  11
BRANCH   4  25
HETATM   25  C   UNL     1       3.141  29.951  51.014  1.00  0.00     0.409 C 
HETATM   26  F   UNL     1       2.371  28.849  50.976  1.00  0.00    -0.169 F 
HETATM   27  F   UNL     1       2.632  30.771  51.961  1.00  0.00    -0.169 F 
HETATM   28  F   UNL     1       2.968  30.597  49.830  1.00  0.00    -0.169 F 
ENDBRANCH   4  25
BRANCH   6  29
HETATM   29  C   UNL     1       4.151  27.610  48.677  1.00  0.00     0.005 A 
HETATM   30  S   UNL     1       3.546  28.641  47.439  1.00  0.00    -0.104 SA
HETATM   31  C   UNL     1       2.236  27.596  47.110  1.00  0.00     0.050 A 
HETATM   32  C   UNL     1       2.263  26.469  47.898  1.00  0.00     0.008 A 
HETATM   33  C   UNL     1       3.374  26.470  48.791  1.00  0.00     0.017 A 
ENDBRANCH   6  29
TORSDOF 6
ENDMDL
MODEL 3
REMARK VINA RESULT:      -8.8      2.431      4.026
REMARK  6 active torsions:
REMARK  status: ('A' for Active; 'I' for Inactive)
REMARK    1  A    between atoms: C_2  and  O_3 
REMARK    2  A    between atoms: C_2  and  C_4 
REMARK    3  A    between atoms: C_6  and  N_7 
REMARK       I    between atoms: N_7  and  C_8 
REMARK    4  A    between atoms: C_8  and  C_9 
REMARK    5  A    between atoms: C_12  and  C_13 
REMARK    6  A    between atoms: C_18  and  C_19 
ROOT
HETATM    1  C   UNL     1       8.055  30.224  58.463  1.00  0.00     0.096 A 
HETATM    2  C   UNL     1       7.011  29.527  57.883  1.00  0.00     0.138 A 
HETATM    3  N   UNL     1       7.596  28.542  57.125  1.00  0.00    -0.240 N 
HETATM    4  C   UNL     1       6.876  27.522  56.386  1.00  0.00     0.221 C 
HETATM    5  C   UNL     1       5.391  27.507  56.793  1.00  0.00     0.067 C 
HETATM    6  C   UNL     1       4.788  28.901  57.040  1.00  0.00     0.125 C 
HETATM    7  N   UNL     1       5.658  29.657  57.957  1.00  0.00    -0.365 N 
HETATM    8  N   UNL     1       8.936  28.554  57.159  1.00  0.00    -0.181 NA
HETATM    9  C   UNL     1       9.214  29.605  57.937  1.00  0.00     0.160 A 
HETATM   10  H   UNL     1       5.270  30.579  58.173  1.00  0.00     0.162 HD
ENDROOT
BRANCH   1  11
HETATM   11  C   UNL     1       8.021  31.322  59.415  1.00  0.00     0.261 C 
HETATM   12  N   UNL     1       7.304  31.023  60.558  1.00  0.00    -0.323 N 
HETATM   13  H   UNL     1       6.966  30.068  60.617  1.00  0.00     0.169 HD
HETATM   14  O   UNL     1       8.637  32.358  59.195  1.00  0.00    -0.267 OA
BRANCH  12  15
HETATM   15  C   UNL     1       7.130  31.823  61.704  1.00  0.00     0.035 A 
HETATM   16  C   UNL     1       5.935  32.469  62.030  1.00  0.00     0.039 A 
HETATM   17  C   UNL     1       5.837  33.278  63.177  1.00  0.00    -0.028 A 
HETATM   18  C   UNL     1       6.968  33.439  63.992  1.00  0.00     0.010 A 
HETATM   19  C   UNL     1       8.159  32.785  63.683  1.00  0.00     0.003 A 
HETATM   20  C   UNL     1       8.236  31.977  62.547  1.00  0.00     0.029 A 
BRANCH  17  21
HETATM   21  C   UNL     1       4.537  33.987  63.491  1.00  0.00     0.147 C 
HETATM   22  C   UNL     1       4.723  35.492  63.614  1.00  0.00     0.044 C 
BRANCH  21  23
HETATM   23  O   UNL     1       3.979  33.491  64.706  1.00  0.00    -0.391 OA
HETATM   24  H   UNL     1       4.477  32.688  64.934  1.00  0.00     0.210 HD
ENDBRANCH  21  23
ENDBRANCH  17  21
ENDBRANCH  12  15
ENDBRANCH   1  11
BRANCH   4  25
HETATM   25  C   UNL     1       7.108  27.674  54.898  1.00  0.00     0.409 C 
HETATM   26  F   UNL     1       7.271  28.949  54.500  1.00  0.00    -0.169 F 
HETATM   27  F   UNL     1       8.184  26.974  54.473  1.00  0.00    -0.169 F 
HETATM   28  F   UNL     1       6.045  27.177  54.210  1.00  0.00    -0.169 F 
ENDBRANCH   4  25
BRANCH   6  29
HETATM   29  C   UNL     1       4.400  29.638  55.779  1.00  0.00     0.005 A 
HETATM   30  S   UNL     1       4.734  31.320  55.636  1.00  0.00    -0.104 SA
HETATM   31  C   UNL     1       4.060  31.394  54.068  1.00  0.00     0.050 A 
HETATM   32  C   UNL     1       3.613  30.165  53.639  1.00  0.00     0.008 A 
HETATM   33  C   UNL     1       3.822  29.151  54.619  1.00  0.00     0.017 A 
ENDBRANCH   6  29
TORSDOF 6
ENDMDL
MODEL 4
REMARK VINA RESULT:      -8.8      5.186      9.277
REMARK  6 active torsions:
REMARK  status: ('A' for Active; 'I' for Inactive)
REMARK    1  A    between atoms: C_2  and  O_3 
REMARK    2  A    between atoms: C_2  and  C_4 
REMARK    3  A    between atoms: C_6  and  N_7 
REMARK       I    between atoms: N_7  and  C_8 
REMARK    4  A    between atoms: C_8  and  C_9 
REMARK    5  A    between atoms: C_12  and  C_13 
REMARK    6  A    between atoms: C_18  and  C_19 
ROOT
HETATM    1  C   UNL     1       5.081  28.082  53.772  1.00  0.00     0.096 A 
HETATM    2  C   UNL     1       5.262  26.968  54.570  1.00  0.00     0.138 A 
HETATM    3  N   UNL     1       5.857  27.425  55.721  1.00  0.00    -0.240 N 
HETATM    4  C   UNL     1       6.174  26.607  56.876  1.00  0.00     0.221 C 
HETATM    5  C   UNL     1       5.497  25.229  56.763  1.00  0.00     0.067 C 
HETATM    6  C   UNL     1       5.484  24.643  55.340  1.00  0.00     0.125 C 
HETATM    7  N   UNL     1       4.963  25.650  54.401  1.00  0.00    -0.365 N 
HETATM    8  N   UNL     1       6.086  28.746  55.725  1.00  0.00    -0.181 NA
HETATM    9  C   UNL     1       5.655  29.136  54.522  1.00  0.00     0.160 A 
HETATM   10  H   UNL     1       4.906  25.284  53.447  1.00  0.00     0.162 HD
ENDROOT
BRANCH   1  11
HETATM   11  C   UNL     1       4.436  28.199  52.475  1.00  0.00     0.261 C 
HETATM   12  N   UNL     1       5.227  27.742  51.436  1.00  0.00    -0.323 N 
HETATM   13  H   UNL     1       6.107  27.323  51.718  1.00  0.00     0.169 HD
HETATM   14  O   UNL     1       3.286  28.609  52.384  1.00  0.00    -0.267 OA
BRANCH  12  15
HETATM   15  C   UNL     1       4.891  27.645  50.072  1.00  0.00     0.035 A 
HETATM   16  C   UNL     1       3.981  26.718  49.557  1.00  0.00     0.039 A 
HETATM   17  C   UNL     1       3.711  26.657  48.177  1.00  0.00    -0.028 A 
HETATM   18  C   UNL     1       4.382  27.537  47.315  1.00  0.00     0.010 A 
HETATM   19  C   UNL     1       5.279  28.474  47.823  1.00  0.00     0.003 A 
HETATM   20  C   UNL     1       5.527  28.531  49.195  1.00  0.00     0.029 A 
BRANCH  17  21
HETATM   21  C   UNL     1       2.741  25.624  47.644  1.00  0.00     0.147 C 
HETATM   22  C   UNL     1       3.037  24.231  48.180  1.00  0.00     0.044 C 
BRANCH  21  23
HETATM   23  O   UNL     1       2.784  25.588  46.219  1.00  0.00    -0.391 OA
HETATM   24  H   UNL     1       1.862  25.554  45.913  1.00  0.00     0.210 HD
ENDBRANCH  21  23
ENDBRANCH  17  21
ENDBRANCH  12  15
ENDBRANCH   1  11
BRANCH   4  25
HETATM   25  C   UNL     1       7.670  26.545  57.095  1.00  0.00     0.409 C 
HETATM   26  F   UNL     1       8.074  25.467  57.792  1.00  0.00    -0.169 F 
HETATM   27  F   UNL     1       8.359  26.557  55.931  1.00  0.00    -0.169 F 
HETATM   28  F   UNL     1       8.084  27.642  57.784  1.00  0.00    -0.169 F 
ENDBRANCH   4  25
BRANCH   6  29
HETATM   29  C   UNL     1       6.787  24.000  54.926  1.00  0.00     0.005 A 
HETATM   30  S   UNL     1       7.550  22.866  55.971  1.00  0.00    -0.104 SA
HETATM   31  C   UNL     1       8.841  22.620  54.881  1.00  0.00     0.050 A 
HETATM   32  C   UNL     1       8.692  23.357  53.729  1.00  0.00     0.008 A 
HETATM   33  C   UNL     1       7.501  24.141  53.748  1.00  0.00     0.017 A 
ENDBRANCH   6  29
TORSDOF 6
ENDMDL
MODEL 5
REMARK VINA RESULT:      -8.6      2.520      3.872
REMARK  6 active torsions:
REMARK  status: ('A' for Active; 'I' for Inactive)
REMARK    1  A    between atoms: C_2  and  O_3 
REMARK    2  A    between atoms: C_2  and  C_4 
REMARK    3  A    between atoms: C_6  and  N_7 
REMARK       I    between atoms: N_7  and  C_8 
REMARK    4  A    between atoms: C_8  and  C_9 
REMARK    5  A    between atoms: C_12  and  C_13 
REMARK    6  A    between atoms: C_18  and  C_19 
ROOT
HETATM    1  C   UNL     1       6.716  27.149  56.303  1.00  0.00     0.096 A 
HETATM    2  C   UNL     1       6.041  26.645  55.207  1.00  0.00     0.138 A 
HETATM    3  N   UNL     1       6.814  25.611  54.736  1.00  0.00    -0.240 N 
HETATM    4  C   UNL     1       6.459  24.744  53.628  1.00  0.00     0.221 C 
HETATM    5  C   UNL     1       4.984  24.944  53.237  1.00  0.00     0.067 C 
HETATM    6  C   UNL     1       4.502  26.405  53.304  1.00  0.00     0.125 C 
HETATM    7  N   UNL     1       4.864  26.980  54.610  1.00  0.00    -0.365 N 
HETATM    8  N   UNL     1       7.941  25.414  55.434  1.00  0.00    -0.181 NA
HETATM    9  C   UNL     1       7.902  26.379  56.359  1.00  0.00     0.160 A 
HETATM   10  H   UNL     1       4.529  27.942  54.706  1.00  0.00     0.162 HD
ENDROOT
BRANCH   1  11
HETATM   11  C   UNL     1       6.329  28.202  57.227  1.00  0.00     0.261 C 
HETATM   12  N   UNL     1       7.403  28.945  57.678  1.00  0.00    -0.323 N 
HETATM   13  H   UNL     1       8.296  28.713  57.256  1.00  0.00     0.169 HD
HETATM   14  O   UNL     1       5.149  28.399  57.490  1.00  0.00    -0.267 OA
BRANCH  12  15
HETATM   15  C   UNL     1       7.381  30.075  58.520  1.00  0.00     0.035 A 
HETATM   16  C   UNL     1       8.167  30.209  59.667  1.00  0.00     0.039 A 
HETATM   17  C   UNL     1       8.076  31.354  60.479  1.00  0.00    -0.028 A 
HETATM   18  C   UNL     1       7.168  32.364  60.127  1.00  0.00     0.010 A 
HETATM   19  C   UNL     1       6.392  32.246  58.976  1.00  0.00     0.003 A 
HETATM   20  C   UNL     1       6.503  31.109  58.174  1.00  0.00     0.029 A 
BRANCH  17  21
HETATM   21  C   UNL     1       8.920  31.460  61.731  1.00  0.00     0.147 C 
HETATM   22  C   UNL     1       8.225  32.259  62.824  1.00  0.00     0.044 C 
BRANCH  21  23
HETATM   23  O   UNL     1      10.173  32.075  61.437  1.00  0.00    -0.391 OA
HETATM   24  H   UNL     1      10.751  31.910  62.200  1.00  0.00     0.210 HD
ENDBRANCH  21  23
ENDBRANCH  17  21
ENDBRANCH  12  15
ENDBRANCH   1  11
BRANCH   4  25
HETATM   25  C   UNL     1       7.432  24.915  52.481  1.00  0.00     0.409 C 
HETATM   26  F   UNL     1       6.873  24.761  51.267  1.00  0.00    -0.169 F 
HETATM   27  F   UNL     1       8.037  26.125  52.500  1.00  0.00    -0.169 F 
HETATM   28  F   UNL     1       8.430  23.997  52.578  1.00  0.00    -0.169 F 
ENDBRANCH   4  25
BRANCH   6  29
HETATM   29  C   UNL     1       4.898  27.240  52.109  1.00  0.00     0.005 A 
HETATM   30  S   UNL     1       5.548  28.816  52.346  1.00  0.00    -0.104 SA
HETATM   31  C   UNL     1       5.726  29.073  50.668  1.00  0.00     0.050 A 
HETATM   32  C   UNL     1       5.331  27.980  49.932  1.00  0.00     0.008 A 
HETATM   33  C   UNL     1       4.867  26.918  50.763  1.00  0.00     0.017 A 
ENDBRANCH   6  29
TORSDOF 6
ENDMDL
MODEL 6
REMARK VINA RESULT:      -8.6      6.400      8.305
REMARK  6 active torsions:
REMARK  status: ('A' for Active; 'I' for Inactive)
REMARK    1  A    between atoms: C_2  and  O_3 
REMARK    2  A    between atoms: C_2  and  C_4 
REMARK    3  A    between atoms: C_6  and  N_7 
REMARK       I    between atoms: N_7  and  C_8 
REMARK    4  A    between atoms: C_8  and  C_9 
REMARK    5  A    between atoms: C_12  and  C_13 
REMARK    6  A    between atoms: C_18  and  C_19 
ROOT
HETATM    1  C   UNL     1       4.899  27.065  52.848  1.00  0.00     0.096 A 
HETATM    2  C   UNL     1       5.001  27.808  51.686  1.00  0.00     0.138 A 
HETATM    3  N   UNL     1       4.642  29.089  52.029  1.00  0.00    -0.240 N 
HETATM    4  C   UNL     1       4.667  30.229  51.132  1.00  0.00     0.221 C 
HETATM    5  C   UNL     1       5.420  29.879  49.836  1.00  0.00     0.067 C 
HETATM    6  C   UNL     1       5.164  28.452  49.319  1.00  0.00     0.125 C 
HETATM    7  N   UNL     1       5.369  27.490  50.415  1.00  0.00    -0.365 N 
HETATM    8  N   UNL     1       4.304  29.231  53.319  1.00  0.00    -0.181 NA
HETATM    9  C   UNL     1       4.417  27.991  53.805  1.00  0.00     0.160 A 
HETATM   10  H   UNL     1       5.242  26.525  50.100  1.00  0.00     0.162 HD
ENDROOT
BRANCH   1  11
HETATM   11  C   UNL     1       5.222  25.669  53.088  1.00  0.00     0.261 C 
HETATM   12  N   UNL     1       6.566  25.462  53.340  1.00  0.00    -0.323 N 
HETATM   13  H   UNL     1       7.128  26.305  53.398  1.00  0.00     0.169 HD
HETATM   14  O   UNL     1       4.341  24.819  53.113  1.00  0.00    -0.267 OA
BRANCH  12  15
HETATM   15  C   UNL     1       7.207  24.255  53.679  1.00  0.00     0.035 A 
HETATM   16  C   UNL     1       7.596  23.915  54.977  1.00  0.00     0.039 A 
HETATM   17  C   UNL     1       8.257  22.703  55.243  1.00  0.00    -0.028 A 
HETATM   18  C   UNL     1       8.535  21.834  54.176  1.00  0.00     0.010 A 
HETATM   19  C   UNL     1       8.136  22.157  52.881  1.00  0.00     0.003 A 
HETATM   20  C   UNL     1       7.470  23.359  52.636  1.00  0.00     0.029 A 
BRANCH  17  21
HETATM   21  C   UNL     1       8.691  22.374  56.655  1.00  0.00     0.147 C 
HETATM   22  C   UNL     1       8.315  20.954  57.053  1.00  0.00     0.044 C 
BRANCH  21  23
HETATM   23  O   UNL     1       8.101  23.284  57.582  1.00  0.00    -0.391 OA
HETATM   24  H   UNL     1       8.061  22.823  58.438  1.00  0.00     0.210 HD
ENDBRANCH  21  23
ENDBRANCH  17  21
ENDBRANCH  12  15
ENDBRANCH   1  11
BRANCH   4  25
HETATM   25  C   UNL     1       3.270  30.767  50.910  1.00  0.00     0.409 C 
HETATM   26  F   UNL     1       2.869  31.645  51.847  1.00  0.00    -0.169 F 
HETATM   27  F   UNL     1       3.139  31.368  49.705  1.00  0.00    -0.169 F 
HETATM   28  F   UNL     1       2.373  29.744  50.915  1.00  0.00    -0.169 F 
ENDBRANCH   4  25
BRANCH   6  29
HETATM   29  C   UNL     1       3.863  28.292  48.567  1.00  0.00     0.005 A 
HETATM   30  S   UNL     1       3.497  29.350  47.260  1.00  0.00    -0.104 SA
HETATM   31  C   UNL     1       2.000  28.583  46.964  1.00  0.00     0.050 A 
HETATM   32  C   UNL     1       1.785  27.524  47.816  1.00  0.00     0.008 A 
HETATM   33  C   UNL     1       2.864  27.347  48.730  1.00  0.00     0.017 A 
ENDBRANCH   6  29
TORSDOF 6
ENDMDL
MODEL 7
REMARK VINA RESULT:      -8.6      7.090      9.226
REMARK  6 active torsions:
REMARK  status: ('A' for Active; 'I' for Inactive)
REMARK    1  A    between atoms: C_2  and  O_3 
REMARK    2  A    between atoms: C_2  and  C_4 
REMARK    3  A    between atoms: C_6  and  N_7 
REMARK       I    between atoms: N_7  and  C_8 
REMARK    4  A    between atoms: C_8  and  C_9 
REMARK    5  A    between atoms: C_12  and  C_13 
REMARK    6  A    between atoms: C_18  and  C_19 
ROOT
HETATM    1  C   UNL     1       4.946  26.922  50.938  1.00  0.00     0.096 A 
HETATM    2  C   UNL     1       4.240  28.091  50.720  1.00  0.00     0.138 A 
HETATM    3  N   UNL     1       3.565  27.905  49.538  1.00  0.00    -0.240 N 
HETATM    4  C   UNL     1       2.640  28.854  48.950  1.00  0.00     0.221 C 
HETATM    5  C   UNL     1       2.290  29.964  49.958  1.00  0.00     0.067 C 
HETATM    6  C   UNL     1       3.473  30.424  50.829  1.00  0.00     0.125 C 
HETATM    7  N   UNL     1       4.128  29.249  51.427  1.00  0.00    -0.365 N 
HETATM    8  N   UNL     1       3.788  26.712  48.968  1.00  0.00    -0.181 NA
HETATM    9  C   UNL     1       4.663  26.134  49.797  1.00  0.00     0.160 A 
HETATM   10  H   UNL     1       4.899  29.518  52.043  1.00  0.00     0.162 HD
ENDROOT
BRANCH   1  11
HETATM   11  C   UNL     1       5.775  26.536  52.068  1.00  0.00     0.261 C 
HETATM   12  N   UNL     1       5.659  25.196  52.388  1.00  0.00    -0.323 N 
HETATM   13  H   UNL     1       5.080  24.651  51.759  1.00  0.00     0.169 HD
HETATM   14  O   UNL     1       6.525  27.346  52.598  1.00  0.00    -0.267 OA
BRANCH  12  15
HETATM   15  C   UNL     1       6.366  24.478  53.373  1.00  0.00     0.035 A 
HETATM   16  C   UNL     1       7.257  23.439  53.092  1.00  0.00     0.039 A 
HETATM   17  C   UNL     1       7.911  22.745  54.126  1.00  0.00    -0.028 A 
HETATM   18  C   UNL     1       7.645  23.102  55.456  1.00  0.00     0.010 A 
HETATM   19  C   UNL     1       6.770  24.147  55.745  1.00  0.00     0.003 A 
HETATM   20  C   UNL     1       6.138  24.834  54.707  1.00  0.00     0.029 A 
BRANCH  17  21
HETATM   21  C   UNL     1       8.851  21.606  53.793  1.00  0.00     0.147 C 
HETATM   22  C   UNL     1       8.192  20.563  52.901  1.00  0.00     0.044 C 
BRANCH  21  23
HETATM   23  O   UNL     1       9.307  20.971  54.985  1.00  0.00    -0.391 OA
HETATM   24  H   UNL     1       9.149  20.018  54.871  1.00  0.00     0.210 HD
ENDBRANCH  21  23
ENDBRANCH  17  21
ENDBRANCH  12  15
ENDBRANCH   1  11
BRANCH   4  25
HETATM   25  C   UNL     1       3.166  29.366  47.626  1.00  0.00     0.409 C 
HETATM   26  F   UNL     1       2.820  30.638  47.358  1.00  0.00    -0.169 F 
HETATM   27  F   UNL     1       4.514  29.285  47.546  1.00  0.00    -0.169 F 
HETATM   28  F   UNL     1       2.686  28.601  46.609  1.00  0.00    -0.169 F 
ENDBRANCH   4  25
BRANCH   6  29
HETATM   29  C   UNL     1       4.407  31.392  50.140  1.00  0.00     0.005 A 
HETATM   30  S   UNL     1       3.828  32.938  49.656  1.00  0.00    -0.104 SA
HETATM   31  C   UNL     1       5.348  33.387  49.019  1.00  0.00     0.050 A 
HETATM   32  C   UNL     1       6.292  32.401  49.191  1.00  0.00     0.008 A 
HETATM   33  C   UNL     1       5.753  31.257  49.850  1.00  0.00     0.017 A 
ENDBRANCH   6  29
TORSDOF 6
ENDMDL
MODEL 8
REMARK VINA RESULT:      -8.6      6.068      7.851
REMARK  6 active torsions:
REMARK  status: ('A' for Active; 'I' for Inactive)
REMARK    1  A    between atoms: C_2  and  O_3 
REMARK    2  A    between atoms: C_2  and  C_4 
REMARK    3  A    between atoms: C_6  and  N_7 
REMARK       I    between atoms: N_7  and  C_8 
REMARK    4  A    between atoms: C_8  and  C_9 
REMARK    5  A    between atoms: C_12  and  C_13 
REMARK    6  A    between atoms: C_18  and  C_19 
ROOT
HETATM    1  C   UNL     1       4.948  28.335  52.536  1.00  0.00     0.096 A 
HETATM    2  C   UNL     1       4.710  28.656  51.212  1.00  0.00     0.138 A 
HETATM    3  N   UNL     1       3.617  29.487  51.220  1.00  0.00    -0.240 N 
HETATM    4  C   UNL     1       3.049  30.128  50.049  1.00  0.00     0.221 C 
HETATM    5  C   UNL     1       4.000  29.991  48.845  1.00  0.00     0.067 C 
HETATM    6  C   UNL     1       4.715  28.632  48.753  1.00  0.00     0.125 C 
HETATM    7  N   UNL     1       5.335  28.316  50.051  1.00  0.00    -0.365 N 
HETATM    8  N   UNL     1       3.120  29.719  52.444  1.00  0.00    -0.181 NA
HETATM    9  C   UNL     1       3.903  28.982  53.237  1.00  0.00     0.160 A 
HETATM   10  H   UNL     1       5.851  27.433  50.019  1.00  0.00     0.162 HD
ENDROOT
BRANCH   1  11
HETATM   11  C   UNL     1       6.019  27.545  53.121  1.00  0.00     0.261 C 
HETATM   12  N   UNL     1       5.738  26.191  53.146  1.00  0.00    -0.323 N 
HETATM   13  H   UNL     1       4.872  25.923  52.692  1.00  0.00     0.169 HD
HETATM   14  O   UNL     1       7.062  28.076  53.478  1.00  0.00    -0.267 OA
BRANCH  12  15
HETATM   15  C   UNL     1       6.575  25.143  53.575  1.00  0.00     0.035 A 
HETATM   16  C   UNL     1       6.822  24.841  54.916  1.00  0.00     0.039 A 
HETATM   17  C   UNL     1       7.692  23.795  55.276  1.00  0.00    -0.028 A 
HETATM   18  C   UNL     1       8.324  23.060  54.262  1.00  0.00     0.010 A 
HETATM   19  C   UNL     1       8.071  23.344  52.922  1.00  0.00     0.003 A 
HETATM   20  C   UNL     1       7.196  24.377  52.582  1.00  0.00     0.029 A 
BRANCH  17  21
HETATM   21  C   UNL     1       7.962  23.508  56.738  1.00  0.00     0.147 C 
HETATM   22  C   UNL     1       8.972  24.478  57.333  1.00  0.00     0.044 C 
BRANCH  21  23
HETATM   23  O   UNL     1       8.448  22.178  56.903  1.00  0.00    -0.391 OA
HETATM   24  H   UNL     1       9.384  22.253  57.156  1.00  0.00     0.210 HD
ENDBRANCH  21  23
ENDBRANCH  17  21
ENDBRANCH  12  15
ENDBRANCH   1  11
BRANCH   4  25
HETATM   25  C   UNL     1       1.646  29.624  49.788  1.00  0.00     0.409 C 
HETATM   26  F   UNL     1       1.472  28.323  50.084  1.00  0.00    -0.169 F 
HETATM   27  F   UNL     1       0.715  30.325  50.475  1.00  0.00    -0.169 F 
HETATM   28  F   UNL     1       1.334  29.778  48.474  1.00  0.00    -0.169 F 
ENDBRANCH   4  25
BRANCH   6  29
HETATM   29  C   UNL     1       3.868  27.527  48.167  1.00  0.00     0.005 A 
HETATM   30  S   UNL     1       3.930  25.949  48.851  1.00  0.00    -0.104 SA
HETATM   31  C   UNL     1       2.791  25.341  47.733  1.00  0.00     0.050 A 
HETATM   32  C   UNL     1       2.343  26.315  46.871  1.00  0.00     0.008 A 
HETATM   33  C   UNL     1       2.953  27.578  47.130  1.00  0.00     0.017 A 
ENDBRANCH   6  29
TORSDOF 6
ENDMDL
MODEL 9
REMARK VINA RESULT:      -8.4      3.889      8.367
REMARK  6 active torsions:
REMARK  status: ('A' for Active; 'I' for Inactive)
REMARK    1  A    between atoms: C_2  and  O_3 
REMARK    2  A    between atoms: C_2  and  C_4 
REMARK    3  A    between atoms: C_6  and  N_7 
REMARK       I    between atoms: N_7  and  C_8 
REMARK    4  A    between atoms: C_8  and  C_9 
REMARK    5  A    between atoms: C_12  and  C_13 
REMARK    6  A    between atoms: C_18  and  C_19 
ROOT
HETATM    1  C   UNL     1       6.427  26.924  53.989  1.00  0.00     0.096 A 
HETATM    2  C   UNL     1       6.194  27.496  55.226  1.00  0.00     0.138 A 
HETATM    3  N   UNL     1       5.331  28.540  54.998  1.00  0.00    -0.240 N 
HETATM    4  C   UNL     1       4.759  29.387  56.027  1.00  0.00     0.221 C 
HETATM    5  C   UNL     1       5.011  28.787  57.422  1.00  0.00     0.067 C 
HETATM    6  C   UNL     1       6.395  28.136  57.592  1.00  0.00     0.125 C 
HETATM    7  N   UNL     1       6.636  27.201  56.479  1.00  0.00    -0.365 N 
HETATM    8  N   UNL     1       4.997  28.696  53.708  1.00  0.00    -0.181 NA
HETATM    9  C   UNL     1       5.699  27.741  53.091  1.00  0.00     0.160 A 
HETATM   10  H   UNL     1       7.535  26.721  56.577  1.00  0.00     0.162 HD
ENDROOT
BRANCH   1  11
HETATM   11  C   UNL     1       7.206  25.746  53.644  1.00  0.00     0.261 C 
HETATM   12  N   UNL     1       6.820  24.619  54.347  1.00  0.00    -0.323 N 
HETATM   13  H   UNL     1       6.011  24.742  54.946  1.00  0.00     0.169 HD
HETATM   14  O   UNL     1       8.059  25.796  52.767  1.00  0.00    -0.267 OA
BRANCH  12  15
HETATM   15  C   UNL     1       7.310  23.306  54.212  1.00  0.00     0.035 A 
HETATM   16  C   UNL     1       7.645  22.482  55.290  1.00  0.00     0.039 A 
HETATM   17  C   UNL     1       8.155  21.188  55.083  1.00  0.00    -0.028 A 
HETATM   18  C   UNL     1       8.336  20.733  53.768  1.00  0.00     0.010 A 
HETATM   19  C   UNL     1       7.990  21.541  52.688  1.00  0.00     0.003 A 
HETATM   20  C   UNL     1       7.474  22.819  52.910  1.00  0.00     0.029 A 
BRANCH  17  21
HETATM   21  C   UNL     1       8.534  20.328  56.270  1.00  0.00     0.147 C 
HETATM   22  C   UNL     1       8.423  21.088  57.584  1.00  0.00     0.044 C 
BRANCH  21  23
HETATM   23  O   UNL     1       9.868  19.844  56.129  1.00  0.00    -0.391 OA
HETATM   24  H   UNL     1       9.810  19.006  55.640  1.00  0.00     0.210 HD
ENDBRANCH  21  23
ENDBRANCH  17  21
ENDBRANCH  12  15
ENDBRANCH   1  11
BRANCH   4  25
HETATM   25  C   UNL     1       5.237  30.815  55.873  1.00  0.00     0.409 C 
HETATM   26  F   UNL     1       5.042  31.575  56.966  1.00  0.00    -0.169 F 
HETATM   27  F   UNL     1       6.551  30.884  55.559  1.00  0.00    -0.169 F 
HETATM   28  F   UNL     1       4.576  31.417  54.848  1.00  0.00    -0.169 F 
ENDBRANCH   4  25
BRANCH   6  29
HETATM   29  C   UNL     1       7.512  29.119  57.850  1.00  0.00     0.005 A 
HETATM   30  S   UNL     1       9.013  28.943  57.026  1.00  0.00    -0.104 SA
HETATM   31  C   UNL     1       9.677  30.318  57.790  1.00  0.00     0.050 A 
HETATM   32  C   UNL     1       8.775  30.925  58.634  1.00  0.00     0.008 A 
HETATM   33  C   UNL     1       7.524  30.243  58.658  1.00  0.00     0.017 A 
ENDBRANCH   6  29
TORSDOF 6
ENDMDL
MODEL 10
REMARK VINA RESULT:      -8.4      2.301      3.273
REMARK  6 active torsions:
REMARK  status: ('A' for Active; 'I' for Inactive)
REMARK    1  A    between atoms: C_2  and  O_3 
REMARK    2  A    between atoms: C_2  and  C_4 
REMARK    3  A    between atoms: C_6  and  N_7 
REMARK       I    between atoms: N_7  and  C_8 
REMARK    4  A    between atoms: C_8  and  C_9 
REMARK    5  A    between atoms: C_12  and  C_13 
REMARK    6  A    between atoms: C_18  and  C_19 
ROOT
HETATM    1  C   UNL     1       4.987  28.877  54.417  1.00  0.00     0.096 A 
HETATM    2  C   UNL     1       5.899  27.937  53.974  1.00  0.00     0.138 A 
HETATM    3  N   UNL     1       5.223  27.162  53.063  1.00  0.00    -0.240 N 
HETATM    4  C   UNL     1       5.810  26.084  52.289  1.00  0.00     0.221 C 
HETATM    5  C   UNL     1       7.345  26.111  52.404  1.00  0.00     0.067 C 
HETATM    6  C   UNL     1       7.870  26.477  53.804  1.00  0.00     0.125 C 
HETATM    7  N   UNL     1       7.208  27.707  54.269  1.00  0.00    -0.365 N 
HETATM    8  N   UNL     1       3.942  27.519  52.891  1.00  0.00    -0.181 NA
HETATM    9  C   UNL     1       3.788  28.533  53.748  1.00  0.00     0.160 A 
HETATM   10  H   UNL     1       7.558  28.002  55.185  1.00  0.00     0.162 HD
ENDROOT
BRANCH   1  11
HETATM   11  C   UNL     1       5.173  29.991  55.333  1.00  0.00     0.261 C 
HETATM   12  N   UNL     1       5.839  29.632  56.490  1.00  0.00    -0.323 N 
HETATM   13  H   UNL     1       6.171  28.673  56.516  1.00  0.00     0.169 HD
HETATM   14  O   UNL     1       4.811  31.119  55.025  1.00  0.00    -0.267 OA
BRANCH  12  15
HETATM   15  C   UNL     1       6.245  30.467  57.549  1.00  0.00     0.035 A 
HETATM   16  C   UNL     1       7.564  30.571  58.000  1.00  0.00     0.039 A 
HETATM   17  C   UNL     1       7.896  31.405  59.082  1.00  0.00    -0.028 A 
HETATM   18  C   UNL     1       6.877  32.131  59.717  1.00  0.00     0.010 A 
HETATM   19  C   UNL     1       5.563  32.046  59.264  1.00  0.00     0.003 A 
HETATM   20  C   UNL     1       5.251  31.222  58.181  1.00  0.00     0.029 A 
BRANCH  17  21
HETATM   21  C   UNL     1       9.329  31.477  59.566  1.00  0.00     0.147 C 
HETATM   22  C   UNL     1       9.426  32.022  60.984  1.00  0.00     0.044 C 
BRANCH  21  23
HETATM   23  O   UNL     1      10.107  32.302  58.701  1.00  0.00    -0.391 OA
HETATM   24  H   UNL     1      10.964  31.856  58.587  1.00  0.00     0.210 HD
ENDBRANCH  21  23
ENDBRANCH  17  21
ENDBRANCH  12  15
ENDBRANCH   1  11
BRANCH   4  25
HETATM   25  C   UNL     1       5.185  24.756  52.660  1.00  0.00     0.409 C 
HETATM   26  F   UNL     1       4.697  24.715  53.913  1.00  0.00    -0.169 F 
HETATM   27  F   UNL     1       4.182  24.411  51.821  1.00  0.00    -0.169 F 
HETATM   28  F   UNL     1       6.111  23.765  52.561  1.00  0.00    -0.169 F 
ENDBRANCH   4  25
BRANCH   6  29
HETATM   29  C   UNL     1       7.850  25.331  54.789  1.00  0.00     0.005 A 
HETATM   30  S   UNL     1       7.254  25.587  56.383  1.00  0.00    -0.104 SA
HETATM   31  C   UNL     1       7.535  23.961  56.826  1.00  0.00     0.050 A 
HETATM   32  C   UNL     1       8.044  23.223  55.783  1.00  0.00     0.008 A 
HETATM   33  C   UNL     1       8.212  24.008  54.605  1.00  0.00     0.017 A 
ENDBRANCH   6  29
TORSDOF 6
ENDMDL
