MODEL 1
REMARK VINA RESULT:     -10.2      0.000      0.000
REMARK  8 active torsions:
REMARK  status: ('A' for Active; 'I' for Inactive)
REMARK    1  A    between atoms: C_3  and  S_4 
REMARK    2  A    between atoms: S_4  and  C_5 
REMARK    3  A    between atoms: C_5  and  C_6 
REMARK       I    between atoms: C_6  and  N_7 
REMARK    4  A    between atoms: N_7  and  C_8 
REMARK    5  A    between atoms: C_8  and  C_9 
REMARK    6  A    between atoms: C_17  and  C_18 
REMARK    7  A    between atoms: C_18  and  O_19 
REMARK    8  A    between atoms: O_19  and  C_20 
ROOT
HETATM    1  C   UNL     1       5.034  29.094  56.439  1.00  0.00     0.160 C 
HETATM    2  N   UNL     1       6.202  28.540  57.072  1.00  0.00    -0.314 N 
HETATM    3  C   UNL     1       7.100  29.154  57.899  1.00  0.00     0.191 A 
HETATM    4  N   UNL     1       8.024  28.296  58.263  1.00  0.00    -0.123 NA
HETATM    5  N   UNL     1       7.724  27.087  57.696  1.00  0.00    -0.132 NA
HETATM    6  C   UNL     1       6.630  27.232  56.974  1.00  0.00     0.154 A 
ENDROOT
BRANCH   3   7
HETATM    7  S   UNL     1       7.001  30.802  58.404  1.00  0.00    -0.081 SA
BRANCH   7   8
HETATM    8  C   UNL     1       8.759  31.254  58.502  1.00  0.00     0.185 C 
BRANCH   8   9
HETATM    9  C   UNL     1       9.183  31.462  59.946  1.00  0.00     0.227 C 
HETATM   10  N   UNL     1       8.698  30.520  60.826  1.00  0.00    -0.354 N 
HETATM   11  H   UNL     1       7.880  29.989  60.529  1.00  0.00     0.162 HD
HETATM   12  O   UNL     1       9.900  32.397  60.294  1.00  0.00    -0.273 OA
BRANCH  10  13
HETATM   13  C   UNL     1       8.923  30.667  62.245  1.00  0.00     0.187 C 
BRANCH  13  14
HETATM   14  C   UNL     1       7.922  31.602  62.814  1.00  0.00     0.070 A 
HETATM   15  O   UNL     1       6.617  31.394  62.470  1.00  0.00    -0.325 OA
HETATM   16  C   UNL     1       5.884  32.347  63.101  1.00  0.00     0.142 A 
HETATM   17  C   UNL     1       6.696  33.165  63.851  1.00  0.00     0.027 A 
HETATM   18  C   UNL     1       8.013  32.682  63.671  1.00  0.00     0.036 A 
ENDBRANCH  13  14
ENDBRANCH  10  13
ENDBRANCH   8   9
ENDBRANCH   7   8
ENDBRANCH   3   7
BRANCH   6  19
HETATM   19  C   UNL     1       5.945  26.164  56.197  1.00  0.00     0.256 C 
BRANCH  19  20
HETATM   20  O   UNL     1       6.633  26.054  54.953  1.00  0.00    -0.344 OA
BRANCH  20  21
HETATM   21  C   UNL     1       7.054  24.800  54.603  1.00  0.00     0.070 A 
HETATM   22  C   UNL     1       7.277  23.742  55.487  1.00  0.00     0.049 A 
HETATM   23  C   UNL     1       7.714  22.490  55.014  1.00  0.00    -0.023 A 
HETATM   24  C   UNL     1       7.921  22.303  53.628  1.00  0.00    -0.026 A 
HETATM   25  C   UNL     1       7.949  21.418  55.890  1.00  0.00     0.012 A 
HETATM   26  C   UNL     1       7.677  23.369  52.750  1.00  0.00     0.015 A 
HETATM   27  C   UNL     1       8.363  21.057  53.158  1.00  0.00     0.012 A 
HETATM   28  C   UNL     1       7.242  24.604  53.236  1.00  0.00     0.037 A 
HETATM   29  C   UNL     1       8.596  20.003  54.044  1.00  0.00     0.001 A 
HETATM   30  C   UNL     1       8.390  20.183  55.408  1.00  0.00     0.001 A 
ENDBRANCH  20  21
ENDBRANCH  19  20
ENDBRANCH   6  19
TORSDOF 8
ENDMDL
MODEL 2
REMARK VINA RESULT:     -10.0      1.455      1.888
REMARK  8 active torsions:
REMARK  status: ('A' for Active; 'I' for Inactive)
REMARK    1  A    between atoms: C_3  and  S_4 
REMARK    2  A    between atoms: S_4  and  C_5 
REMARK    3  A    between atoms: C_5  and  C_6 
REMARK       I    between atoms: C_6  and  N_7 
REMARK    4  A    between atoms: N_7  and  C_8 
REMARK    5  A    between atoms: C_8  and  C_9 
REMARK    6  A    between atoms: C_17  and  C_18 
REMARK    7  A    between atoms: C_18  and  O_19 
REMARK    8  A    between atoms: O_19  and  C_20 
ROOT
HETATM    1  C   UNL     1       5.232  29.388  56.482  1.00  0.00     0.160 C 
HETATM    2  N   UNL     1       6.407  28.977  57.206  1.00  0.00    -0.314 N 
HETATM    3  C   UNL     1       7.203  29.716  58.035  1.00  0.00     0.191 A 
HETATM    4  N   UNL     1       8.176  28.967  58.498  1.00  0.00    -0.123 NA
HETATM    5  N   UNL     1       8.011  27.704  57.995  1.00  0.00    -0.132 NA
HETATM    6  C   UNL     1       6.950  27.709  57.212  1.00  0.00     0.154 A 
ENDROOT
BRANCH   3   7
HETATM    7  S   UNL     1       6.937  31.377  58.429  1.00  0.00    -0.081 SA
BRANCH   7   8
HETATM    8  C   UNL     1       7.448  31.419  60.172  1.00  0.00     0.185 C 
BRANCH   8   9
HETATM    9  C   UNL     1       6.426  32.160  61.017  1.00  0.00     0.227 C 
HETATM   10  N   UNL     1       6.100  31.536  62.200  1.00  0.00    -0.354 N 
HETATM   11  H   UNL     1       6.295  30.537  62.264  1.00  0.00     0.162 HD
HETATM   12  O   UNL     1       5.933  33.229  60.667  1.00  0.00    -0.273 OA
BRANCH  10  13
HETATM   13  C   UNL     1       5.053  32.069  63.039  1.00  0.00     0.187 C 
BRANCH  13  14
HETATM   14  C   UNL     1       5.654  32.827  64.164  1.00  0.00     0.070 A 
HETATM   15  O   UNL     1       4.820  33.186  65.184  1.00  0.00    -0.325 OA
HETATM   16  C   UNL     1       5.572  33.855  66.095  1.00  0.00     0.142 A 
HETATM   17  C   UNL     1       6.881  33.931  65.680  1.00  0.00     0.027 A 
HETATM   18  C   UNL     1       6.937  33.263  64.434  1.00  0.00     0.036 A 
ENDBRANCH  13  14
ENDBRANCH  10  13
ENDBRANCH   8   9
ENDBRANCH   7   8
ENDBRANCH   3   7
BRANCH   6  19
HETATM   19  C   UNL     1       6.402  26.540  56.472  1.00  0.00     0.256 C 
BRANCH  19  20
HETATM   20  O   UNL     1       7.108  26.468  55.235  1.00  0.00    -0.344 OA
BRANCH  20  21
HETATM   21  C   UNL     1       7.342  25.213  54.745  1.00  0.00     0.070 A 
HETATM   22  C   UNL     1       7.417  24.044  55.505  1.00  0.00     0.049 A 
HETATM   23  C   UNL     1       7.666  22.802  54.891  1.00  0.00    -0.023 A 
HETATM   24  C   UNL     1       7.834  22.740  53.489  1.00  0.00    -0.026 A 
HETATM   25  C   UNL     1       7.752  21.618  55.643  1.00  0.00     0.012 A 
HETATM   26  C   UNL     1       7.739  23.918  52.736  1.00  0.00     0.015 A 
HETATM   27  C   UNL     1       8.089  21.502  52.879  1.00  0.00     0.012 A 
HETATM   28  C   UNL     1       7.489  25.142  53.360  1.00  0.00     0.037 A 
HETATM   29  C   UNL     1       8.176  20.336  53.642  1.00  0.00     0.001 A 
HETATM   30  C   UNL     1       8.007  20.394  55.022  1.00  0.00     0.001 A 
ENDBRANCH  20  21
ENDBRANCH  19  20
ENDBRANCH   6  19
TORSDOF 8
ENDMDL
MODEL 3
REMARK VINA RESULT:      -9.5      1.667      2.368
REMARK  8 active torsions:
REMARK  status: ('A' for Active; 'I' for Inactive)
REMARK    1  A    between atoms: C_3  and  S_4 
REMARK    2  A    between atoms: S_4  and  C_5 
REMARK    3  A    between atoms: C_5  and  C_6 
REMARK       I    between atoms: C_6  and  N_7 
REMARK    4  A    between atoms: N_7  and  C_8 
REMARK    5  A    between atoms: C_8  and  C_9 
REMARK    6  A    between atoms: C_17  and  C_18 
REMARK    7  A    between atoms: C_18  and  O_19 
REMARK    8  A    between atoms: O_19  and  C_20 
ROOT
HETATM    1  C   UNL     1       5.867  29.588  55.602  1.00  0.00     0.160 C 
HETATM    2  N   UNL     1       6.807  29.243  56.637  1.00  0.00    -0.314 N 
HETATM    3  C   UNL     1       7.108  29.926  57.781  1.00  0.00     0.191 A 
HETATM    4  N   UNL     1       8.022  29.272  58.459  1.00  0.00    -0.123 NA
HETATM    5  N   UNL     1       8.315  28.124  57.774  1.00  0.00    -0.132 NA
HETATM    6  C   UNL     1       7.588  28.107  56.673  1.00  0.00     0.154 A 
ENDROOT
BRANCH   3   7
HETATM    7  S   UNL     1       6.364  31.408  58.264  1.00  0.00    -0.081 SA
BRANCH   7   8
HETATM    8  C   UNL     1       7.245  31.764  59.814  1.00  0.00     0.185 C 
BRANCH   8   9
HETATM    9  C   UNL     1       6.286  32.284  60.871  1.00  0.00     0.227 C 
HETATM   10  N   UNL     1       6.243  31.533  62.025  1.00  0.00    -0.354 N 
HETATM   11  H   UNL     1       6.575  30.571  61.961  1.00  0.00     0.162 HD
HETATM   12  O   UNL     1       5.607  33.294  60.705  1.00  0.00    -0.273 OA
BRANCH  10  13
HETATM   13  C   UNL     1       5.287  31.845  63.060  1.00  0.00     0.187 C 
BRANCH  13  14
HETATM   14  C   UNL     1       5.916  32.736  64.066  1.00  0.00     0.070 A 
HETATM   15  O   UNL     1       5.077  33.396  64.918  1.00  0.00    -0.325 OA
HETATM   16  C   UNL     1       5.857  34.138  65.746  1.00  0.00     0.142 A 
HETATM   17  C   UNL     1       7.187  33.964  65.444  1.00  0.00     0.027 A 
HETATM   18  C   UNL     1       7.227  33.055  64.361  1.00  0.00     0.036 A 
ENDBRANCH  13  14
ENDBRANCH  10  13
ENDBRANCH   8   9
ENDBRANCH   7   8
ENDBRANCH   3   7
BRANCH   6  19
HETATM   19  C   UNL     1       7.583  27.032  55.643  1.00  0.00     0.256 C 
BRANCH  19  20
HETATM   20  O   UNL     1       6.844  25.941  56.191  1.00  0.00    -0.344 OA
BRANCH  20  21
HETATM   21  C   UNL     1       7.290  24.688  55.871  1.00  0.00     0.070 A 
HETATM   22  C   UNL     1       7.220  24.099  54.607  1.00  0.00     0.049 A 
HETATM   23  C   UNL     1       7.710  22.796  54.393  1.00  0.00    -0.023 A 
HETATM   24  C   UNL     1       8.285  22.084  55.470  1.00  0.00    -0.026 A 
HETATM   25  C   UNL     1       7.641  22.186  53.130  1.00  0.00     0.012 A 
HETATM   26  C   UNL     1       8.364  22.694  56.730  1.00  0.00     0.015 A 
HETATM   27  C   UNL     1       8.767  20.783  55.257  1.00  0.00     0.012 A 
HETATM   28  C   UNL     1       7.876  23.987  56.924  1.00  0.00     0.037 A 
HETATM   29  C   UNL     1       8.686  20.190  53.996  1.00  0.00     0.001 A 
HETATM   30  C   UNL     1       8.124  20.891  52.933  1.00  0.00     0.001 A 
ENDBRANCH  20  21
ENDBRANCH  19  20
ENDBRANCH   6  19
TORSDOF 8
ENDMDL
MODEL 4
REMARK VINA RESULT:      -9.4      1.031      1.511
REMARK  8 active torsions:
REMARK  status: ('A' for Active; 'I' for Inactive)
REMARK    1  A    between atoms: C_3  and  S_4 
REMARK    2  A    between atoms: S_4  and  C_5 
REMARK    3  A    between atoms: C_5  and  C_6 
REMARK       I    between atoms: C_6  and  N_7 
REMARK    4  A    between atoms: N_7  and  C_8 
REMARK    5  A    between atoms: C_8  and  C_9 
REMARK    6  A    between atoms: C_17  and  C_18 
REMARK    7  A    between atoms: C_18  and  O_19 
REMARK    8  A    between atoms: O_19  and  C_20 
ROOT
HETATM    1  C   UNL     1       6.695  27.544  57.401  1.00  0.00     0.160 C 
HETATM    2  N   UNL     1       6.133  28.554  56.542  1.00  0.00    -0.314 N 
HETATM    3  C   UNL     1       5.966  29.888  56.786  1.00  0.00     0.191 A 
HETATM    4  N   UNL     1       5.415  30.463  55.743  1.00  0.00    -0.123 NA
HETATM    5  N   UNL     1       5.236  29.506  54.780  1.00  0.00    -0.132 NA
HETATM    6  C   UNL     1       5.663  28.355  55.261  1.00  0.00     0.154 A 
ENDROOT
BRANCH   3   7
HETATM    7  S   UNL     1       6.446  30.688  58.240  1.00  0.00    -0.081 SA
BRANCH   7   8
HETATM    8  C   UNL     1       8.257  30.567  58.135  1.00  0.00     0.185 C 
BRANCH   8   9
HETATM    9  C   UNL     1       8.911  31.219  59.341  1.00  0.00     0.227 C 
HETATM   10  N   UNL     1       8.798  30.502  60.511  1.00  0.00    -0.354 N 
HETATM   11  H   UNL     1       8.052  29.807  60.557  1.00  0.00     0.162 HD
HETATM   12  O   UNL     1       9.493  32.298  59.272  1.00  0.00    -0.273 OA
BRANCH  10  13
HETATM   13  C   UNL     1       9.268  31.062  61.756  1.00  0.00     0.187 C 
BRANCH  13  14
HETATM   14  C   UNL     1       8.140  31.711  62.468  1.00  0.00     0.070 A 
HETATM   15  O   UNL     1       6.880  31.308  62.128  1.00  0.00    -0.325 OA
HETATM   16  C   UNL     1       6.015  32.017  62.897  1.00  0.00     0.142 A 
HETATM   17  C   UNL     1       6.698  32.869  63.733  1.00  0.00     0.027 A 
HETATM   18  C   UNL     1       8.071  32.669  63.460  1.00  0.00     0.036 A 
ENDBRANCH  13  14
ENDBRANCH  10  13
ENDBRANCH   8   9
ENDBRANCH   7   8
ENDBRANCH   3   7
BRANCH   6  19
HETATM   19  C   UNL     1       5.667  27.052  54.542  1.00  0.00     0.256 C 
BRANCH  19  20
HETATM   20  O   UNL     1       7.033  26.713  54.313  1.00  0.00    -0.344 OA
BRANCH  20  21
HETATM   21  C   UNL     1       7.298  25.390  54.086  1.00  0.00     0.070 A 
HETATM   22  C   UNL     1       7.291  24.383  55.054  1.00  0.00     0.049 A 
HETATM   23  C   UNL     1       7.582  23.050  54.706  1.00  0.00    -0.023 A 
HETATM   24  C   UNL     1       7.877  22.730  53.362  1.00  0.00    -0.026 A 
HETATM   25  C   UNL     1       7.587  22.027  55.669  1.00  0.00     0.012 A 
HETATM   26  C   UNL     1       7.863  23.748  52.398  1.00  0.00     0.015 A 
HETATM   27  C   UNL     1       8.174  21.402  53.018  1.00  0.00     0.012 A 
HETATM   28  C   UNL     1       7.570  25.064  52.759  1.00  0.00     0.037 A 
HETATM   29  C   UNL     1       8.178  20.398  53.988  1.00  0.00     0.001 A 
HETATM   30  C   UNL     1       7.884  20.710  55.312  1.00  0.00     0.001 A 
ENDBRANCH  20  21
ENDBRANCH  19  20
ENDBRANCH   6  19
TORSDOF 8
ENDMDL
MODEL 5
REMARK VINA RESULT:      -9.4      1.848      2.598
REMARK  8 active torsions:
REMARK  status: ('A' for Active; 'I' for Inactive)
REMARK    1  A    between atoms: C_3  and  S_4 
REMARK    2  A    between atoms: S_4  and  C_5 
REMARK    3  A    between atoms: C_5  and  C_6 
REMARK       I    between atoms: C_6  and  N_7 
REMARK    4  A    between atoms: N_7  and  C_8 
REMARK    5  A    between atoms: C_8  and  C_9 
REMARK    6  A    between atoms: C_17  and  C_18 
REMARK    7  A    between atoms: C_18  and  O_19 
REMARK    8  A    between atoms: O_19  and  C_20 
ROOT
HETATM    1  C   UNL     1       6.273  28.895  55.392  1.00  0.00     0.160 C 
HETATM    2  N   UNL     1       6.845  29.183  56.682  1.00  0.00    -0.314 N 
HETATM    3  C   UNL     1       6.600  30.243  57.509  1.00  0.00     0.191 A 
HETATM    4  N   UNL     1       7.328  30.134  58.595  1.00  0.00    -0.123 NA
HETATM    5  N   UNL     1       8.049  28.973  58.505  1.00  0.00    -0.132 NA
HETATM    6  C   UNL     1       7.763  28.402  57.351  1.00  0.00     0.154 A 
ENDROOT
BRANCH   3   7
HETATM    7  S   UNL     1       5.472  31.508  57.175  1.00  0.00    -0.081 SA
BRANCH   7   8
HETATM    8  C   UNL     1       4.056  31.006  58.196  1.00  0.00     0.185 C 
BRANCH   8   9
HETATM    9  C   UNL     1       3.909  31.919  59.402  1.00  0.00     0.227 C 
HETATM   10  N   UNL     1       5.066  32.104  60.125  1.00  0.00    -0.354 N 
HETATM   11  H   UNL     1       5.799  31.403  60.010  1.00  0.00     0.162 HD
HETATM   12  O   UNL     1       2.841  32.447  59.701  1.00  0.00    -0.273 OA
BRANCH  10  13
HETATM   13  C   UNL     1       5.040  32.849  61.361  1.00  0.00     0.187 C 
BRANCH  13  14
HETATM   14  C   UNL     1       6.282  32.586  62.128  1.00  0.00     0.070 A 
HETATM   15  O   UNL     1       6.995  31.473  61.786  1.00  0.00    -0.325 OA
HETATM   16  C   UNL     1       8.082  31.433  62.600  1.00  0.00     0.142 A 
HETATM   17  C   UNL     1       8.083  32.507  63.459  1.00  0.00     0.027 A 
HETATM   18  C   UNL     1       6.923  33.255  63.152  1.00  0.00     0.036 A 
ENDBRANCH  13  14
ENDBRANCH  10  13
ENDBRANCH   8   9
ENDBRANCH   7   8
ENDBRANCH   3   7
BRANCH   6  19
HETATM   19  C   UNL     1       8.314  27.113  56.853  1.00  0.00     0.256 C 
BRANCH  19  20
HETATM   20  O   UNL     1       7.215  26.210  56.743  1.00  0.00    -0.344 OA
BRANCH  20  21
HETATM   21  C   UNL     1       7.380  25.157  55.885  1.00  0.00     0.070 A 
HETATM   22  C   UNL     1       7.484  23.815  56.257  1.00  0.00     0.049 A 
HETATM   23  C   UNL     1       7.655  22.811  55.284  1.00  0.00    -0.023 A 
HETATM   24  C   UNL     1       7.713  23.169  53.918  1.00  0.00    -0.026 A 
HETATM   25  C   UNL     1       7.769  21.458  55.641  1.00  0.00     0.012 A 
HETATM   26  C   UNL     1       7.590  24.519  53.558  1.00  0.00     0.015 A 
HETATM   27  C   UNL     1       7.891  22.169  52.950  1.00  0.00     0.012 A 
HETATM   28  C   UNL     1       7.419  25.501  54.535  1.00  0.00     0.037 A 
HETATM   29  C   UNL     1       8.006  20.828  53.323  1.00  0.00     0.001 A 
HETATM   30  C   UNL     1       7.945  20.473  54.667  1.00  0.00     0.001 A 
ENDBRANCH  20  21
ENDBRANCH  19  20
ENDBRANCH   6  19
TORSDOF 8
ENDMDL
MODEL 6
REMARK VINA RESULT:      -9.4      2.215      3.283
REMARK  8 active torsions:
REMARK  status: ('A' for Active; 'I' for Inactive)
REMARK    1  A    between atoms: C_3  and  S_4 
REMARK    2  A    between atoms: S_4  and  C_5 
REMARK    3  A    between atoms: C_5  and  C_6 
REMARK       I    between atoms: C_6  and  N_7 
REMARK    4  A    between atoms: N_7  and  C_8 
REMARK    5  A    between atoms: C_8  and  C_9 
REMARK    6  A    between atoms: C_17  and  C_18 
REMARK    7  A    between atoms: C_18  and  O_19 
REMARK    8  A    between atoms: O_19  and  C_20 
ROOT
HETATM    1  C   UNL     1       3.963  29.403  53.927  1.00  0.00     0.160 C 
HETATM    2  N   UNL     1       4.481  29.102  55.237  1.00  0.00    -0.314 N 
HETATM    3  C   UNL     1       4.438  29.863  56.370  1.00  0.00     0.191 A 
HETATM    4  N   UNL     1       5.026  29.225  57.354  1.00  0.00    -0.123 NA
HETATM    5  N   UNL     1       5.444  28.010  56.880  1.00  0.00    -0.132 NA
HETATM    6  C   UNL     1       5.121  27.936  55.603  1.00  0.00     0.154 A 
ENDROOT
BRANCH   3   7
HETATM    7  S   UNL     1       3.688  31.415  56.483  1.00  0.00    -0.081 SA
BRANCH   7   8
HETATM    8  C   UNL     1       3.788  31.734  58.269  1.00  0.00     0.185 C 
BRANCH   8   9
HETATM    9  C   UNL     1       5.130  32.346  58.633  1.00  0.00     0.227 C 
HETATM   10  N   UNL     1       5.902  31.575  59.473  1.00  0.00    -0.354 N 
HETATM   11  H   UNL     1       5.418  30.862  60.020  1.00  0.00     0.162 HD
HETATM   12  O   UNL     1       5.492  33.440  58.208  1.00  0.00    -0.273 OA
BRANCH  10  13
HETATM   13  C   UNL     1       7.146  32.090  59.995  1.00  0.00     0.187 C 
BRANCH  13  14
HETATM   14  C   UNL     1       8.283  31.479  59.264  1.00  0.00     0.070 A 
HETATM   15  O   UNL     1       9.343  32.291  58.979  1.00  0.00    -0.325 OA
HETATM   16  C   UNL     1      10.259  31.533  58.323  1.00  0.00     0.142 A 
HETATM   17  C   UNL     1       9.808  30.241  58.184  1.00  0.00     0.027 A 
HETATM   18  C   UNL     1       8.533  30.203  58.796  1.00  0.00     0.036 A 
ENDBRANCH  13  14
ENDBRANCH  10  13
ENDBRANCH   8   9
ENDBRANCH   7   8
ENDBRANCH   3   7
BRANCH   6  19
HETATM   19  C   UNL     1       5.377  26.780  54.701  1.00  0.00     0.256 C 
BRANCH  19  20
HETATM   20  O   UNL     1       6.764  26.469  54.814  1.00  0.00    -0.344 OA
BRANCH  20  21
HETATM   21  C   UNL     1       7.130  25.201  54.455  1.00  0.00     0.070 A 
HETATM   22  C   UNL     1       7.173  24.095  55.308  1.00  0.00     0.049 A 
HETATM   23  C   UNL     1       7.569  22.832  54.828  1.00  0.00    -0.023 A 
HETATM   24  C   UNL     1       7.920  22.684  53.467  1.00  0.00    -0.026 A 
HETATM   25  C   UNL     1       7.625  21.712  55.673  1.00  0.00     0.012 A 
HETATM   26  C   UNL     1       7.856  23.798  52.618  1.00  0.00     0.015 A 
HETATM   27  C   UNL     1       8.322  21.426  52.991  1.00  0.00     0.012 A 
HETATM   28  C   UNL     1       7.459  25.043  53.110  1.00  0.00     0.037 A 
HETATM   29  C   UNL     1       8.376  20.325  53.846  1.00  0.00     0.001 A 
HETATM   30  C   UNL     1       8.027  20.467  55.186  1.00  0.00     0.001 A 
ENDBRANCH  20  21
ENDBRANCH  19  20
ENDBRANCH   6  19
TORSDOF 8
ENDMDL
MODEL 7
REMARK VINA RESULT:      -8.9      2.092     10.894
REMARK  8 active torsions:
REMARK  status: ('A' for Active; 'I' for Inactive)
REMARK    1  A    between atoms: C_3  and  S_4 
REMARK    2  A    between atoms: S_4  and  C_5 
REMARK    3  A    between atoms: C_5  and  C_6 
REMARK       I    between atoms: C_6  and  N_7 
REMARK    4  A    between atoms: N_7  and  C_8 
REMARK    5  A    between atoms: C_8  and  C_9 
REMARK    6  A    between atoms: C_17  and  C_18 
REMARK    7  A    between atoms: C_18  and  O_19 
REMARK    8  A    between atoms: O_19  and  C_20 
ROOT
HETATM    1  C   UNL     1       5.339  30.358  55.785  1.00  0.00     0.160 C 
HETATM    2  N   UNL     1       6.495  29.553  56.087  1.00  0.00    -0.314 N 
HETATM    3  C   UNL     1       7.004  28.492  55.392  1.00  0.00     0.191 A 
HETATM    4  N   UNL     1       8.071  28.034  56.004  1.00  0.00    -0.123 NA
HETATM    5  N   UNL     1       8.293  28.815  57.106  1.00  0.00    -0.132 NA
HETATM    6  C   UNL     1       7.342  29.728  57.161  1.00  0.00     0.154 A 
ENDROOT
BRANCH   3   7
HETATM    7  S   UNL     1       6.350  27.881  53.915  1.00  0.00    -0.081 SA
BRANCH   7   8
HETATM    8  C   UNL     1       7.427  26.449  53.611  1.00  0.00     0.185 C 
BRANCH   8   9
HETATM    9  C   UNL     1       6.818  25.184  54.191  1.00  0.00     0.227 C 
HETATM   10  N   UNL     1       7.683  24.428  54.951  1.00  0.00    -0.354 N 
HETATM   11  H   UNL     1       8.681  24.580  54.803  1.00  0.00     0.162 HD
HETATM   12  O   UNL     1       5.648  24.866  53.994  1.00  0.00    -0.273 OA
BRANCH  10  13
HETATM   13  C   UNL     1       7.270  23.142  55.460  1.00  0.00     0.187 C 
BRANCH  13  14
HETATM   14  C   UNL     1       7.791  22.067  54.579  1.00  0.00     0.070 A 
HETATM   15  O   UNL     1       8.392  21.005  55.190  1.00  0.00    -0.325 OA
HETATM   16  C   UNL     1       8.781  20.151  54.208  1.00  0.00     0.142 A 
HETATM   17  C   UNL     1       8.436  20.645  52.973  1.00  0.00     0.027 A 
HETATM   18  C   UNL     1       7.793  21.882  53.210  1.00  0.00     0.036 A 
ENDBRANCH  13  14
ENDBRANCH  10  13
ENDBRANCH   8   9
ENDBRANCH   7   8
ENDBRANCH   3   7
BRANCH   6  19
HETATM   19  C   UNL     1       7.209  30.793  58.192  1.00  0.00     0.256 C 
BRANCH  19  20
HETATM   20  O   UNL     1       8.109  30.460  59.246  1.00  0.00    -0.344 OA
BRANCH  20  21
HETATM   21  C   UNL     1       7.950  31.148  60.418  1.00  0.00     0.070 A 
HETATM   22  C   UNL     1       7.080  32.221  60.618  1.00  0.00     0.049 A 
HETATM   23  C   UNL     1       7.000  32.859  61.870  1.00  0.00    -0.023 A 
HETATM   24  C   UNL     1       7.806  32.401  62.937  1.00  0.00    -0.026 A 
HETATM   25  C   UNL     1       6.135  33.945  62.085  1.00  0.00     0.012 A 
HETATM   26  C   UNL     1       8.663  31.311  62.727  1.00  0.00     0.015 A 
HETATM   27  C   UNL     1       7.732  33.042  64.183  1.00  0.00     0.012 A 
HETATM   28  C   UNL     1       8.728  30.688  61.479  1.00  0.00     0.037 A 
HETATM   29  C   UNL     1       6.869  34.122  64.378  1.00  0.00     0.001 A 
HETATM   30  C   UNL     1       6.072  34.573  63.331  1.00  0.00     0.001 A 
ENDBRANCH  20  21
ENDBRANCH  19  20
ENDBRANCH   6  19
TORSDOF 8
ENDMDL
MODEL 8
REMARK VINA RESULT:      -8.9      2.077      3.478
REMARK  8 active torsions:
REMARK  status: ('A' for Active; 'I' for Inactive)
REMARK    1  A    between atoms: C_3  and  S_4 
REMARK    2  A    between atoms: S_4  and  C_5 
REMARK    3  A    between atoms: C_5  and  C_6 
REMARK       I    between atoms: C_6  and  N_7 
REMARK    4  A    between atoms: N_7  and  C_8 
REMARK    5  A    between atoms: C_8  and  C_9 
REMARK    6  A    between atoms: C_17  and  C_18 
REMARK    7  A    between atoms: C_18  and  O_19 
REMARK    8  A    between atoms: O_19  and  C_20 
ROOT
HETATM    1  C   UNL     1       9.535  29.139  55.116  1.00  0.00     0.160 C 
HETATM    2  N   UNL     1       8.782  28.726  56.272  1.00  0.00    -0.314 N 
HETATM    3  C   UNL     1       8.873  29.177  57.558  1.00  0.00     0.191 A 
HETATM    4  N   UNL     1       8.008  28.541  58.312  1.00  0.00    -0.123 NA
HETATM    5  N   UNL     1       7.311  27.673  57.515  1.00  0.00    -0.132 NA
HETATM    6  C   UNL     1       7.779  27.779  56.286  1.00  0.00     0.154 A 
ENDROOT
BRANCH   3   7
HETATM    7  S   UNL     1       9.946  30.422  58.088  1.00  0.00    -0.081 SA
BRANCH   7   8
HETATM    8  C   UNL     1       9.338  30.727  59.774  1.00  0.00     0.185 C 
BRANCH   8   9
HETATM    9  C   UNL     1       8.243  31.780  59.769  1.00  0.00     0.227 C 
HETATM   10  N   UNL     1       6.967  31.279  59.638  1.00  0.00    -0.354 N 
HETATM   11  H   UNL     1       6.878  30.343  59.243  1.00  0.00     0.162 HD
HETATM   12  O   UNL     1       8.483  32.981  59.875  1.00  0.00    -0.273 OA
BRANCH  10  13
HETATM   13  C   UNL     1       5.845  32.176  59.497  1.00  0.00     0.187 C 
BRANCH  13  14
HETATM   14  C   UNL     1       5.147  31.903  58.217  1.00  0.00     0.070 A 
HETATM   15  O   UNL     1       3.784  31.977  58.227  1.00  0.00    -0.325 OA
HETATM   16  C   UNL     1       3.362  31.701  56.966  1.00  0.00     0.142 A 
HETATM   17  C   UNL     1       4.433  31.455  56.140  1.00  0.00     0.027 A 
HETATM   18  C   UNL     1       5.588  31.589  56.945  1.00  0.00     0.036 A 
ENDBRANCH  13  14
ENDBRANCH  10  13
ENDBRANCH   8   9
ENDBRANCH   7   8
ENDBRANCH   3   7
BRANCH   6  19
HETATM   19  C   UNL     1       7.297  27.026  55.097  1.00  0.00     0.256 C 
BRANCH  19  20
HETATM   20  O   UNL     1       6.524  25.932  55.588  1.00  0.00    -0.344 OA
BRANCH  20  21
HETATM   21  C   UNL     1       7.068  24.688  55.428  1.00  0.00     0.070 A 
HETATM   22  C   UNL     1       7.125  23.974  54.229  1.00  0.00     0.049 A 
HETATM   23  C   UNL     1       7.708  22.694  54.181  1.00  0.00    -0.023 A 
HETATM   24  C   UNL     1       8.249  22.131  55.359  1.00  0.00    -0.026 A 
HETATM   25  C   UNL     1       7.766  21.960  52.985  1.00  0.00     0.012 A 
HETATM   26  C   UNL     1       8.201  22.865  56.553  1.00  0.00     0.015 A 
HETATM   27  C   UNL     1       8.824  20.851  55.312  1.00  0.00     0.012 A 
HETATM   28  C   UNL     1       7.620  24.135  56.582  1.00  0.00     0.037 A 
HETATM   29  C   UNL     1       8.869  20.134  54.115  1.00  0.00     0.001 A 
HETATM   30  C   UNL     1       8.341  20.688  52.953  1.00  0.00     0.001 A 
ENDBRANCH  20  21
ENDBRANCH  19  20
ENDBRANCH   6  19
TORSDOF 8
ENDMDL
MODEL 9
REMARK VINA RESULT:      -8.6      2.107      2.944
REMARK  8 active torsions:
REMARK  status: ('A' for Active; 'I' for Inactive)
REMARK    1  A    between atoms: C_3  and  S_4 
REMARK    2  A    between atoms: S_4  and  C_5 
REMARK    3  A    between atoms: C_5  and  C_6 
REMARK       I    between atoms: C_6  and  N_7 
REMARK    4  A    between atoms: N_7  and  C_8 
REMARK    5  A    between atoms: C_8  and  C_9 
REMARK    6  A    between atoms: C_17  and  C_18 
REMARK    7  A    between atoms: C_18  and  O_19 
REMARK    8  A    between atoms: O_19  and  C_20 
ROOT
HETATM    1  C   UNL     1       5.423  28.237  57.151  1.00  0.00     0.160 C 
HETATM    2  N   UNL     1       5.298  28.580  55.758  1.00  0.00    -0.314 N 
HETATM    3  C   UNL     1       4.606  29.611  55.189  1.00  0.00     0.191 A 
HETATM    4  N   UNL     1       4.747  29.572  53.885  1.00  0.00    -0.123 NA
HETATM    5  N   UNL     1       5.566  28.518  53.581  1.00  0.00    -0.132 NA
HETATM    6  C   UNL     1       5.896  27.916  54.707  1.00  0.00     0.154 A 
ENDROOT
BRANCH   3   7
HETATM    7  S   UNL     1       3.712  30.798  56.071  1.00  0.00    -0.081 SA
BRANCH   7   8
HETATM    8  C   UNL     1       5.052  31.789  56.796  1.00  0.00     0.185 C 
BRANCH   8   9
HETATM    9  C   UNL     1       4.912  31.860  58.307  1.00  0.00     0.227 C 
HETATM   10  N   UNL     1       5.912  32.561  58.943  1.00  0.00    -0.354 N 
HETATM   11  H   UNL     1       6.787  32.683  58.432  1.00  0.00     0.162 HD
HETATM   12  O   UNL     1       3.978  31.333  58.908  1.00  0.00    -0.273 OA
BRANCH  10  13
HETATM   13  C   UNL     1       5.968  32.603  60.385  1.00  0.00     0.187 C 
BRANCH  13  14
HETATM   14  C   UNL     1       7.308  32.165  60.845  1.00  0.00     0.070 A 
HETATM   15  O   UNL     1       7.348  31.298  61.898  1.00  0.00    -0.325 OA
HETATM   16  C   UNL     1       8.657  31.030  62.142  1.00  0.00     0.142 A 
HETATM   17  C   UNL     1       9.463  31.708  61.258  1.00  0.00     0.027 A 
HETATM   18  C   UNL     1       8.593  32.439  60.416  1.00  0.00     0.036 A 
ENDBRANCH  13  14
ENDBRANCH  10  13
ENDBRANCH   8   9
ENDBRANCH   7   8
ENDBRANCH   3   7
BRANCH   6  19
HETATM   19  C   UNL     1       6.785  26.730  54.838  1.00  0.00     0.256 C 
BRANCH  19  20
HETATM   20  O   UNL     1       5.962  25.577  54.664  1.00  0.00    -0.344 OA
BRANCH  20  21
HETATM   21  C   UNL     1       6.614  24.399  54.426  1.00  0.00     0.070 A 
HETATM   22  C   UNL     1       6.910  23.426  55.384  1.00  0.00     0.049 A 
HETATM   23  C   UNL     1       7.591  22.247  55.024  1.00  0.00    -0.023 A 
HETATM   24  C   UNL     1       7.970  22.046  53.678  1.00  0.00    -0.026 A 
HETATM   25  C   UNL     1       7.903  21.263  55.976  1.00  0.00     0.012 A 
HETATM   26  C   UNL     1       7.652  23.023  52.724  1.00  0.00     0.015 A 
HETATM   27  C   UNL     1       8.656  20.874  53.322  1.00  0.00     0.012 A 
HETATM   28  C   UNL     1       6.974  24.186  53.097  1.00  0.00     0.037 A 
HETATM   29  C   UNL     1       8.961  19.908  54.282  1.00  0.00     0.001 A 
HETATM   30  C   UNL     1       8.585  20.102  55.607  1.00  0.00     0.001 A 
ENDBRANCH  20  21
ENDBRANCH  19  20
ENDBRANCH   6  19
TORSDOF 8
ENDMDL
MODEL 10
REMARK VINA RESULT:      -8.5      2.105     11.718
REMARK  8 active torsions:
REMARK  status: ('A' for Active; 'I' for Inactive)
REMARK    1  A    between atoms: C_3  and  S_4 
REMARK    2  A    between atoms: S_4  and  C_5 
REMARK    3  A    between atoms: C_5  and  C_6 
REMARK       I    between atoms: C_6  and  N_7 
REMARK    4  A    between atoms: N_7  and  C_8 
REMARK    5  A    between atoms: C_8  and  C_9 
REMARK    6  A    between atoms: C_17  and  C_18 
REMARK    7  A    between atoms: C_18  and  O_19 
REMARK    8  A    between atoms: O_19  and  C_20 
ROOT
HETATM    1  C   UNL     1       5.724  31.429  57.433  1.00  0.00     0.160 C 
HETATM    2  N   UNL     1       6.787  30.849  58.212  1.00  0.00    -0.314 N 
HETATM    3  C   UNL     1       7.583  29.779  57.912  1.00  0.00     0.191 A 
HETATM    4  N   UNL     1       8.432  29.572  58.891  1.00  0.00    -0.123 NA
HETATM    5  N   UNL     1       8.220  30.531  59.844  1.00  0.00    -0.132 NA
HETATM    6  C   UNL     1       7.226  31.299  59.440  1.00  0.00     0.154 A 
ENDROOT
BRANCH   3   7
HETATM    7  S   UNL     1       7.493  28.870  56.446  1.00  0.00    -0.081 SA
BRANCH   7   8
HETATM    8  C   UNL     1       6.177  27.680  56.842  1.00  0.00     0.185 C 
BRANCH   8   9
HETATM    9  C   UNL     1       5.692  26.975  55.587  1.00  0.00     0.227 C 
HETATM   10  N   UNL     1       6.313  25.773  55.329  1.00  0.00    -0.354 N 
HETATM   11  H   UNL     1       7.218  25.617  55.773  1.00  0.00     0.162 HD
HETATM   12  O   UNL     1       4.817  27.444  54.864  1.00  0.00    -0.273 OA
BRANCH  10  13
HETATM   13  C   UNL     1       6.035  25.059  54.106  1.00  0.00     0.187 C 
BRANCH  13  14
HETATM   14  C   UNL     1       6.868  23.833  54.045  1.00  0.00     0.070 A 
HETATM   15  O   UNL     1       7.048  23.149  55.213  1.00  0.00    -0.325 OA
HETATM   16  C   UNL     1       7.824  22.072  54.927  1.00  0.00     0.142 A 
HETATM   17  C   UNL     1       8.145  22.048  53.590  1.00  0.00     0.027 A 
HETATM   18  C   UNL     1       7.524  23.183  53.017  1.00  0.00     0.036 A 
ENDBRANCH  13  14
ENDBRANCH  10  13
ENDBRANCH   8   9
ENDBRANCH   7   8
ENDBRANCH   3   7
BRANCH   6  19
HETATM   19  C   UNL     1       6.677  32.475  60.167  1.00  0.00     0.256 C 
BRANCH  19  20
HETATM   20  O   UNL     1       7.643  32.839  61.151  1.00  0.00    -0.344 OA
BRANCH  20  21
HETATM   21  C   UNL     1       7.150  33.282  62.348  1.00  0.00     0.070 A 
HETATM   22  C   UNL     1       6.093  34.180  62.509  1.00  0.00     0.049 A 
HETATM   23  C   UNL     1       5.670  34.569  63.793  1.00  0.00    -0.023 A 
HETATM   24  C   UNL     1       6.319  34.038  64.931  1.00  0.00    -0.026 A 
HETATM   25  C   UNL     1       4.614  35.478  63.972  1.00  0.00     0.012 A 
HETATM   26  C   UNL     1       7.368  33.124  64.755  1.00  0.00     0.015 A 
HETATM   27  C   UNL     1       5.902  34.433  66.211  1.00  0.00     0.012 A 
HETATM   28  C   UNL     1       7.774  32.747  63.474  1.00  0.00     0.037 A 
HETATM   29  C   UNL     1       4.852  35.340  66.370  1.00  0.00     0.001 A 
HETATM   30  C   UNL     1       4.209  35.861  65.252  1.00  0.00     0.001 A 
ENDBRANCH  20  21
ENDBRANCH  19  20
ENDBRANCH   6  19
TORSDOF 8
ENDMDL
