MODEL 1
REMARK VINA RESULT:     -10.4      0.000      0.000
REMARK  7 active torsions:
REMARK  status: ('A' for Active; 'I' for Inactive)
REMARK    1  A    between atoms: C_2  and  C_3 
REMARK    2  A    between atoms: C_3  and  C_4 
REMARK    3  A    between atoms: C_4  and  N_5 
REMARK       I    between atoms: N_5  and  C_6 
REMARK    4  A    between atoms: C_6  and  C_7 
REMARK    5  A    between atoms: C_8  and  N_9 
REMARK    6  A    between atoms: N_10  and  N_11 
REMARK    7  A    between atoms: C_12  and  C_13 
ROOT
HETATM    1  C   UNL     1       6.506  26.473  56.194  1.00  0.00     0.104 C 
HETATM    2  C   UNL     1       5.361  26.864  55.507  1.00  0.00     0.123 C 
HETATM    3  N   UNL     1       5.435  26.296  54.234  1.00  0.00    -0.202 N 
HETATM    4  C   UNL     1       6.234  25.175  54.336  1.00  0.00     0.183 A 
HETATM    5  C   UNL     1       6.969  25.309  55.514  1.00  0.00     0.124 A 
HETATM    6  N   UNL     1       7.960  24.432  55.818  1.00  0.00    -0.242 NA
HETATM    7  C   UNL     1       8.112  23.424  54.943  1.00  0.00     0.086 A 
HETATM    8  C   UNL     1       7.326  23.299  53.766  1.00  0.00     0.088 A 
HETATM    9  N   UNL     1       6.387  24.192  53.420  1.00  0.00    -0.225 NA
HETATM   10  C   UNL     1       9.075  22.458  55.207  1.00  0.00     0.034 A 
HETATM   11  C   UNL     1       9.276  21.369  54.357  1.00  0.00     0.002 A 
HETATM   12  C   UNL     1       8.497  21.242  53.215  1.00  0.00     0.002 A 
HETATM   13  C   UNL     1       7.534  22.209  52.930  1.00  0.00     0.034 A 
ENDROOT
BRANCH   3  14
HETATM   14  N   UNL     1       4.888  26.787  53.069  1.00  0.00    -0.176 NA
HETATM   15  C   UNL     1       5.726  27.508  52.397  1.00  0.00     0.153 C 
BRANCH  15  16
HETATM   16  C   UNL     1       5.389  28.090  51.119  1.00  0.00     0.011 A 
HETATM   17  C   UNL     1       4.802  27.396  50.013  1.00  0.00     0.004 A 
HETATM   18  C   UNL     1       4.523  28.344  49.030  1.00  0.00     0.043 A 
HETATM   19  C   UNL     1       4.472  26.045  49.764  1.00  0.00     0.014 A 
HETATM   20  C   UNL     1       3.904  28.013  47.817  1.00  0.00     0.030 A 
HETATM   21  N   UNL     1       4.956  29.560  49.508  1.00  0.00    -0.364 N 
HETATM   22  C   UNL     1       3.585  26.669  47.596  1.00  0.00     0.002 A 
HETATM   23  C   UNL     1       3.870  25.695  48.549  1.00  0.00     0.001 A 
HETATM   24  H   UNL     1       4.871  30.435  49.009  1.00  0.00     0.165 HD
HETATM   25  C   UNL     1       5.499  29.415  50.757  1.00  0.00     0.102 A 
ENDBRANCH  15  16
ENDBRANCH   3  14
BRANCH   2  26
HETATM   26  N   UNL     1       4.365  27.739  55.854  1.00  0.00    -0.286 NA
HETATM   27  H   UNL     1       3.742  27.444  56.611  1.00  0.00     0.125 HD
HETATM   28  H   UNL     1       3.799  28.110  55.083  1.00  0.00     0.125 HD
ENDBRANCH   2  26
BRANCH   1  29
HETATM   29  C   UNL     1       7.076  27.161  57.346  1.00  0.00     0.257 C 
HETATM   30  N   UNL     1       6.734  28.501  57.372  1.00  0.00    -0.357 N 
HETATM   31  H   UNL     1       6.203  28.834  56.575  1.00  0.00     0.162 HD
HETATM   32  O   UNL     1       7.841  26.649  58.153  1.00  0.00    -0.267 OA
BRANCH  30  33
HETATM   33  C   UNL     1       7.405  29.497  58.179  1.00  0.00     0.123 C 
BRANCH  33  34
HETATM   34  C   UNL     1       8.525  30.133  57.354  1.00  0.00     0.023 C 
BRANCH  34  35
HETATM   35  C   UNL     1       9.894  30.177  58.048  1.00  0.00    -0.021 C 
HETATM   36  C   UNL     1      10.221  31.567  58.586  1.00  0.00     0.009 C 
HETATM   37  C   UNL     1      10.980  29.730  57.063  1.00  0.00     0.009 C 
ENDBRANCH  34  35
ENDBRANCH  33  34
ENDBRANCH  30  33
ENDBRANCH   1  29
TORSDOF 7
ENDMDL
MODEL 2
REMARK VINA RESULT:     -10.1      1.165      1.957
REMARK  7 active torsions:
REMARK  status: ('A' for Active; 'I' for Inactive)
REMARK    1  A    between atoms: C_2  and  C_3 
REMARK    2  A    between atoms: C_3  and  C_4 
REMARK    3  A    between atoms: C_4  and  N_5 
REMARK       I    between atoms: N_5  and  C_6 
REMARK    4  A    between atoms: C_6  and  C_7 
REMARK    5  A    between atoms: C_8  and  N_9 
REMARK    6  A    between atoms: N_10  and  N_11 
REMARK    7  A    between atoms: C_12  and  C_13 
ROOT
HETATM    1  C   UNL     1       6.976  26.010  55.979  1.00  0.00     0.104 C 
HETATM    2  C   UNL     1       6.219  26.625  54.987  1.00  0.00     0.123 C 
HETATM    3  N   UNL     1       6.525  25.986  53.784  1.00  0.00    -0.202 N 
HETATM    4  C   UNL     1       6.957  24.713  54.100  1.00  0.00     0.183 A 
HETATM    5  C   UNL     1       7.319  24.734  55.447  1.00  0.00     0.124 A 
HETATM    6  N   UNL     1       7.929  23.663  56.018  1.00  0.00    -0.242 NA
HETATM    7  C   UNL     1       8.082  22.600  55.211  1.00  0.00     0.086 A 
HETATM    8  C   UNL     1       7.674  22.601  53.849  1.00  0.00     0.088 A 
HETATM    9  N   UNL     1       7.129  23.673  53.254  1.00  0.00    -0.225 NA
HETATM   10  C   UNL     1       8.656  21.448  55.733  1.00  0.00     0.034 A 
HETATM   11  C   UNL     1       8.825  20.297  54.961  1.00  0.00     0.002 A 
HETATM   12  C   UNL     1       8.414  20.297  53.637  1.00  0.00     0.002 A 
HETATM   13  C   UNL     1       7.846  21.449  53.094  1.00  0.00     0.034 A 
ENDROOT
BRANCH   3  14
HETATM   14  N   UNL     1       6.486  26.528  52.518  1.00  0.00    -0.176 NA
HETATM   15  C   UNL     1       5.309  26.453  51.986  1.00  0.00     0.153 C 
BRANCH  15  16
HETATM   16  C   UNL     1       5.019  26.997  50.681  1.00  0.00     0.011 A 
HETATM   17  C   UNL     1       5.144  28.372  50.301  1.00  0.00     0.004 A 
HETATM   18  C   UNL     1       4.892  28.448  48.932  1.00  0.00     0.043 A 
HETATM   19  C   UNL     1       5.462  29.559  50.998  1.00  0.00     0.014 A 
HETATM   20  C   UNL     1       4.967  29.651  48.218  1.00  0.00     0.030 A 
HETATM   21  N   UNL     1       4.590  27.175  48.506  1.00  0.00    -0.364 N 
HETATM   22  C   UNL     1       5.287  30.811  48.931  1.00  0.00     0.002 A 
HETATM   23  C   UNL     1       5.524  30.772  50.302  1.00  0.00     0.001 A 
HETATM   24  H   UNL     1       4.374  26.926  47.550  1.00  0.00     0.165 HD
HETATM   25  C   UNL     1       4.642  26.296  49.555  1.00  0.00     0.102 A 
ENDBRANCH  15  16
ENDBRANCH   3  14
BRANCH   2  26
HETATM   26  N   UNL     1       5.411  27.732  55.035  1.00  0.00    -0.286 NA
HETATM   27  H   UNL     1       5.601  28.402  55.785  1.00  0.00     0.125 HD
HETATM   28  H   UNL     1       4.402  27.558  54.992  1.00  0.00     0.125 HD
ENDBRANCH   2  26
BRANCH   1  29
HETATM   29  C   UNL     1       7.330  26.605  57.263  1.00  0.00     0.257 C 
HETATM   30  N   UNL     1       7.245  27.985  57.236  1.00  0.00    -0.357 N 
HETATM   31  H   UNL     1       7.020  28.394  56.335  1.00  0.00     0.162 HD
HETATM   32  O   UNL     1       7.741  25.978  58.229  1.00  0.00    -0.267 OA
BRANCH  30  33
HETATM   33  C   UNL     1       7.844  28.857  58.223  1.00  0.00     0.123 C 
BRANCH  33  34
HETATM   34  C   UNL     1       8.747  29.867  57.513  1.00  0.00     0.023 C 
BRANCH  34  35
HETATM   35  C   UNL     1       9.983  29.263  56.832  1.00  0.00    -0.021 C 
HETATM   36  C   UNL     1      11.279  29.908  57.315  1.00  0.00     0.009 C 
HETATM   37  C   UNL     1       9.856  29.420  55.312  1.00  0.00     0.009 C 
ENDBRANCH  34  35
ENDBRANCH  33  34
ENDBRANCH  30  33
ENDBRANCH   1  29
TORSDOF 7
ENDMDL
MODEL 3
REMARK VINA RESULT:      -9.9      2.842      8.523
REMARK  7 active torsions:
REMARK  status: ('A' for Active; 'I' for Inactive)
REMARK    1  A    between atoms: C_2  and  C_3 
REMARK    2  A    between atoms: C_3  and  C_4 
REMARK    3  A    between atoms: C_4  and  N_5 
REMARK       I    between atoms: N_5  and  C_6 
REMARK    4  A    between atoms: C_6  and  C_7 
REMARK    5  A    between atoms: C_8  and  N_9 
REMARK    6  A    between atoms: N_10  and  N_11 
REMARK    7  A    between atoms: C_12  and  C_13 
ROOT
HETATM    1  C   UNL     1       4.933  28.024  52.079  1.00  0.00     0.104 C 
HETATM    2  C   UNL     1       4.779  26.674  52.377  1.00  0.00     0.123 C 
HETATM    3  N   UNL     1       4.972  26.535  53.752  1.00  0.00    -0.202 N 
HETATM    4  C   UNL     1       4.668  27.752  54.329  1.00  0.00     0.183 A 
HETATM    5  C   UNL     1       4.720  28.705  53.312  1.00  0.00     0.124 A 
HETATM    6  N   UNL     1       4.613  30.028  53.595  1.00  0.00    -0.242 NA
HETATM    7  C   UNL     1       4.394  30.316  54.889  1.00  0.00     0.086 A 
HETATM    8  C   UNL     1       4.317  29.318  55.898  1.00  0.00     0.088 A 
HETATM    9  N   UNL     1       4.484  28.012  55.643  1.00  0.00    -0.225 NA
HETATM   10  C   UNL     1       4.227  31.646  55.253  1.00  0.00     0.034 A 
HETATM   11  C   UNL     1       3.973  32.019  56.574  1.00  0.00     0.002 A 
HETATM   12  C   UNL     1       3.884  31.043  57.555  1.00  0.00     0.002 A 
HETATM   13  C   UNL     1       4.060  29.703  57.208  1.00  0.00     0.034 A 
ENDROOT
BRANCH   3  14
HETATM   14  N   UNL     1       5.451  25.429  54.420  1.00  0.00    -0.176 NA
HETATM   15  C   UNL     1       6.743  25.380  54.430  1.00  0.00     0.153 C 
BRANCH  15  16
HETATM   16  C   UNL     1       7.469  24.334  55.111  1.00  0.00     0.011 A 
HETATM   17  C   UNL     1       7.791  23.049  54.566  1.00  0.00     0.004 A 
HETATM   18  C   UNL     1       8.602  22.398  55.494  1.00  0.00     0.043 A 
HETATM   19  C   UNL     1       7.475  22.386  53.360  1.00  0.00     0.014 A 
HETATM   20  C   UNL     1       9.135  21.123  55.265  1.00  0.00     0.030 A 
HETATM   21  N   UNL     1       8.735  23.240  56.575  1.00  0.00    -0.364 N 
HETATM   22  C   UNL     1       8.810  20.489  54.061  1.00  0.00     0.002 A 
HETATM   23  C   UNL     1       7.986  21.105  53.123  1.00  0.00     0.001 A 
HETATM   24  H   UNL     1       9.283  23.032  57.399  1.00  0.00     0.165 HD
HETATM   25  C   UNL     1       8.040  24.400  56.364  1.00  0.00     0.102 A 
ENDBRANCH  15  16
ENDBRANCH   3  14
BRANCH   2  26
HETATM   26  N   UNL     1       4.611  25.590  51.555  1.00  0.00    -0.286 NA
HETATM   27  H   UNL     1       5.401  24.942  51.487  1.00  0.00     0.125 HD
HETATM   28  H   UNL     1       4.260  25.787  50.611  1.00  0.00     0.125 HD
ENDBRANCH   2  26
BRANCH   1  29
HETATM   29  C   UNL     1       5.266  28.567  50.767  1.00  0.00     0.257 C 
HETATM   30  N   UNL     1       4.585  27.922  49.750  1.00  0.00    -0.357 N 
HETATM   31  H   UNL     1       4.012  27.135  50.036  1.00  0.00     0.162 HD
HETATM   32  O   UNL     1       6.111  29.429  50.565  1.00  0.00    -0.267 OA
BRANCH  30  33
HETATM   33  C   UNL     1       4.946  28.000  48.351  1.00  0.00     0.123 C 
BRANCH  33  34
HETATM   34  C   UNL     1       4.523  26.705  47.656  1.00  0.00     0.023 C 
BRANCH  34  35
HETATM   35  C   UNL     1       3.162  26.149  48.098  1.00  0.00    -0.021 C 
HETATM   36  C   UNL     1       3.111  24.625  48.024  1.00  0.00     0.009 C 
HETATM   37  C   UNL     1       2.056  26.751  47.223  1.00  0.00     0.009 C 
ENDBRANCH  34  35
ENDBRANCH  33  34
ENDBRANCH  30  33
ENDBRANCH   1  29
TORSDOF 7
ENDMDL
MODEL 4
REMARK VINA RESULT:      -9.8      2.033      6.270
REMARK  7 active torsions:
REMARK  status: ('A' for Active; 'I' for Inactive)
REMARK    1  A    between atoms: C_2  and  C_3 
REMARK    2  A    between atoms: C_3  and  C_4 
REMARK    3  A    between atoms: C_4  and  N_5 
REMARK       I    between atoms: N_5  and  C_6 
REMARK    4  A    between atoms: C_6  and  C_7 
REMARK    5  A    between atoms: C_8  and  N_9 
REMARK    6  A    between atoms: N_10  and  N_11 
REMARK    7  A    between atoms: C_12  and  C_13 
ROOT
HETATM    1  C   UNL     1       6.094  28.936  56.518  1.00  0.00     0.104 C 
HETATM    2  C   UNL     1       6.932  27.916  56.955  1.00  0.00     0.123 C 
HETATM    3  N   UNL     1       6.693  26.812  56.135  1.00  0.00    -0.202 N 
HETATM    4  C   UNL     1       6.209  27.295  54.935  1.00  0.00     0.183 A 
HETATM    5  C   UNL     1       5.756  28.593  55.177  1.00  0.00     0.124 A 
HETATM    6  N   UNL     1       5.083  29.282  54.220  1.00  0.00    -0.242 NA
HETATM    7  C   UNL     1       4.960  28.645  53.044  1.00  0.00     0.086 A 
HETATM    8  C   UNL     1       5.459  27.333  52.820  1.00  0.00     0.088 A 
HETATM    9  N   UNL     1       6.070  26.616  53.775  1.00  0.00    -0.225 NA
HETATM   10  C   UNL     1       4.323  29.302  51.998  1.00  0.00     0.034 A 
HETATM   11  C   UNL     1       4.178  28.714  50.740  1.00  0.00     0.002 A 
HETATM   12  C   UNL     1       4.679  27.439  50.521  1.00  0.00     0.002 A 
HETATM   13  C   UNL     1       5.311  26.761  51.563  1.00  0.00     0.034 A 
ENDROOT
BRANCH   3  14
HETATM   14  N   UNL     1       6.832  25.482  56.465  1.00  0.00    -0.176 NA
HETATM   15  C   UNL     1       7.647  24.861  55.675  1.00  0.00     0.153 C 
BRANCH  15  16
HETATM   16  C   UNL     1       7.982  23.468  55.857  1.00  0.00     0.011 A 
HETATM   17  C   UNL     1       8.065  22.486  54.818  1.00  0.00     0.004 A 
HETATM   18  C   UNL     1       8.539  21.310  55.397  1.00  0.00     0.043 A 
HETATM   19  C   UNL     1       7.789  22.495  53.433  1.00  0.00     0.014 A 
HETATM   20  C   UNL     1       8.777  20.146  54.654  1.00  0.00     0.030 A 
HETATM   21  N   UNL     1       8.703  21.559  56.741  1.00  0.00    -0.364 N 
HETATM   22  C   UNL     1       8.499  20.182  53.283  1.00  0.00     0.002 A 
HETATM   23  C   UNL     1       8.004  21.335  52.679  1.00  0.00     0.001 A 
HETATM   24  H   UNL     1       9.050  20.886  57.411  1.00  0.00     0.165 HD
HETATM   25  C   UNL     1       8.351  22.850  57.033  1.00  0.00     0.102 A 
ENDBRANCH  15  16
ENDBRANCH   3  14
BRANCH   2  26
HETATM   26  N   UNL     1       7.761  27.845  58.044  1.00  0.00    -0.286 NA
HETATM   27  H   UNL     1       7.357  27.453  58.900  1.00  0.00     0.125 HD
HETATM   28  H   UNL     1       8.274  28.701  58.280  1.00  0.00     0.125 HD
ENDBRANCH   2  26
BRANCH   1  29
HETATM   29  C   UNL     1       5.667  30.080  57.316  1.00  0.00     0.257 C 
HETATM   30  N   UNL     1       6.742  30.792  57.818  1.00  0.00    -0.357 N 
HETATM   31  H   UNL     1       7.657  30.398  57.628  1.00  0.00     0.162 HD
HETATM   32  O   UNL     1       4.504  30.341  57.591  1.00  0.00    -0.267 OA
BRANCH  30  33
HETATM   33  C   UNL     1       6.650  31.752  58.897  1.00  0.00     0.123 C 
BRANCH  33  34
HETATM   34  C   UNL     1       7.637  31.358  59.998  1.00  0.00     0.023 C 
BRANCH  34  35
HETATM   35  C   UNL     1       9.002  32.056  59.921  1.00  0.00    -0.021 C 
HETATM   36  C   UNL     1       9.881  31.480  58.815  1.00  0.00     0.009 C 
HETATM   37  C   UNL     1       9.715  31.932  61.272  1.00  0.00     0.009 C 
ENDBRANCH  34  35
ENDBRANCH  33  34
ENDBRANCH  30  33
ENDBRANCH   1  29
TORSDOF 7
ENDMDL
MODEL 5
REMARK VINA RESULT:      -9.5      1.881      7.965
REMARK  7 active torsions:
REMARK  status: ('A' for Active; 'I' for Inactive)
REMARK    1  A    between atoms: C_2  and  C_3 
REMARK    2  A    between atoms: C_3  and  C_4 
REMARK    3  A    between atoms: C_4  and  N_5 
REMARK       I    between atoms: N_5  and  C_6 
REMARK    4  A    between atoms: C_6  and  C_7 
REMARK    5  A    between atoms: C_8  and  N_9 
REMARK    6  A    between atoms: N_10  and  N_11 
REMARK    7  A    between atoms: C_12  and  C_13 
ROOT
HETATM    1  C   UNL     1       6.304  25.561  53.188  1.00  0.00     0.104 C 
HETATM    2  C   UNL     1       5.917  25.675  54.519  1.00  0.00     0.123 C 
HETATM    3  N   UNL     1       5.294  26.916  54.658  1.00  0.00    -0.202 N 
HETATM    4  C   UNL     1       4.803  27.265  53.415  1.00  0.00     0.183 A 
HETATM    5  C   UNL     1       5.483  26.484  52.480  1.00  0.00     0.124 A 
HETATM    6  N   UNL     1       5.327  26.703  51.149  1.00  0.00    -0.242 NA
HETATM    7  C   UNL     1       4.439  27.661  50.832  1.00  0.00     0.086 A 
HETATM    8  C   UNL     1       3.740  28.419  51.811  1.00  0.00     0.088 A 
HETATM    9  N   UNL     1       3.931  28.257  53.128  1.00  0.00    -0.225 NA
HETATM   10  C   UNL     1       4.189  27.914  49.489  1.00  0.00     0.034 A 
HETATM   11  C   UNL     1       3.263  28.877  49.084  1.00  0.00     0.002 A 
HETATM   12  C   UNL     1       2.572  29.605  50.041  1.00  0.00     0.002 A 
HETATM   13  C   UNL     1       2.819  29.371  51.393  1.00  0.00     0.034 A 
ENDROOT
BRANCH   3  14
HETATM   14  N   UNL     1       5.237  27.699  55.790  1.00  0.00    -0.176 NA
HETATM   15  C   UNL     1       6.279  28.456  55.918  1.00  0.00     0.153 C 
BRANCH  15  16
HETATM   16  C   UNL     1       6.418  29.395  57.006  1.00  0.00     0.011 A 
HETATM   17  C   UNL     1       7.655  29.892  57.528  1.00  0.00     0.004 A 
HETATM   18  C   UNL     1       7.343  30.865  58.477  1.00  0.00     0.043 A 
HETATM   19  C   UNL     1       9.015  29.610  57.270  1.00  0.00     0.014 A 
HETATM   20  C   UNL     1       8.325  31.591  59.164  1.00  0.00     0.030 A 
HETATM   21  N   UNL     1       5.970  30.929  58.553  1.00  0.00    -0.364 N 
HETATM   22  C   UNL     1       9.664  31.294  58.887  1.00  0.00     0.002 A 
HETATM   23  C   UNL     1      10.008  30.314  57.961  1.00  0.00     0.001 A 
HETATM   24  H   UNL     1       5.458  31.560  59.154  1.00  0.00     0.165 HD
HETATM   25  C   UNL     1       5.403  30.032  57.687  1.00  0.00     0.102 A 
ENDBRANCH  15  16
ENDBRANCH   3  14
BRANCH   2  26
HETATM   26  N   UNL     1       6.165  24.863  55.595  1.00  0.00    -0.286 NA
HETATM   27  H   UNL     1       5.432  24.815  56.309  1.00  0.00     0.125 HD
HETATM   28  H   UNL     1       7.072  24.990  56.058  1.00  0.00     0.125 HD
ENDBRANCH   2  26
BRANCH   1  29
HETATM   29  C   UNL     1       7.353  24.680  52.686  1.00  0.00     0.257 C 
HETATM   30  N   UNL     1       7.106  23.353  52.989  1.00  0.00    -0.357 N 
HETATM   31  H   UNL     1       6.287  23.179  53.561  1.00  0.00     0.162 HD
HETATM   32  O   UNL     1       8.379  25.063  52.139  1.00  0.00    -0.267 OA
BRANCH  30  33
HETATM   33  C   UNL     1       8.101  22.305  52.926  1.00  0.00     0.123 C 
BRANCH  33  34
HETATM   34  C   UNL     1       7.753  21.227  53.954  1.00  0.00     0.023 C 
BRANCH  34  35
HETATM   35  C   UNL     1       7.839  21.679  55.418  1.00  0.00    -0.021 C 
HETATM   36  C   UNL     1       8.985  22.661  55.650  1.00  0.00     0.009 C 
HETATM   37  C   UNL     1       8.013  20.453  56.322  1.00  0.00     0.009 C 
ENDBRANCH  34  35
ENDBRANCH  33  34
ENDBRANCH  30  33
ENDBRANCH   1  29
TORSDOF 7
ENDMDL
MODEL 6
REMARK VINA RESULT:      -9.5      3.642      7.729
REMARK  7 active torsions:
REMARK  status: ('A' for Active; 'I' for Inactive)
REMARK    1  A    between atoms: C_2  and  C_3 
REMARK    2  A    between atoms: C_3  and  C_4 
REMARK    3  A    between atoms: C_4  and  N_5 
REMARK       I    between atoms: N_5  and  C_6 
REMARK    4  A    between atoms: C_6  and  C_7 
REMARK    5  A    between atoms: C_8  and  N_9 
REMARK    6  A    between atoms: N_10  and  N_11 
REMARK    7  A    between atoms: C_12  and  C_13 
ROOT
HETATM    1  C   UNL     1       5.515  30.714  56.652  1.00  0.00     0.104 C 
HETATM    2  C   UNL     1       5.554  29.363  56.328  1.00  0.00     0.123 C 
HETATM    3  N   UNL     1       6.753  28.856  56.834  1.00  0.00    -0.202 N 
HETATM    4  C   UNL     1       7.121  29.667  57.890  1.00  0.00     0.183 A 
HETATM    5  C   UNL     1       6.417  30.863  57.744  1.00  0.00     0.124 A 
HETATM    6  N   UNL     1       6.680  31.924  58.549  1.00  0.00    -0.242 NA
HETATM    7  C   UNL     1       7.597  31.699  59.504  1.00  0.00     0.086 A 
HETATM    8  C   UNL     1       8.276  30.457  59.644  1.00  0.00     0.088 A 
HETATM    9  N   UNL     1       8.074  29.421  58.817  1.00  0.00    -0.225 NA
HETATM   10  C   UNL     1       7.889  32.722  60.398  1.00  0.00     0.034 A 
HETATM   11  C   UNL     1       8.813  32.554  61.431  1.00  0.00     0.002 A 
HETATM   12  C   UNL     1       9.463  31.337  61.573  1.00  0.00     0.002 A 
HETATM   13  C   UNL     1       9.191  30.303  60.678  1.00  0.00     0.034 A 
ENDROOT
BRANCH   3  14
HETATM   14  N   UNL     1       7.486  27.799  56.342  1.00  0.00    -0.176 NA
HETATM   15  C   UNL     1       7.136  26.670  56.867  1.00  0.00     0.153 C 
BRANCH  15  16
HETATM   16  C   UNL     1       7.736  25.418  56.470  1.00  0.00     0.011 A 
HETATM   17  C   UNL     1       7.523  24.747  55.224  1.00  0.00     0.004 A 
HETATM   18  C   UNL     1       8.382  23.649  55.192  1.00  0.00     0.043 A 
HETATM   19  C   UNL     1       6.683  24.981  54.112  1.00  0.00     0.014 A 
HETATM   20  C   UNL     1       8.463  22.786  54.092  1.00  0.00     0.030 A 
HETATM   21  N   UNL     1       9.063  23.635  56.389  1.00  0.00    -0.364 N 
HETATM   22  C   UNL     1       7.623  23.042  53.002  1.00  0.00     0.002 A 
HETATM   23  C   UNL     1       6.739  24.118  53.012  1.00  0.00     0.001 A 
HETATM   24  H   UNL     1       9.766  22.953  56.640  1.00  0.00     0.165 HD
HETATM   25  C   UNL     1       8.667  24.684  57.175  1.00  0.00     0.102 A 
ENDBRANCH  15  16
ENDBRANCH   3  14
BRANCH   2  26
HETATM   26  N   UNL     1       4.717  28.604  55.552  1.00  0.00    -0.286 NA
HETATM   27  H   UNL     1       3.969  29.105  55.064  1.00  0.00     0.125 HD
HETATM   28  H   UNL     1       4.323  27.767  55.996  1.00  0.00     0.125 HD
ENDBRANCH   2  26
BRANCH   1  29
HETATM   29  C   UNL     1       4.715  31.725  55.968  1.00  0.00     0.257 C 
HETATM   30  N   UNL     1       5.006  33.003  56.409  1.00  0.00    -0.357 N 
HETATM   31  H   UNL     1       5.669  33.063  57.175  1.00  0.00     0.162 HD
HETATM   32  O   UNL     1       3.826  31.480  55.163  1.00  0.00    -0.267 OA
BRANCH  30  33
HETATM   33  C   UNL     1       4.165  34.156  56.175  1.00  0.00     0.123 C 
BRANCH  33  34
HETATM   34  C   UNL     1       3.276  34.381  57.400  1.00  0.00     0.023 C 
BRANCH  34  35
HETATM   35  C   UNL     1       3.997  34.262  58.750  1.00  0.00    -0.021 C 
HETATM   36  C   UNL     1       3.420  33.143  59.614  1.00  0.00     0.009 C 
HETATM   37  C   UNL     1       3.904  35.598  59.497  1.00  0.00     0.009 C 
ENDBRANCH  34  35
ENDBRANCH  33  34
ENDBRANCH  30  33
ENDBRANCH   1  29
TORSDOF 7
ENDMDL
MODEL 7
REMARK VINA RESULT:      -9.4      2.117      2.842
REMARK  7 active torsions:
REMARK  status: ('A' for Active; 'I' for Inactive)
REMARK    1  A    between atoms: C_2  and  C_3 
REMARK    2  A    between atoms: C_3  and  C_4 
REMARK    3  A    between atoms: C_4  and  N_5 
REMARK       I    between atoms: N_5  and  C_6 
REMARK    4  A    between atoms: C_6  and  C_7 
REMARK    5  A    between atoms: C_8  and  N_9 
REMARK    6  A    between atoms: N_10  and  N_11 
REMARK    7  A    between atoms: C_12  and  C_13 
ROOT
HETATM    1  C   UNL     1       7.079  28.985  57.332  1.00  0.00     0.104 C 
HETATM    2  C   UNL     1       5.927  29.408  56.678  1.00  0.00     0.123 C 
HETATM    3  N   UNL     1       5.725  28.540  55.604  1.00  0.00    -0.202 N 
HETATM    4  C   UNL     1       6.337  27.346  55.927  1.00  0.00     0.183 A 
HETATM    5  C   UNL     1       7.245  27.622  56.950  1.00  0.00     0.124 A 
HETATM    6  N   UNL     1       8.113  26.672  57.384  1.00  0.00    -0.242 NA
HETATM    7  C   UNL     1       7.973  25.469  56.802  1.00  0.00     0.086 A 
HETATM    8  C   UNL     1       7.017  25.212  55.782  1.00  0.00     0.088 A 
HETATM    9  N   UNL     1       6.197  26.157  55.299  1.00  0.00    -0.225 NA
HETATM   10  C   UNL     1       8.793  24.430  57.223  1.00  0.00     0.034 A 
HETATM   11  C   UNL     1       8.690  23.147  56.682  1.00  0.00     0.002 A 
HETATM   12  C   UNL     1       7.747  22.896  55.697  1.00  0.00     0.002 A 
HETATM   13  C   UNL     1       6.923  23.930  55.255  1.00  0.00     0.034 A 
ENDROOT
BRANCH   3  14
HETATM   14  N   UNL     1       5.105  28.824  54.407  1.00  0.00    -0.176 NA
HETATM   15  C   UNL     1       5.910  28.726  53.399  1.00  0.00     0.153 C 
BRANCH  15  16
HETATM   16  C   UNL     1       5.471  28.934  52.040  1.00  0.00     0.011 A 
HETATM   17  C   UNL     1       5.127  27.905  51.105  1.00  0.00     0.004 A 
HETATM   18  C   UNL     1       4.636  28.532  49.961  1.00  0.00     0.043 A 
HETATM   19  C   UNL     1       5.178  26.493  51.135  1.00  0.00     0.014 A 
HETATM   20  C   UNL     1       4.168  27.816  48.851  1.00  0.00     0.030 A 
HETATM   21  N   UNL     1       4.714  29.889  50.179  1.00  0.00    -0.364 N 
HETATM   22  C   UNL     1       4.226  26.419  48.907  1.00  0.00     0.002 A 
HETATM   23  C   UNL     1       4.730  25.764  50.028  1.00  0.00     0.001 A 
HETATM   24  H   UNL     1       4.414  30.593  49.519  1.00  0.00     0.165 HD
HETATM   25  C   UNL     1       5.235  30.142  51.420  1.00  0.00     0.102 A 
ENDBRANCH  15  16
ENDBRANCH   3  14
BRANCH   2  26
HETATM   26  N   UNL     1       5.147  30.519  56.869  1.00  0.00    -0.286 NA
HETATM   27  H   UNL     1       4.895  31.049  56.030  1.00  0.00     0.125 HD
HETATM   28  H   UNL     1       5.460  31.173  57.595  1.00  0.00     0.125 HD
ENDBRANCH   2  26
BRANCH   1  29
HETATM   29  C   UNL     1       7.912  29.812  58.198  1.00  0.00     0.257 C 
HETATM   30  N   UNL     1       7.159  30.678  58.970  1.00  0.00    -0.357 N 
HETATM   31  H   UNL     1       6.161  30.671  58.790  1.00  0.00     0.162 HD
HETATM   32  O   UNL     1       9.136  29.815  58.188  1.00  0.00    -0.267 OA
BRANCH  30  33
HETATM   33  C   UNL     1       7.697  31.831  59.659  1.00  0.00     0.123 C 
BRANCH  33  34
HETATM   34  C   UNL     1       7.188  31.829  61.102  1.00  0.00     0.023 C 
BRANCH  34  35
HETATM   35  C   UNL     1       8.272  31.619  62.169  1.00  0.00    -0.021 C 
HETATM   36  C   UNL     1       8.070  32.526  63.380  1.00  0.00     0.009 C 
HETATM   37  C   UNL     1       9.652  31.874  61.551  1.00  0.00     0.009 C 
ENDBRANCH  34  35
ENDBRANCH  33  34
ENDBRANCH  30  33
ENDBRANCH   1  29
TORSDOF 7
ENDMDL
MODEL 8
REMARK VINA RESULT:      -9.4      2.076      7.649
REMARK  7 active torsions:
REMARK  status: ('A' for Active; 'I' for Inactive)
REMARK    1  A    between atoms: C_2  and  C_3 
REMARK    2  A    between atoms: C_3  and  C_4 
REMARK    3  A    between atoms: C_4  and  N_5 
REMARK       I    between atoms: N_5  and  C_6 
REMARK    4  A    between atoms: C_6  and  C_7 
REMARK    5  A    between atoms: C_8  and  N_9 
REMARK    6  A    between atoms: N_10  and  N_11 
REMARK    7  A    between atoms: C_12  and  C_13 
ROOT
HETATM    1  C   UNL     1       7.213  24.978  55.084  1.00  0.00     0.104 C 
HETATM    2  C   UNL     1       6.722  25.417  56.310  1.00  0.00     0.123 C 
HETATM    3  N   UNL     1       6.138  26.665  56.091  1.00  0.00    -0.202 N 
HETATM    4  C   UNL     1       5.763  26.711  54.763  1.00  0.00     0.183 A 
HETATM    5  C   UNL     1       6.486  25.716  54.106  1.00  0.00     0.124 A 
HETATM    6  N   UNL     1       6.447  25.609  52.753  1.00  0.00    -0.242 NA
HETATM    7  C   UNL     1       5.625  26.476  52.139  1.00  0.00     0.086 A 
HETATM    8  C   UNL     1       4.877  27.460  52.842  1.00  0.00     0.088 A 
HETATM    9  N   UNL     1       4.954  27.619  54.171  1.00  0.00    -0.225 NA
HETATM   10  C   UNL     1       5.494  26.400  50.758  1.00  0.00     0.034 A 
HETATM   11  C   UNL     1       4.641  27.252  50.054  1.00  0.00     0.002 A 
HETATM   12  C   UNL     1       3.903  28.202  50.743  1.00  0.00     0.002 A 
HETATM   13  C   UNL     1       4.030  28.298  52.129  1.00  0.00     0.034 A 
ENDROOT
BRANCH   3  14
HETATM   14  N   UNL     1       6.018  27.700  56.994  1.00  0.00    -0.176 NA
HETATM   15  C   UNL     1       7.082  28.435  57.043  1.00  0.00     0.153 C 
BRANCH  15  16
HETATM   16  C   UNL     1       7.170  29.604  57.885  1.00  0.00     0.011 A 
HETATM   17  C   UNL     1       6.254  30.706  57.885  1.00  0.00     0.004 A 
HETATM   18  C   UNL     1       6.626  31.554  58.928  1.00  0.00     0.043 A 
HETATM   19  C   UNL     1       5.134  31.052  57.098  1.00  0.00     0.014 A 
HETATM   20  C   UNL     1       5.917  32.720  59.240  1.00  0.00     0.030 A 
HETATM   21  N   UNL     1       7.745  31.006  59.514  1.00  0.00    -0.364 N 
HETATM   22  C   UNL     1       4.809  33.039  58.447  1.00  0.00     0.002 A 
HETATM   23  C   UNL     1       4.425  32.224  57.385  1.00  0.00     0.001 A 
HETATM   24  H   UNL     1       8.228  31.403  60.308  1.00  0.00     0.165 HD
HETATM   25  C   UNL     1       8.093  29.842  58.881  1.00  0.00     0.102 A 
ENDBRANCH  15  16
ENDBRANCH   3  14
BRANCH   2  26
HETATM   26  N   UNL     1       6.852  24.886  57.567  1.00  0.00    -0.286 NA
HETATM   27  H   UNL     1       6.991  23.873  57.622  1.00  0.00     0.125 HD
HETATM   28  H   UNL     1       6.138  25.162  58.250  1.00  0.00     0.125 HD
ENDBRANCH   2  26
BRANCH   1  29
HETATM   29  C   UNL     1       8.265  23.984  54.902  1.00  0.00     0.257 C 
HETATM   30  N   UNL     1       8.126  23.293  53.712  1.00  0.00    -0.357 N 
HETATM   31  H   UNL     1       7.297  23.515  53.170  1.00  0.00     0.162 HD
HETATM   32  O   UNL     1       9.123  23.720  55.734  1.00  0.00    -0.267 OA
BRANCH  30  33
HETATM   33  C   UNL     1       8.796  22.047  53.411  1.00  0.00     0.123 C 
BRANCH  33  34
HETATM   34  C   UNL     1       7.869  20.884  53.773  1.00  0.00     0.023 C 
BRANCH  34  35
HETATM   35  C   UNL     1       8.219  20.163  55.082  1.00  0.00    -0.021 C 
HETATM   36  C   UNL     1       7.322  20.601  56.237  1.00  0.00     0.009 C 
HETATM   37  C   UNL     1       9.688  20.427  55.434  1.00  0.00     0.009 C 
ENDBRANCH  34  35
ENDBRANCH  33  34
ENDBRANCH  30  33
ENDBRANCH   1  29
TORSDOF 7
ENDMDL
MODEL 9
REMARK VINA RESULT:      -9.4      2.331      7.417
REMARK  7 active torsions:
REMARK  status: ('A' for Active; 'I' for Inactive)
REMARK    1  A    between atoms: C_2  and  C_3 
REMARK    2  A    between atoms: C_3  and  C_4 
REMARK    3  A    between atoms: C_4  and  N_5 
REMARK       I    between atoms: N_5  and  C_6 
REMARK    4  A    between atoms: C_6  and  C_7 
REMARK    5  A    between atoms: C_8  and  N_9 
REMARK    6  A    between atoms: N_10  and  N_11 
REMARK    7  A    between atoms: C_12  and  C_13 
ROOT
HETATM    1  C   UNL     1       6.138  26.413  52.134  1.00  0.00     0.104 C 
HETATM    2  C   UNL     1       6.354  27.544  52.913  1.00  0.00     0.123 C 
HETATM    3  N   UNL     1       6.640  27.102  54.205  1.00  0.00    -0.202 N 
HETATM    4  C   UNL     1       7.152  25.825  54.092  1.00  0.00     0.183 A 
HETATM    5  C   UNL     1       6.777  25.350  52.835  1.00  0.00     0.124 A 
HETATM    6  N   UNL     1       7.006  24.058  52.484  1.00  0.00    -0.242 NA
HETATM    7  C   UNL     1       7.662  23.329  53.403  1.00  0.00     0.086 A 
HETATM    8  C   UNL     1       8.057  23.852  54.664  1.00  0.00     0.088 A 
HETATM    9  N   UNL     1       7.782  25.107  55.049  1.00  0.00    -0.225 NA
HETATM   10  C   UNL     1       7.974  22.010  53.101  1.00  0.00     0.034 A 
HETATM   11  C   UNL     1       8.675  21.198  53.995  1.00  0.00     0.002 A 
HETATM   12  C   UNL     1       9.071  21.715  55.220  1.00  0.00     0.002 A 
HETATM   13  C   UNL     1       8.756  23.034  55.543  1.00  0.00     0.034 A 
ENDROOT
BRANCH   3  14
HETATM   14  N   UNL     1       6.394  27.764  55.388  1.00  0.00    -0.176 NA
HETATM   15  C   UNL     1       7.408  28.464  55.781  1.00  0.00     0.153 C 
BRANCH  15  16
HETATM   16  C   UNL     1       7.365  29.279  56.972  1.00  0.00     0.011 A 
HETATM   17  C   UNL     1       6.533  30.428  57.170  1.00  0.00     0.004 A 
HETATM   18  C   UNL     1       6.704  30.841  58.491  1.00  0.00     0.043 A 
HETATM   19  C   UNL     1       5.640  31.148  56.346  1.00  0.00     0.014 A 
HETATM   20  C   UNL     1       6.006  31.924  59.038  1.00  0.00     0.030 A 
HETATM   21  N   UNL     1       7.631  29.997  59.060  1.00  0.00    -0.364 N 
HETATM   22  C   UNL     1       5.124  32.618  58.202  1.00  0.00     0.002 A 
HETATM   23  C   UNL     1       4.947  32.244  56.873  1.00  0.00     0.001 A 
HETATM   24  H   UNL     1       7.943  30.053  60.020  1.00  0.00     0.165 HD
HETATM   25  C   UNL     1       8.052  29.066  58.148  1.00  0.00     0.102 A 
ENDBRANCH  15  16
ENDBRANCH   3  14
BRANCH   2  26
HETATM   26  N   UNL     1       6.204  28.875  52.618  1.00  0.00    -0.286 NA
HETATM   27  H   UNL     1       6.167  29.121  51.625  1.00  0.00     0.125 HD
HETATM   28  H   UNL     1       6.843  29.519  53.097  1.00  0.00     0.125 HD
ENDBRANCH   2  26
BRANCH   1  29
HETATM   29  C   UNL     1       5.388  26.378  50.883  1.00  0.00     0.257 C 
HETATM   30  N   UNL     1       5.593  27.516  50.124  1.00  0.00    -0.357 N 
HETATM   31  H   UNL     1       6.168  28.233  50.553  1.00  0.00     0.162 HD
HETATM   32  O   UNL     1       4.599  25.497  50.570  1.00  0.00    -0.267 OA
BRANCH  30  33
HETATM   33  C   UNL     1       4.749  27.921  49.020  1.00  0.00     0.123 C 
BRANCH  33  34
HETATM   34  C   UNL     1       3.503  28.614  49.576  1.00  0.00     0.023 C 
BRANCH  34  35
HETATM   35  C   UNL     1       2.377  28.833  48.556  1.00  0.00    -0.021 C 
HETATM   36  C   UNL     1       1.410  27.653  48.504  1.00  0.00     0.009 C 
HETATM   37  C   UNL     1       2.985  29.071  47.169  1.00  0.00     0.009 C 
ENDBRANCH  34  35
ENDBRANCH  33  34
ENDBRANCH  30  33
ENDBRANCH   1  29
TORSDOF 7
ENDMDL
MODEL 10
REMARK VINA RESULT:      -9.3      2.545      8.294
REMARK  7 active torsions:
REMARK  status: ('A' for Active; 'I' for Inactive)
REMARK    1  A    between atoms: C_2  and  C_3 
REMARK    2  A    between atoms: C_3  and  C_4 
REMARK    3  A    between atoms: C_4  and  N_5 
REMARK       I    between atoms: N_5  and  C_6 
REMARK    4  A    between atoms: C_6  and  C_7 
REMARK    5  A    between atoms: C_8  and  N_9 
REMARK    6  A    between atoms: N_10  and  N_11 
REMARK    7  A    between atoms: C_12  and  C_13 
ROOT
HETATM    1  C   UNL     1       5.113  28.109  53.979  1.00  0.00     0.104 C 
HETATM    2  C   UNL     1       5.303  29.263  54.732  1.00  0.00     0.123 C 
HETATM    3  N   UNL     1       5.742  28.860  55.994  1.00  0.00    -0.202 N 
HETATM    4  C   UNL     1       6.347  27.629  55.838  1.00  0.00     0.183 A 
HETATM    5  C   UNL     1       5.901  27.111  54.622  1.00  0.00     0.124 A 
HETATM    6  N   UNL     1       6.204  25.839  54.257  1.00  0.00    -0.242 NA
HETATM    7  C   UNL     1       7.000  25.178  55.113  1.00  0.00     0.086 A 
HETATM    8  C   UNL     1       7.463  25.745  56.332  1.00  0.00     0.088 A 
HETATM    9  N   UNL     1       7.120  26.977  56.736  1.00  0.00    -0.225 NA
HETATM   10  C   UNL     1       7.394  23.885  54.789  1.00  0.00     0.034 A 
HETATM   11  C   UNL     1       8.239  23.145  55.618  1.00  0.00     0.002 A 
HETATM   12  C   UNL     1       8.700  23.706  56.799  1.00  0.00     0.002 A 
HETATM   13  C   UNL     1       8.305  24.998  57.145  1.00  0.00     0.034 A 
ENDROOT
BRANCH   3  14
HETATM   14  N   UNL     1       5.550  29.513  57.192  1.00  0.00    -0.176 NA
HETATM   15  C   UNL     1       6.453  30.411  57.414  1.00  0.00     0.153 C 
BRANCH  15  16
HETATM   16  C   UNL     1       6.429  31.253  58.587  1.00  0.00     0.011 A 
HETATM   17  C   UNL     1       7.396  31.244  59.643  1.00  0.00     0.004 A 
HETATM   18  C   UNL     1       7.075  32.289  60.508  1.00  0.00     0.043 A 
HETATM   19  C   UNL     1       8.526  30.447  59.934  1.00  0.00     0.014 A 
HETATM   20  C   UNL     1       7.843  32.594  61.639  1.00  0.00     0.030 A 
HETATM   21  N   UNL     1       5.936  32.885  60.015  1.00  0.00    -0.364 N 
HETATM   22  C   UNL     1       8.958  31.791  61.904  1.00  0.00     0.002 A 
HETATM   23  C   UNL     1       9.293  30.727  61.070  1.00  0.00     0.001 A 
HETATM   24  H   UNL     1       5.480  33.683  60.436  1.00  0.00     0.165 HD
HETATM   25  C   UNL     1       5.526  32.256  58.870  1.00  0.00     0.102 A 
ENDBRANCH  15  16
ENDBRANCH   3  14
BRANCH   2  26
HETATM   26  N   UNL     1       5.016  30.573  54.448  1.00  0.00    -0.286 NA
HETATM   27  H   UNL     1       5.171  30.875  53.482  1.00  0.00     0.125 HD
HETATM   28  H   UNL     1       5.416  31.272  55.083  1.00  0.00     0.125 HD
ENDBRANCH   2  26
BRANCH   1  29
HETATM   29  C   UNL     1       4.258  27.998  52.803  1.00  0.00     0.257 C 
HETATM   30  N   UNL     1       4.888  27.335  51.765  1.00  0.00    -0.357 N 
HETATM   31  H   UNL     1       5.856  27.080  51.930  1.00  0.00     0.162 HD
HETATM   32  O   UNL     1       3.149  28.504  52.699  1.00  0.00    -0.267 OA
BRANCH  30  33
HETATM   33  C   UNL     1       4.440  27.364  50.390  1.00  0.00     0.123 C 
BRANCH  33  34
HETATM   34  C   UNL     1       5.339  28.312  49.594  1.00  0.00     0.023 C 
BRANCH  34  35
HETATM   35  C   UNL     1       5.286  28.126  48.071  1.00  0.00    -0.021 C 
HETATM   36  C   UNL     1       4.432  29.192  47.390  1.00  0.00     0.009 C 
HETATM   37  C   UNL     1       4.736  26.732  47.746  1.00  0.00     0.009 C 
ENDBRANCH  34  35
ENDBRANCH  33  34
ENDBRANCH  30  33
ENDBRANCH   1  29
TORSDOF 7
ENDMDL
