MODEL 1
REMARK VINA RESULT:      -8.8      0.000      0.000
REMARK  3 active torsions:
REMARK  status: ('A' for Active; 'I' for Inactive)
REMARK    1  A    between atoms: C_2  and  N_3 
REMARK       I    between atoms: N_3  and  C_4 
REMARK    2  A    between atoms: C_4  and  C_5 
REMARK    3  A    between atoms: C_5  and  C_6 
ROOT
HETATM    1  C   UNL     1       8.315  24.598  54.944  1.00  0.00     0.286 C 
HETATM    2  N   UNL     1       8.483  23.280  55.697  1.00  0.00    -0.056 N 
HETATM    3  H   UNL     1       9.440  22.942  55.535  1.00  0.00     0.278 HD
HETATM    4  H   UNL     1       8.450  23.496  56.718  1.00  0.00     0.278 HD
HETATM    5  C   UNL     1       7.473  22.223  55.346  1.00  0.00     0.209 C 
HETATM    6  C   UNL     1       7.546  21.967  53.821  1.00  0.00     0.115 C 
HETATM    7  N   UNL     1       7.441  23.210  53.061  1.00  0.00    -0.353 N 
HETATM    8  C   UNL     1       7.953  24.419  53.459  1.00  0.00     0.249 C 
HETATM    9  O   UNL     1       8.026  25.349  52.663  1.00  0.00    -0.271 OA
HETATM   10  C   UNL     1       7.752  20.967  56.170  1.00  0.00     0.035 C 
HETATM   11  C   UNL     1       9.021  20.233  55.742  1.00  0.00     0.002 C 
HETATM   12  C   UNL     1       9.027  19.949  54.244  1.00  0.00     0.002 C 
HETATM   13  C   UNL     1       8.827  21.217  53.422  1.00  0.00     0.027 C 
HETATM   14  H   UNL     1       7.225  23.158  52.067  1.00  0.00     0.163 HD
ENDROOT
BRANCH   1  15
HETATM   15  C   UNL     1       7.271  25.510  55.603  1.00  0.00     0.146 C 
BRANCH  15  16
HETATM   16  C   UNL     1       7.918  26.356  56.674  1.00  0.00     0.224 C 
HETATM   17  N   UNL     1       7.956  27.701  56.391  1.00  0.00    -0.327 N 
HETATM   18  H   UNL     1       7.635  28.009  55.477  1.00  0.00     0.169 HD
HETATM   19  O   UNL     1       8.326  25.794  57.691  1.00  0.00    -0.273 OA
BRANCH  17  20
HETATM   20  C   UNL     1       8.471  28.728  57.216  1.00  0.00     0.034 A 
HETATM   21  C   UNL     1       7.632  29.216  58.227  1.00  0.00     0.031 A 
HETATM   22  C   UNL     1       8.064  30.241  59.078  1.00  0.00     0.026 A 
HETATM   23  C   UNL     1       9.341  30.772  58.929  1.00  0.00     0.034 A 
HETATM   24  C   UNL     1      10.187  30.288  57.937  1.00  0.00     0.026 A 
HETATM   25 CL   UNL     1       9.874  32.029  59.973  1.00  0.00    -0.084 Cl
HETATM   26  C   UNL     1       9.752  29.269  57.081  1.00  0.00     0.031 A 
ENDBRANCH  17  20
ENDBRANCH  15  16
ENDBRANCH   1  15
TORSDOF 3
ENDMDL
MODEL 2
REMARK VINA RESULT:      -8.5      4.466      6.336
REMARK  3 active torsions:
REMARK  status: ('A' for Active; 'I' for Inactive)
REMARK    1  A    between atoms: C_2  and  N_3 
REMARK       I    between atoms: N_3  and  C_4 
REMARK    2  A    between atoms: C_4  and  C_5 
REMARK    3  A    between atoms: C_5  and  C_6 
ROOT
HETATM    1  C   UNL     1       6.765  24.553  55.060  1.00  0.00     0.286 C 
HETATM    2  N   UNL     1       7.254  23.406  54.178  1.00  0.00    -0.056 N 
HETATM    3  H   UNL     1       6.559  22.651  54.226  1.00  0.00     0.278 HD
HETATM    4  H   UNL     1       7.218  23.734  53.188  1.00  0.00     0.278 HD
HETATM    5  C   UNL     1       8.627  22.894  54.517  1.00  0.00     0.209 C 
HETATM    6  C   UNL     1       8.629  22.451  56.000  1.00  0.00     0.115 C 
HETATM    7  N   UNL     1       8.118  23.503  56.876  1.00  0.00    -0.353 N 
HETATM    8  C   UNL     1       7.119  24.381  56.548  1.00  0.00     0.249 C 
HETATM    9  O   UNL     1       6.594  25.071  57.417  1.00  0.00    -0.271 OA
HETATM   10  C   UNL     1       8.991  21.759  53.561  1.00  0.00     0.035 C 
HETATM   11  C   UNL     1       8.194  20.481  53.809  1.00  0.00     0.002 C 
HETATM   12  C   UNL     1       8.270  20.047  55.268  1.00  0.00     0.002 C 
HETATM   13  C   UNL     1       7.830  21.157  56.217  1.00  0.00     0.027 C 
HETATM   14  H   UNL     1       8.300  23.436  57.877  1.00  0.00     0.163 HD
ENDROOT
BRANCH   1  15
HETATM   15  C   UNL     1       7.288  25.914  54.580  1.00  0.00     0.146 C 
BRANCH  15  16
HETATM   16  C   UNL     1       7.061  26.066  53.094  1.00  0.00     0.224 C 
HETATM   17  N   UNL     1       5.915  26.748  52.760  1.00  0.00    -0.327 N 
HETATM   18  H   UNL     1       5.282  27.018  53.508  1.00  0.00     0.169 HD
HETATM   19  O   UNL     1       7.905  25.601  52.327  1.00  0.00    -0.273 OA
BRANCH  17  20
HETATM   20  C   UNL     1       5.464  27.065  51.459  1.00  0.00     0.034 A 
HETATM   21  C   UNL     1       5.477  28.417  51.089  1.00  0.00     0.031 A 
HETATM   22  C   UNL     1       5.035  28.814  49.821  1.00  0.00     0.026 A 
HETATM   23  C   UNL     1       4.591  27.858  48.913  1.00  0.00     0.034 A 
HETATM   24  C   UNL     1       4.584  26.512  49.263  1.00  0.00     0.026 A 
HETATM   25 CL   UNL     1       4.049  28.342  47.356  1.00  0.00    -0.084 Cl
HETATM   26  C   UNL     1       5.019  26.116  50.535  1.00  0.00     0.031 A 
ENDBRANCH  17  20
ENDBRANCH  15  16
ENDBRANCH   1  15
TORSDOF 3
ENDMDL
MODEL 3
REMARK VINA RESULT:      -8.4      5.326      7.345
REMARK  3 active torsions:
REMARK  status: ('A' for Active; 'I' for Inactive)
REMARK    1  A    between atoms: C_2  and  N_3 
REMARK       I    between atoms: N_3  and  C_4 
REMARK    2  A    between atoms: C_4  and  C_5 
REMARK    3  A    between atoms: C_5  and  C_6 
ROOT
HETATM    1  C   UNL     1       6.558  24.536  53.636  1.00  0.00     0.286 C 
HETATM    2  N   UNL     1       6.932  23.080  53.366  1.00  0.00    -0.056 N 
HETATM    3  H   UNL     1       6.320  22.484  53.938  1.00  0.00     0.278 HD
HETATM    4  H   UNL     1       6.663  22.864  52.382  1.00  0.00     0.278 HD
HETATM    5  C   UNL     1       8.379  22.748  53.605  1.00  0.00     0.209 C 
HETATM    6  C   UNL     1       8.729  23.115  55.068  1.00  0.00     0.115 C 
HETATM    7  N   UNL     1       8.340  24.487  55.385  1.00  0.00    -0.353 N 
HETATM    8  C   UNL     1       7.231  25.124  54.889  1.00  0.00     0.249 C 
HETATM    9  O   UNL     1       6.854  26.181  55.385  1.00  0.00    -0.271 OA
HETATM   10  C   UNL     1       8.615  21.271  53.295  1.00  0.00     0.035 C 
HETATM   11  C   UNL     1       7.985  20.330  54.319  1.00  0.00     0.002 C 
HETATM   12  C   UNL     1       8.400  20.690  55.741  1.00  0.00     0.002 C 
HETATM   13  C   UNL     1       8.091  22.145  56.074  1.00  0.00     0.027 C 
HETATM   14  H   UNL     1       8.733  24.927  56.216  1.00  0.00     0.163 HD
ENDROOT
BRANCH   1  15
HETATM   15  C   UNL     1       6.866  25.442  52.436  1.00  0.00     0.146 C 
BRANCH  15  16
HETATM   16  C   UNL     1       5.637  25.601  51.573  1.00  0.00     0.224 C 
HETATM   17  N   UNL     1       5.724  26.606  50.638  1.00  0.00    -0.327 N 
HETATM   18  H   UNL     1       6.546  27.203  50.651  1.00  0.00     0.169 HD
HETATM   19  O   UNL     1       4.695  24.829  51.755  1.00  0.00    -0.273 OA
BRANCH  17  20
HETATM   20  C   UNL     1       4.747  26.963  49.682  1.00  0.00     0.034 A 
HETATM   21  C   UNL     1       3.896  28.029  50.005  1.00  0.00     0.031 A 
HETATM   22  C   UNL     1       2.894  28.436  49.116  1.00  0.00     0.026 A 
HETATM   23  C   UNL     1       2.748  27.787  47.894  1.00  0.00     0.034 A 
HETATM   24  C   UNL     1       3.594  26.736  47.556  1.00  0.00     0.026 A 
HETATM   25 CL   UNL     1       1.520  28.286  46.800  1.00  0.00    -0.084 Cl
HETATM   26  C   UNL     1       4.590  26.323  48.450  1.00  0.00     0.031 A 
ENDBRANCH  17  20
ENDBRANCH  15  16
ENDBRANCH   1  15
TORSDOF 3
ENDMDL
MODEL 4
REMARK VINA RESULT:      -8.4      3.943      7.982
REMARK  3 active torsions:
REMARK  status: ('A' for Active; 'I' for Inactive)
REMARK    1  A    between atoms: C_2  and  N_3 
REMARK       I    between atoms: N_3  and  C_4 
REMARK    2  A    between atoms: C_4  and  C_5 
REMARK    3  A    between atoms: C_5  and  C_6 
ROOT
HETATM    1  C   UNL     1       7.472  27.951  57.055  1.00  0.00     0.286 C 
HETATM    2  N   UNL     1       6.370  28.032  56.000  1.00  0.00    -0.056 N 
HETATM    3  H   UNL     1       6.701  28.642  55.242  1.00  0.00     0.278 HD
HETATM    4  H   UNL     1       6.285  27.089  55.561  1.00  0.00     0.278 HD
HETATM    5  C   UNL     1       5.037  28.497  56.519  1.00  0.00     0.209 C 
HETATM    6  C   UNL     1       5.229  29.882  57.183  1.00  0.00     0.115 C 
HETATM    7  N   UNL     1       6.311  29.863  58.164  1.00  0.00    -0.353 N 
HETATM    8  C   UNL     1       7.460  29.123  58.051  1.00  0.00     0.249 C 
HETATM    9  O   UNL     1       8.410  29.344  58.795  1.00  0.00    -0.271 OA
HETATM   10  C   UNL     1       4.032  28.528  55.368  1.00  0.00     0.035 C 
HETATM   11  C   UNL     1       4.298  29.646  54.363  1.00  0.00     0.002 C 
HETATM   12  C   UNL     1       4.422  31.001  55.051  1.00  0.00     0.002 C 
HETATM   13  C   UNL     1       5.482  30.988  56.147  1.00  0.00     0.027 C 
HETATM   14  H   UNL     1       6.372  30.624  58.839  1.00  0.00     0.163 HD
ENDROOT
BRANCH   1  15
HETATM   15  C   UNL     1       7.424  26.633  57.839  1.00  0.00     0.146 C 
BRANCH  15  16
HETATM   16  C   UNL     1       7.111  25.483  56.910  1.00  0.00     0.224 C 
HETATM   17  N   UNL     1       8.196  25.001  56.217  1.00  0.00    -0.327 N 
HETATM   18  H   UNL     1       9.082  25.490  56.311  1.00  0.00     0.169 HD
HETATM   19  O   UNL     1       5.952  25.070  56.867  1.00  0.00    -0.273 OA
BRANCH  17  20
HETATM   20  C   UNL     1       8.209  23.920  55.306  1.00  0.00     0.034 A 
HETATM   21  C   UNL     1       8.542  22.658  55.816  1.00  0.00     0.031 A 
HETATM   22  C   UNL     1       8.589  21.539  54.977  1.00  0.00     0.026 A 
HETATM   23  C   UNL     1       8.291  21.675  53.625  1.00  0.00     0.034 A 
HETATM   24  C   UNL     1       7.947  22.920  53.108  1.00  0.00     0.026 A 
HETATM   25 CL   UNL     1       8.346  20.303  52.592  1.00  0.00    -0.084 Cl
HETATM   26  C   UNL     1       7.909  24.041  53.947  1.00  0.00     0.031 A 
ENDBRANCH  17  20
ENDBRANCH  15  16
ENDBRANCH   1  15
TORSDOF 3
ENDMDL
MODEL 5
REMARK VINA RESULT:      -8.2      3.522      8.617
REMARK  3 active torsions:
REMARK  status: ('A' for Active; 'I' for Inactive)
REMARK    1  A    between atoms: C_2  and  N_3 
REMARK       I    between atoms: N_3  and  C_4 
REMARK    2  A    between atoms: C_4  and  C_5 
REMARK    3  A    between atoms: C_5  and  C_6 
ROOT
HETATM    1  C   UNL     1       6.888  28.991  57.658  1.00  0.00     0.286 C 
HETATM    2  N   UNL     1       8.082  29.447  58.494  1.00  0.00    -0.056 N 
HETATM    3  H   UNL     1       7.888  29.215  59.476  1.00  0.00     0.278 HD
HETATM    4  H   UNL     1       8.894  28.846  58.237  1.00  0.00     0.278 HD
HETATM    5  C   UNL     1       8.432  30.902  58.347  1.00  0.00     0.209 C 
HETATM    6  C   UNL     1       7.185  31.744  58.712  1.00  0.00     0.115 C 
HETATM    7  N   UNL     1       6.005  31.305  57.970  1.00  0.00    -0.353 N 
HETATM    8  C   UNL     1       5.733  30.007  57.625  1.00  0.00     0.249 C 
HETATM    9  O   UNL     1       4.618  29.699  57.215  1.00  0.00    -0.271 OA
HETATM   10  C   UNL     1       9.638  31.221  59.229  1.00  0.00     0.035 C 
HETATM   11  C   UNL     1       9.317  31.206  60.721  1.00  0.00     0.002 C 
HETATM   12  C   UNL     1       8.119  32.091  61.047  1.00  0.00     0.002 C 
HETATM   13  C   UNL     1       6.893  31.719  60.220  1.00  0.00     0.027 C 
HETATM   14  H   UNL     1       5.196  31.924  57.929  1.00  0.00     0.163 HD
ENDROOT
BRANCH   1  15
HETATM   15  C   UNL     1       7.291  28.650  56.216  1.00  0.00     0.146 C 
BRANCH  15  16
HETATM   16  C   UNL     1       7.624  27.182  56.100  1.00  0.00     0.224 C 
HETATM   17  N   UNL     1       7.189  26.590  54.937  1.00  0.00    -0.327 N 
HETATM   18  H   UNL     1       6.621  27.143  54.300  1.00  0.00     0.169 HD
HETATM   19  O   UNL     1       8.256  26.654  57.016  1.00  0.00    -0.273 OA
BRANCH  17  20
HETATM   20  C   UNL     1       7.381  25.246  54.545  1.00  0.00     0.034 A 
HETATM   21  C   UNL     1       7.771  25.017  53.217  1.00  0.00     0.031 A 
HETATM   22  C   UNL     1       7.970  23.713  52.748  1.00  0.00     0.026 A 
HETATM   23  C   UNL     1       7.794  22.634  53.607  1.00  0.00     0.034 A 
HETATM   24  C   UNL     1       7.419  22.848  54.930  1.00  0.00     0.026 A 
HETATM   25 CL   UNL     1       8.039  21.032  53.035  1.00  0.00    -0.084 Cl
HETATM   26  C   UNL     1       7.212  24.152  55.397  1.00  0.00     0.031 A 
ENDBRANCH  17  20
ENDBRANCH  15  16
ENDBRANCH   1  15
TORSDOF 3
ENDMDL
MODEL 6
REMARK VINA RESULT:      -8.1      2.713      3.470
REMARK  3 active torsions:
REMARK  status: ('A' for Active; 'I' for Inactive)
REMARK    1  A    between atoms: C_2  and  N_3 
REMARK       I    between atoms: N_3  and  C_4 
REMARK    2  A    between atoms: C_4  and  C_5 
REMARK    3  A    between atoms: C_5  and  C_6 
ROOT
HETATM    1  C   UNL     1       5.464  27.855  54.318  1.00  0.00     0.286 C 
HETATM    2  N   UNL     1       6.415  26.754  54.782  1.00  0.00    -0.056 N 
HETATM    3  H   UNL     1       7.193  26.705  54.113  1.00  0.00     0.278 HD
HETATM    4  H   UNL     1       6.855  27.074  55.673  1.00  0.00     0.278 HD
HETATM    5  C   UNL     1       5.775  25.405  54.961  1.00  0.00     0.209 C 
HETATM    6  C   UNL     1       5.115  24.997  53.622  1.00  0.00     0.115 C 
HETATM    7  N   UNL     1       4.235  26.046  53.114  1.00  0.00    -0.353 N 
HETATM    8  C   UNL     1       4.457  27.392  53.251  1.00  0.00     0.249 C 
HETATM    9  O   UNL     1       3.798  28.195  52.597  1.00  0.00    -0.271 OA
HETATM   10  C   UNL     1       6.831  24.405  55.429  1.00  0.00     0.035 C 
HETATM   11  C   UNL     1       7.843  24.044  54.345  1.00  0.00     0.002 C 
HETATM   12  C   UNL     1       7.154  23.592  53.062  1.00  0.00     0.002 C 
HETATM   13  C   UNL     1       6.157  24.628  52.555  1.00  0.00     0.027 C 
HETATM   14  H   UNL     1       3.559  25.809  52.389  1.00  0.00     0.163 HD
ENDROOT
BRANCH   1  15
HETATM   15  C   UNL     1       4.693  28.482  55.488  1.00  0.00     0.146 C 
BRANCH  15  16
HETATM   16  C   UNL     1       5.607  28.673  56.674  1.00  0.00     0.224 C 
HETATM   17  N   UNL     1       6.218  29.903  56.730  1.00  0.00    -0.327 N 
HETATM   18  H   UNL     1       6.081  30.543  55.952  1.00  0.00     0.169 HD
HETATM   19  O   UNL     1       5.712  27.749  57.482  1.00  0.00    -0.273 OA
BRANCH  17  20
HETATM   20  C   UNL     1       7.096  30.371  57.734  1.00  0.00     0.034 A 
HETATM   21  C   UNL     1       6.595  31.328  58.628  1.00  0.00     0.031 A 
HETATM   22  C   UNL     1       7.405  31.850  59.643  1.00  0.00     0.026 A 
HETATM   23  C   UNL     1       8.716  31.406  59.777  1.00  0.00     0.034 A 
HETATM   24  C   UNL     1       9.223  30.448  58.905  1.00  0.00     0.026 A 
HETATM   25 CL   UNL     1       9.714  32.044  61.023  1.00  0.00    -0.084 Cl
HETATM   26  C   UNL     1       8.414  29.933  57.884  1.00  0.00     0.031 A 
ENDBRANCH  17  20
ENDBRANCH  15  16
ENDBRANCH   1  15
TORSDOF 3
ENDMDL
MODEL 7
REMARK VINA RESULT:      -7.9      3.675      8.831
REMARK  3 active torsions:
REMARK  status: ('A' for Active; 'I' for Inactive)
REMARK    1  A    between atoms: C_2  and  N_3 
REMARK       I    between atoms: N_3  and  C_4 
REMARK    2  A    between atoms: C_4  and  C_5 
REMARK    3  A    between atoms: C_5  and  C_6 
ROOT
HETATM    1  C   UNL     1       7.664  29.818  58.540  1.00  0.00     0.286 C 
HETATM    2  N   UNL     1       8.328  30.116  59.882  1.00  0.00    -0.056 N 
HETATM    3  H   UNL     1       7.726  29.738  60.624  1.00  0.00     0.278 HD
HETATM    4  H   UNL     1       9.200  29.544  59.935  1.00  0.00     0.278 HD
HETATM    5  C   UNL     1       8.631  31.569  60.125  1.00  0.00     0.209 C 
HETATM    6  C   UNL     1       7.312  32.369  60.006  1.00  0.00     0.115 C 
HETATM    7  N   UNL     1       6.616  32.074  58.756  1.00  0.00    -0.353 N 
HETATM    8  C   UNL     1       6.596  30.850  58.138  1.00  0.00     0.249 C 
HETATM    9  O   UNL     1       5.802  30.632  57.228  1.00  0.00    -0.271 OA
HETATM   10  C   UNL     1       9.294  31.723  61.493  1.00  0.00     0.035 C 
HETATM   11  C   UNL     1       8.337  31.483  62.658  1.00  0.00     0.002 C 
HETATM   12  C   UNL     1       7.077  32.332  62.534  1.00  0.00     0.002 C 
HETATM   13  C   UNL     1       6.375  32.116  61.197  1.00  0.00     0.027 C 
HETATM   14  H   UNL     1       5.881  32.708  58.445  1.00  0.00     0.163 HD
ENDROOT
BRANCH   1  15
HETATM   15  C   UNL     1       8.689  29.696  57.403  1.00  0.00     0.146 C 
BRANCH  15  16
HETATM   16  C   UNL     1       8.421  28.452  56.590  1.00  0.00     0.224 C 
HETATM   17  N   UNL     1       8.333  27.297  57.330  1.00  0.00    -0.327 N 
HETATM   18  H   UNL     1       8.531  27.348  58.326  1.00  0.00     0.169 HD
HETATM   19  O   UNL     1       8.286  28.572  55.372  1.00  0.00    -0.273 OA
BRANCH  17  20
HETATM   20  C   UNL     1       8.063  25.997  56.845  1.00  0.00     0.034 A 
HETATM   21  C   UNL     1       8.786  24.939  57.415  1.00  0.00     0.031 A 
HETATM   22  C   UNL     1       8.586  23.623  56.981  1.00  0.00     0.026 A 
HETATM   23  C   UNL     1       7.651  23.358  55.986  1.00  0.00     0.034 A 
HETATM   24  C   UNL     1       6.918  24.397  55.421  1.00  0.00     0.026 A 
HETATM   25 CL   UNL     1       7.401  21.743  55.452  1.00  0.00    -0.084 Cl
HETATM   26  C   UNL     1       7.125  25.714  55.849  1.00  0.00     0.031 A 
ENDBRANCH  17  20
ENDBRANCH  15  16
ENDBRANCH   1  15
TORSDOF 3
ENDMDL
MODEL 8
REMARK VINA RESULT:      -7.9      4.117      8.344
REMARK  3 active torsions:
REMARK  status: ('A' for Active; 'I' for Inactive)
REMARK    1  A    between atoms: C_2  and  N_3 
REMARK       I    between atoms: N_3  and  C_4 
REMARK    2  A    between atoms: C_4  and  C_5 
REMARK    3  A    between atoms: C_5  and  C_6 
ROOT
HETATM    1  C   UNL     1       5.371  27.940  56.705  1.00  0.00     0.286 C 
HETATM    2  N   UNL     1       5.017  29.059  57.681  1.00  0.00    -0.056 N 
HETATM    3  H   UNL     1       3.995  29.168  57.681  1.00  0.00     0.278 HD
HETATM    4  H   UNL     1       5.246  28.723  58.642  1.00  0.00     0.278 HD
HETATM    5  C   UNL     1       5.696  30.372  57.404  1.00  0.00     0.209 C 
HETATM    6  C   UNL     1       5.347  30.807  55.960  1.00  0.00     0.115 C 
HETATM    7  N   UNL     1       5.622  29.743  54.997  1.00  0.00    -0.353 N 
HETATM    8  C   UNL     1       5.464  28.403  55.241  1.00  0.00     0.249 C 
HETATM    9  O   UNL     1       5.491  27.601  54.313  1.00  0.00    -0.271 OA
HETATM   10  C   UNL     1       5.260  31.396  58.451  1.00  0.00     0.035 C 
HETATM   11  C   UNL     1       3.809  31.842  58.291  1.00  0.00     0.002 C 
HETATM   12  C   UNL     1       3.521  32.317  56.871  1.00  0.00     0.002 C 
HETATM   13  C   UNL     1       3.885  31.262  55.833  1.00  0.00     0.027 C 
HETATM   14  H   UNL     1       5.674  29.982  54.008  1.00  0.00     0.163 HD
ENDROOT
BRANCH   1  15
HETATM   15  C   UNL     1       6.680  27.234  57.086  1.00  0.00     0.146 C 
BRANCH  15  16
HETATM   16  C   UNL     1       6.671  25.810  56.585  1.00  0.00     0.224 C 
HETATM   17  N   UNL     1       7.607  25.542  55.614  1.00  0.00    -0.327 N 
HETATM   18  H   UNL     1       8.160  26.315  55.254  1.00  0.00     0.169 HD
HETATM   19  O   UNL     1       5.868  25.022  57.086  1.00  0.00    -0.273 OA
BRANCH  17  20
HETATM   20  C   UNL     1       7.847  24.299  54.986  1.00  0.00     0.034 A 
HETATM   21  C   UNL     1       7.358  24.136  53.682  1.00  0.00     0.031 A 
HETATM   22  C   UNL     1       7.544  22.931  52.995  1.00  0.00     0.026 A 
HETATM   23  C   UNL     1       8.232  21.887  53.605  1.00  0.00     0.034 A 
HETATM   24  C   UNL     1       8.734  22.040  54.894  1.00  0.00     0.026 A 
HETATM   25 CL   UNL     1       8.465  20.406  52.765  1.00  0.00    -0.084 Cl
HETATM   26  C   UNL     1       8.540  23.243  55.583  1.00  0.00     0.031 A 
ENDBRANCH  17  20
ENDBRANCH  15  16
ENDBRANCH   1  15
TORSDOF 3
ENDMDL
MODEL 9
REMARK VINA RESULT:      -7.8      3.643      5.541
REMARK  3 active torsions:
REMARK  status: ('A' for Active; 'I' for Inactive)
REMARK    1  A    between atoms: C_2  and  N_3 
REMARK       I    between atoms: N_3  and  C_4 
REMARK    2  A    between atoms: C_4  and  C_5 
REMARK    3  A    between atoms: C_5  and  C_6 
ROOT
HETATM    1  C   UNL     1       7.843  29.094  57.380  1.00  0.00     0.286 C 
HETATM    2  N   UNL     1       6.859  27.948  57.608  1.00  0.00    -0.056 N 
HETATM    3  H   UNL     1       7.397  27.122  57.896  1.00  0.00     0.278 HD
HETATM    4  H   UNL     1       6.283  28.191  58.443  1.00  0.00     0.278 HD
HETATM    5  C   UNL     1       5.979  27.632  56.430  1.00  0.00     0.209 C 
HETATM    6  C   UNL     1       6.885  27.310  55.217  1.00  0.00     0.115 C 
HETATM    7  N   UNL     1       7.877  28.359  54.994  1.00  0.00    -0.353 N 
HETATM    8  C   UNL     1       8.490  29.084  55.984  1.00  0.00     0.249 C 
HETATM    9  O   UNL     1       9.472  29.772  55.726  1.00  0.00    -0.271 OA
HETATM   10  C   UNL     1       5.047  26.477  56.794  1.00  0.00     0.035 C 
HETATM   11  C   UNL     1       5.766  25.136  56.918  1.00  0.00     0.002 C 
HETATM   12  C   UNL     1       6.601  24.830  55.680  1.00  0.00     0.002 C 
HETATM   13  C   UNL     1       7.586  25.951  55.365  1.00  0.00     0.027 C 
HETATM   14  H   UNL     1       8.359  28.393  54.097  1.00  0.00     0.163 HD
ENDROOT
BRANCH   1  15
HETATM   15  C   UNL     1       7.195  30.466  57.616  1.00  0.00     0.146 C 
BRANCH  15  16
HETATM   16  C   UNL     1       7.736  31.088  58.881  1.00  0.00     0.224 C 
HETATM   17  N   UNL     1       6.775  31.419  59.808  1.00  0.00    -0.327 N 
HETATM   18  H   UNL     1       5.799  31.305  59.550  1.00  0.00     0.169 HD
HETATM   19  O   UNL     1       8.955  31.223  58.988  1.00  0.00    -0.273 OA
BRANCH  17  20
HETATM   20  C   UNL     1       6.988  31.985  61.086  1.00  0.00     0.034 A 
HETATM   21  C   UNL     1       6.197  33.089  61.436  1.00  0.00     0.031 A 
HETATM   22  C   UNL     1       6.355  33.713  62.679  1.00  0.00     0.026 A 
HETATM   23  C   UNL     1       7.294  33.228  63.582  1.00  0.00     0.034 A 
HETATM   24  C   UNL     1       8.076  32.125  63.253  1.00  0.00     0.026 A 
HETATM   25 CL   UNL     1       7.489  33.991  65.110  1.00  0.00    -0.084 Cl
HETATM   26  C   UNL     1       7.924  31.506  62.006  1.00  0.00     0.031 A 
ENDBRANCH  17  20
ENDBRANCH  15  16
ENDBRANCH   1  15
TORSDOF 3
ENDMDL
MODEL 10
REMARK VINA RESULT:      -7.7      5.245      7.410
REMARK  3 active torsions:
REMARK  status: ('A' for Active; 'I' for Inactive)
REMARK    1  A    between atoms: C_2  and  N_3 
REMARK       I    between atoms: N_3  and  C_4 
REMARK    2  A    between atoms: C_4  and  C_5 
REMARK    3  A    between atoms: C_5  and  C_6 
ROOT
HETATM    1  C   UNL     1       7.081  24.730  53.286  1.00  0.00     0.286 C 
HETATM    2  N   UNL     1       7.072  25.546  54.578  1.00  0.00    -0.056 N 
HETATM    3  H   UNL     1       8.031  25.871  54.754  1.00  0.00     0.278 HD
HETATM    4  H   UNL     1       6.528  26.417  54.395  1.00  0.00     0.278 HD
HETATM    5  C   UNL     1       6.524  24.819  55.775  1.00  0.00     0.209 C 
HETATM    6  C   UNL     1       7.347  23.525  55.979  1.00  0.00     0.115 C 
HETATM    7  N   UNL     1       7.425  22.738  54.751  1.00  0.00    -0.353 N 
HETATM    8  C   UNL     1       7.495  23.262  53.486  1.00  0.00     0.249 C 
HETATM    9  O   UNL     1       7.794  22.544  52.537  1.00  0.00    -0.271 OA
HETATM   10  C   UNL     1       6.568  25.745  56.989  1.00  0.00     0.035 C 
HETATM   11  C   UNL     1       7.984  26.006  57.499  1.00  0.00     0.002 C 
HETATM   12  C   UNL     1       8.741  24.705  57.742  1.00  0.00     0.002 C 
HETATM   13  C   UNL     1       8.762  23.817  56.503  1.00  0.00     0.027 C 
HETATM   14  H   UNL     1       7.716  21.763  54.812  1.00  0.00     0.163 HD
ENDROOT
BRANCH   1  15
HETATM   15  C   UNL     1       5.724  24.770  52.570  1.00  0.00     0.146 C 
BRANCH  15  16
HETATM   16  C   UNL     1       5.600  26.035  51.754  1.00  0.00     0.224 C 
HETATM   17  N   UNL     1       4.760  25.933  50.670  1.00  0.00    -0.327 N 
HETATM   18  H   UNL     1       4.364  25.022  50.454  1.00  0.00     0.169 HD
HETATM   19  O   UNL     1       6.224  27.030  52.126  1.00  0.00    -0.273 OA
BRANCH  17  20
HETATM   20  C   UNL     1       4.432  26.955  49.751  1.00  0.00     0.034 A 
HETATM   21  C   UNL     1       4.792  26.752  48.412  1.00  0.00     0.031 A 
HETATM   22  C   UNL     1       4.512  27.722  47.443  1.00  0.00     0.026 A 
HETATM   23  C   UNL     1       3.859  28.895  47.807  1.00  0.00     0.034 A 
HETATM   24  C   UNL     1       3.485  29.104  49.131  1.00  0.00     0.026 A 
HETATM   25 CL   UNL     1       3.512  30.088  46.620  1.00  0.00    -0.084 Cl
HETATM   26  C   UNL     1       3.773  28.137  50.101  1.00  0.00     0.031 A 
ENDBRANCH  17  20
ENDBRANCH  15  16
ENDBRANCH   1  15
TORSDOF 3
ENDMDL
