MODEL 1
REMARK VINA RESULT:      -9.5      0.000      0.000
REMARK  7 active torsions:
REMARK  status: ('A' for Active; 'I' for Inactive)
REMARK    1  A    between atoms: C_6  and  C_7 
REMARK    2  A    between atoms: N_13  and  C_15 
REMARK    3  A    between atoms: C_15  and  C_16 
REMARK    4  A    between atoms: C_16  and  N_17 
REMARK       I    between atoms: N_17  and  C_18 
REMARK    5  A    between atoms: C_18  and  C_19 
REMARK    6  A    between atoms: C_19  and  N_20 
REMARK    7  A    between atoms: C_19  and  C_27 
ROOT
HETATM    1  C   UNL     1       8.556  28.755  55.819  1.00  0.00     0.150 C 
ENDROOT
BRANCH   1   2
HETATM    2  C   UNL     1       7.625  28.040  54.813  1.00  0.00     0.255 C 
BRANCH   2   3
HETATM    3  N   UNL     1       6.685  27.040  55.464  1.00  0.00    -0.063 N 
HETATM    4  C   UNL     1       7.143  25.577  55.462  1.00  0.00     0.272 C 
HETATM    5  C   UNL     1       7.199  24.913  54.060  1.00  0.00     0.188 C 
HETATM    6  O   UNL     1       5.866  24.765  53.537  1.00  0.00    -0.339 OA
HETATM    7  C   UNL     1       5.484  25.853  52.806  1.00  0.00     0.077 A 
HETATM    8  C   UNL     1       5.159  27.056  53.440  1.00  0.00     0.001 A 
HETATM    9  C   UNL     1       5.368  25.708  51.426  1.00  0.00     0.037 A 
HETATM   10  C   UNL     1       4.740  28.138  52.653  1.00  0.00     0.012 A 
HETATM   11  C   UNL     1       5.259  27.175  54.930  1.00  0.00     0.276 C 
HETATM   12  C   UNL     1       4.646  28.006  51.265  1.00  0.00     0.001 A 
HETATM   13  C   UNL     1       4.958  26.792  50.654  1.00  0.00     0.003 A 
HETATM   14  H   UNL     1       6.599  27.300  56.455  1.00  0.00     0.280 HD
BRANCH   5  15
HETATM   15  C   UNL     1       7.862  23.557  54.170  1.00  0.00    -0.020 A 
HETATM   16  C   UNL     1       8.532  23.099  55.293  1.00  0.00     0.059 A 
HETATM   17  S   UNL     1       9.144  21.513  55.106  1.00  0.00    -0.113 SA
HETATM   18  C   UNL     1       8.551  21.416  53.508  1.00  0.00     0.050 A 
HETATM   19  C   UNL     1       7.890  22.564  53.132  1.00  0.00     0.017 A 
ENDBRANCH   5  15
ENDBRANCH   2   3
ENDBRANCH   1   2
BRANCH   1  20
HETATM   20  N   UNL     1       7.937  29.885  56.520  1.00  0.00    -0.357 N 
HETATM   21  C   UNL     1       7.755  29.872  57.895  1.00  0.00     0.253 C 
HETATM   22  O   UNL     1       7.962  28.851  58.546  1.00  0.00    -0.271 OA
HETATM   23  H   UNL     1       7.991  30.788  56.050  1.00  0.00     0.162 HD
BRANCH  21  24
HETATM   24  C   UNL     1       7.219  31.196  58.544  1.00  0.00     0.314 C 
BRANCH  24  25
HETATM   25  N   UNL     1       5.686  31.371  58.510  1.00  0.00    -0.050 N 
HETATM   26  H   UNL     1       5.364  31.220  59.474  1.00  0.00     0.281 HD
HETATM   27  C   UNL     1       5.258  32.786  58.121  1.00  0.00     0.262 C 
HETATM   28  C   UNL     1       3.734  32.911  58.212  1.00  0.00     0.195 C 
HETATM   29  O   UNL     1       3.100  31.942  57.375  1.00  0.00    -0.388 OA
HETATM   30  C   UNL     1       3.417  30.604  57.772  1.00  0.00     0.195 C 
HETATM   31  C   UNL     1       4.926  30.345  57.660  1.00  0.00     0.262 C 
ENDBRANCH  24  25
BRANCH  24  32
HETATM   32  C   UNL     1       7.784  31.448  59.921  1.00  0.00    -0.001 A 
HETATM   33  C   UNL     1       6.971  31.524  61.050  1.00  0.00     0.126 A 
HETATM   34  N   UNL     1       7.432  31.764  62.292  1.00  0.00    -0.272 NA
HETATM   35  C   UNL     1       8.761  31.955  62.441  1.00  0.00     0.116 A 
HETATM   36  C   UNL     1       9.654  31.913  61.387  1.00  0.00     0.020 A 
HETATM   37  C   UNL     1       9.158  31.657  60.110  1.00  0.00     0.012 A 
ENDBRANCH  24  32
ENDBRANCH  21  24
ENDBRANCH   1  20
TORSDOF 7
ENDMDL
MODEL 2
REMARK VINA RESULT:      -9.0      4.761      8.791
REMARK  7 active torsions:
REMARK  status: ('A' for Active; 'I' for Inactive)
REMARK    1  A    between atoms: C_6  and  C_7 
REMARK    2  A    between atoms: N_13  and  C_15 
REMARK    3  A    between atoms: C_15  and  C_16 
REMARK    4  A    between atoms: C_16  and  N_17 
REMARK       I    between atoms: N_17  and  C_18 
REMARK    5  A    between atoms: C_18  and  C_19 
REMARK    6  A    between atoms: C_19  and  N_20 
REMARK    7  A    between atoms: C_19  and  C_27 
ROOT
HETATM    1  C   UNL     1       4.993  25.962  50.665  1.00  0.00     0.150 C 
ENDROOT
BRANCH   1   2
HETATM    2  C   UNL     1       4.685  27.407  50.212  1.00  0.00     0.255 C 
BRANCH   2   3
HETATM    3  N   UNL     1       5.579  27.890  49.083  1.00  0.00    -0.063 N 
HETATM    4  C   UNL     1       5.818  29.402  49.005  1.00  0.00     0.272 C 
HETATM    5  C   UNL     1       4.565  30.243  48.639  1.00  0.00     0.188 C 
HETATM    6  O   UNL     1       4.178  29.975  47.279  1.00  0.00    -0.339 OA
HETATM    7  C   UNL     1       3.286  28.944  47.200  1.00  0.00     0.077 A 
HETATM    8  C   UNL     1       3.705  27.624  47.396  1.00  0.00     0.001 A 
HETATM    9  C   UNL     1       1.970  29.241  46.856  1.00  0.00     0.037 A 
HETATM   10  C   UNL     1       2.762  26.594  47.272  1.00  0.00     0.012 A 
HETATM   11  C   UNL     1       5.136  27.329  47.732  1.00  0.00     0.276 C 
HETATM   12  C   UNL     1       1.434  26.889  46.953  1.00  0.00     0.001 A 
HETATM   13  C   UNL     1       1.040  28.210  46.743  1.00  0.00     0.003 A 
HETATM   14  H   UNL     1       6.508  27.472  49.226  1.00  0.00     0.280 HD
BRANCH   5  15
HETATM   15  C   UNL     1       4.879  31.714  48.805  1.00  0.00    -0.020 A 
HETATM   16  C   UNL     1       4.016  32.744  48.471  1.00  0.00     0.059 A 
HETATM   17  S   UNL     1       4.662  34.292  48.806  1.00  0.00    -0.113 SA
HETATM   18  C   UNL     1       6.122  33.618  49.379  1.00  0.00     0.050 A 
HETATM   19  C   UNL     1       6.109  32.242  49.327  1.00  0.00     0.017 A 
ENDBRANCH   5  15
ENDBRANCH   2   3
ENDBRANCH   1   2
BRANCH   1  20
HETATM   20  N   UNL     1       5.936  25.864  51.784  1.00  0.00    -0.357 N 
HETATM   21  C   UNL     1       5.629  25.145  52.929  1.00  0.00     0.253 C 
HETATM   22  O   UNL     1       4.498  24.700  53.106  1.00  0.00    -0.271 OA
HETATM   23  H   UNL     1       6.919  26.009  51.555  1.00  0.00     0.162 HD
BRANCH  21  24
HETATM   24  C   UNL     1       6.774  24.993  53.990  1.00  0.00     0.314 C 
BRANCH  24  25
HETATM   25  N   UNL     1       6.497  25.655  55.357  1.00  0.00    -0.050 N 
HETATM   26  H   UNL     1       6.097  24.917  55.951  1.00  0.00     0.281 HD
HETATM   27  C   UNL     1       7.769  26.137  56.052  1.00  0.00     0.262 C 
HETATM   28  C   UNL     1       7.426  26.683  57.442  1.00  0.00     0.195 C 
HETATM   29  O   UNL     1       6.469  27.741  57.344  1.00  0.00    -0.388 OA
HETATM   30  C   UNL     1       5.236  27.294  56.771  1.00  0.00     0.195 C 
HETATM   31  C   UNL     1       5.453  26.778  55.342  1.00  0.00     0.262 C 
ENDBRANCH  24  25
BRANCH  24  32
HETATM   32  C   UNL     1       7.253  23.569  54.141  1.00  0.00    -0.001 A 
HETATM   33  C   UNL     1       7.251  22.916  55.371  1.00  0.00     0.126 A 
HETATM   34  N   UNL     1       7.686  21.655  55.552  1.00  0.00    -0.272 NA
HETATM   35  C   UNL     1       8.162  20.995  54.474  1.00  0.00     0.116 A 
HETATM   36  C   UNL     1       8.219  21.553  53.211  1.00  0.00     0.020 A 
HETATM   37  C   UNL     1       7.760  22.858  53.043  1.00  0.00     0.012 A 
ENDBRANCH  24  32
ENDBRANCH  21  24
ENDBRANCH   1  20
TORSDOF 7
ENDMDL
MODEL 3
REMARK VINA RESULT:      -9.0      3.833      9.059
REMARK  7 active torsions:
REMARK  status: ('A' for Active; 'I' for Inactive)
REMARK    1  A    between atoms: C_6  and  C_7 
REMARK    2  A    between atoms: N_13  and  C_15 
REMARK    3  A    between atoms: C_15  and  C_16 
REMARK    4  A    between atoms: C_16  and  N_17 
REMARK       I    between atoms: N_17  and  C_18 
REMARK    5  A    between atoms: C_18  and  C_19 
REMARK    6  A    between atoms: C_19  and  N_20 
REMARK    7  A    between atoms: C_19  and  C_27 
ROOT
HETATM    1  C   UNL     1       5.014  26.603  53.407  1.00  0.00     0.150 C 
ENDROOT
BRANCH   1   2
HETATM    2  C   UNL     1       6.107  27.326  54.226  1.00  0.00     0.255 C 
BRANCH   2   3
HETATM    3  N   UNL     1       5.677  27.667  55.642  1.00  0.00    -0.063 N 
HETATM    4  C   UNL     1       6.568  28.655  56.403  1.00  0.00     0.272 C 
HETATM    5  C   UNL     1       7.985  28.122  56.750  1.00  0.00     0.188 C 
HETATM    6  O   UNL     1       7.883  27.066  57.723  1.00  0.00    -0.339 OA
HETATM    7  C   UNL     1       7.766  25.841  57.131  1.00  0.00     0.077 A 
HETATM    8  C   UNL     1       6.569  25.461  56.516  1.00  0.00     0.001 A 
HETATM    9  C   UNL     1       8.845  24.966  57.215  1.00  0.00     0.037 A 
HETATM   10  C   UNL     1       6.481  24.181  55.950  1.00  0.00     0.012 A 
HETATM   11  C   UNL     1       5.409  26.410  56.470  1.00  0.00     0.276 C 
HETATM   12  C   UNL     1       7.570  23.308  56.009  1.00  0.00     0.001 A 
HETATM   13  C   UNL     1       8.749  23.700  56.643  1.00  0.00     0.003 A 
HETATM   14  H   UNL     1       4.754  28.118  55.582  1.00  0.00     0.280 HD
BRANCH   5  15
HETATM   15  C   UNL     1       8.826  29.252  57.302  1.00  0.00    -0.020 A 
HETATM   16  C   UNL     1       8.469  30.044  58.380  1.00  0.00     0.059 A 
HETATM   17  S   UNL     1       9.653  31.215  58.771  1.00  0.00    -0.113 SA
HETATM   18  C   UNL     1      10.657  30.706  57.487  1.00  0.00     0.050 A 
HETATM   19  C   UNL     1      10.105  29.658  56.786  1.00  0.00     0.017 A 
ENDBRANCH   5  15
ENDBRANCH   2   3
ENDBRANCH   1   2
BRANCH   1  20
HETATM   20  N   UNL     1       4.284  27.468  52.474  1.00  0.00    -0.357 N 
HETATM   21  C   UNL     1       4.675  27.596  51.149  1.00  0.00     0.253 C 
HETATM   22  O   UNL     1       5.735  27.113  50.758  1.00  0.00    -0.271 OA
HETATM   23  H   UNL     1       3.311  27.661  52.709  1.00  0.00     0.162 HD
BRANCH  21  24
HETATM   24  C   UNL     1       3.730  28.430  50.216  1.00  0.00     0.314 C 
BRANCH  24  25
HETATM   25  N   UNL     1       4.276  29.811  49.793  1.00  0.00    -0.050 N 
HETATM   26  H   UNL     1       4.672  29.681  48.853  1.00  0.00     0.281 HD
HETATM   27  C   UNL     1       3.182  30.870  49.666  1.00  0.00     0.262 C 
HETATM   28  C   UNL     1       3.784  32.178  49.141  1.00  0.00     0.195 C 
HETATM   29  O   UNL     1       4.830  32.631  50.004  1.00  0.00    -0.388 OA
HETATM   30  C   UNL     1       5.908  31.692  50.075  1.00  0.00     0.195 C 
HETATM   31  C   UNL     1       5.428  30.352  50.649  1.00  0.00     0.262 C 
ENDBRANCH  24  25
BRANCH  24  32
HETATM   32  C   UNL     1       3.219  27.641  49.035  1.00  0.00    -0.001 A 
HETATM   33  C   UNL     1       4.073  26.927  48.198  1.00  0.00     0.126 A 
HETATM   34  N   UNL     1       3.661  26.227  47.126  1.00  0.00    -0.272 NA
HETATM   35  C   UNL     1       2.340  26.232  46.844  1.00  0.00     0.116 A 
HETATM   36  C   UNL     1       1.408  26.916  47.602  1.00  0.00     0.020 A 
HETATM   37  C   UNL     1       1.854  27.632  48.711  1.00  0.00     0.012 A 
ENDBRANCH  24  32
ENDBRANCH  21  24
ENDBRANCH   1  20
TORSDOF 7
ENDMDL
MODEL 4
REMARK VINA RESULT:      -8.9      3.903      8.334
REMARK  7 active torsions:
REMARK  status: ('A' for Active; 'I' for Inactive)
REMARK    1  A    between atoms: C_6  and  C_7 
REMARK    2  A    between atoms: N_13  and  C_15 
REMARK    3  A    between atoms: C_15  and  C_16 
REMARK    4  A    between atoms: C_16  and  N_17 
REMARK       I    between atoms: N_17  and  C_18 
REMARK    5  A    between atoms: C_18  and  C_19 
REMARK    6  A    between atoms: C_19  and  N_20 
REMARK    7  A    between atoms: C_19  and  C_27 
ROOT
HETATM    1  C   UNL     1       6.188  25.867  51.569  1.00  0.00     0.150 C 
ENDROOT
BRANCH   1   2
HETATM    2  C   UNL     1       6.838  26.548  52.794  1.00  0.00     0.255 C 
BRANCH   2   3
HETATM    3  N   UNL     1       5.928  26.603  54.010  1.00  0.00    -0.063 N 
HETATM    4  C   UNL     1       6.363  27.541  55.141  1.00  0.00     0.272 C 
HETATM    5  C   UNL     1       7.658  27.112  55.883  1.00  0.00     0.188 C 
HETATM    6  O   UNL     1       7.415  25.905  56.629  1.00  0.00    -0.339 OA
HETATM    7  C   UNL     1       7.684  24.789  55.890  1.00  0.00     0.077 A 
HETATM    8  C   UNL     1       6.823  24.390  54.864  1.00  0.00     0.001 A 
HETATM    9  C   UNL     1       8.801  24.031  56.232  1.00  0.00     0.037 A 
HETATM   10  C   UNL     1       7.121  23.219  54.153  1.00  0.00     0.012 A 
HETATM   11  C   UNL     1       5.607  25.206  54.539  1.00  0.00     0.276 C 
HETATM   12  C   UNL     1       8.254  22.469  54.474  1.00  0.00     0.001 A 
HETATM   13  C   UNL     1       9.092  22.873  55.513  1.00  0.00     0.003 A 
HETATM   14  H   UNL     1       5.016  26.958  53.694  1.00  0.00     0.280 HD
BRANCH   5  15
HETATM   15  C   UNL     1       8.092  28.218  56.820  1.00  0.00    -0.020 A 
HETATM   16  C   UNL     1       7.309  28.740  57.836  1.00  0.00     0.059 A 
HETATM   17  S   UNL     1       8.104  29.960  58.732  1.00  0.00    -0.113 SA
HETATM   18  C   UNL     1       9.503  29.837  57.762  1.00  0.00     0.050 A 
HETATM   19  C   UNL     1       9.370  28.876  56.785  1.00  0.00     0.017 A 
ENDBRANCH   5  15
ENDBRANCH   2   3
ENDBRANCH   1   2
BRANCH   1  20
HETATM   20  N   UNL     1       5.778  26.793  50.508  1.00  0.00    -0.357 N 
HETATM   21  C   UNL     1       4.786  27.739  50.715  1.00  0.00     0.253 C 
HETATM   22  O   UNL     1       4.111  27.726  51.742  1.00  0.00    -0.271 OA
HETATM   23  H   UNL     1       6.467  26.971  49.777  1.00  0.00     0.162 HD
BRANCH  21  24
HETATM   24  C   UNL     1       4.541  28.766  49.555  1.00  0.00     0.314 C 
BRANCH  24  25
HETATM   25  N   UNL     1       3.208  28.594  48.795  1.00  0.00    -0.050 N 
HETATM   26  H   UNL     1       2.489  29.026  49.387  1.00  0.00     0.281 HD
HETATM   27  C   UNL     1       3.185  29.340  47.461  1.00  0.00     0.262 C 
HETATM   28  C   UNL     1       1.800  29.211  46.818  1.00  0.00     0.195 C 
HETATM   29  O   UNL     1       1.458  27.835  46.636  1.00  0.00    -0.388 OA
HETATM   30  C   UNL     1       1.390  27.132  47.881  1.00  0.00     0.195 C 
HETATM   31  C   UNL     1       2.752  27.144  48.589  1.00  0.00     0.262 C 
ENDBRANCH  24  25
BRANCH  24  32
HETATM   32  C   UNL     1       4.768  30.198  49.977  1.00  0.00    -0.001 A 
HETATM   33  C   UNL     1       3.859  30.884  50.779  1.00  0.00     0.126 A 
HETATM   34  N   UNL     1       4.015  32.165  51.162  1.00  0.00    -0.272 NA
HETATM   35  C   UNL     1       5.113  32.820  50.728  1.00  0.00     0.116 A 
HETATM   36  C   UNL     1       6.070  32.237  49.919  1.00  0.00     0.020 A 
HETATM   37  C   UNL     1       5.894  30.909  49.537  1.00  0.00     0.012 A 
ENDBRANCH  24  32
ENDBRANCH  21  24
ENDBRANCH   1  20
TORSDOF 7
ENDMDL
MODEL 5
REMARK VINA RESULT:      -8.8      2.398      5.016
REMARK  7 active torsions:
REMARK  status: ('A' for Active; 'I' for Inactive)
REMARK    1  A    between atoms: C_6  and  C_7 
REMARK    2  A    between atoms: N_13  and  C_15 
REMARK    3  A    between atoms: C_15  and  C_16 
REMARK    4  A    between atoms: C_16  and  N_17 
REMARK       I    between atoms: N_17  and  C_18 
REMARK    5  A    between atoms: C_18  and  C_19 
REMARK    6  A    between atoms: C_19  and  N_20 
REMARK    7  A    between atoms: C_19  and  C_27 
ROOT
HETATM    1  C   UNL     1       4.310  27.958  56.402  1.00  0.00     0.150 C 
ENDROOT
BRANCH   1   2
HETATM    2  C   UNL     1       5.390  26.998  55.854  1.00  0.00     0.255 C 
BRANCH   2   3
HETATM    3  N   UNL     1       6.379  27.671  54.917  1.00  0.00    -0.063 N 
HETATM    4  C   UNL     1       5.885  27.947  53.493  1.00  0.00     0.272 C 
HETATM    5  C   UNL     1       5.629  26.679  52.633  1.00  0.00     0.188 C 
HETATM    6  O   UNL     1       6.879  26.024  52.349  1.00  0.00    -0.339 OA
HETATM    7  C   UNL     1       7.193  25.095  53.300  1.00  0.00     0.077 A 
HETATM    8  C   UNL     1       7.631  25.494  54.566  1.00  0.00     0.001 A 
HETATM    9  C   UNL     1       7.125  23.750  52.949  1.00  0.00     0.037 A 
HETATM   10  C   UNL     1       7.974  24.507  55.501  1.00  0.00     0.012 A 
HETATM   11  C   UNL     1       7.727  26.951  54.907  1.00  0.00     0.276 C 
HETATM   12  C   UNL     1       7.883  23.155  55.163  1.00  0.00     0.001 A 
HETATM   13  C   UNL     1       7.461  22.777  53.888  1.00  0.00     0.003 A 
HETATM   14  H   UNL     1       6.600  28.593  55.315  1.00  0.00     0.280 HD
BRANCH   5  15
HETATM   15  C   UNL     1       4.949  27.075  51.341  1.00  0.00    -0.020 A 
HETATM   16  C   UNL     1       4.253  28.256  51.149  1.00  0.00     0.059 A 
HETATM   17  S   UNL     1       3.627  28.414  49.565  1.00  0.00    -0.113 SA
HETATM   18  C   UNL     1       4.250  26.891  49.110  1.00  0.00     0.050 A 
HETATM   19  C   UNL     1       4.932  26.284  50.141  1.00  0.00     0.017 A 
ENDBRANCH   5  15
ENDBRANCH   2   3
ENDBRANCH   1   2
BRANCH   1  20
HETATM   20  N   UNL     1       4.774  28.845  57.473  1.00  0.00    -0.357 N 
HETATM   21  C   UNL     1       5.240  30.123  57.205  1.00  0.00     0.253 C 
HETATM   22  O   UNL     1       5.425  30.494  56.048  1.00  0.00    -0.271 OA
HETATM   23  H   UNL     1       4.407  28.653  58.405  1.00  0.00     0.162 HD
BRANCH  21  24
HETATM   24  C   UNL     1       5.567  31.026  58.445  1.00  0.00     0.314 C 
BRANCH  24  25
HETATM   25  N   UNL     1       7.062  31.363  58.636  1.00  0.00    -0.050 N 
HETATM   26  H   UNL     1       7.276  32.095  57.947  1.00  0.00     0.281 HD
HETATM   27  C   UNL     1       7.366  31.953  60.013  1.00  0.00     0.262 C 
HETATM   28  C   UNL     1       8.841  32.359  60.089  1.00  0.00     0.195 C 
HETATM   29  O   UNL     1       9.685  31.237  59.820  1.00  0.00    -0.388 OA
HETATM   30  C   UNL     1       9.479  30.716  58.503  1.00  0.00     0.195 C 
HETATM   31  C   UNL     1       8.037  30.219  58.333  1.00  0.00     0.262 C 
ENDBRANCH  24  25
BRANCH  24  32
HETATM   32  C   UNL     1       4.698  32.258  58.524  1.00  0.00    -0.001 A 
HETATM   33  C   UNL     1       3.585  32.325  59.359  1.00  0.00     0.126 A 
HETATM   34  N   UNL     1       2.775  33.396  59.445  1.00  0.00    -0.272 NA
HETATM   35  C   UNL     1       3.056  34.460  58.663  1.00  0.00     0.116 A 
HETATM   36  C   UNL     1       4.129  34.494  57.791  1.00  0.00     0.020 A 
HETATM   37  C   UNL     1       4.959  33.377  57.719  1.00  0.00     0.012 A 
ENDBRANCH  24  32
ENDBRANCH  21  24
ENDBRANCH   1  20
TORSDOF 7
ENDMDL
MODEL 6
REMARK VINA RESULT:      -8.8      1.827      2.282
REMARK  7 active torsions:
REMARK  status: ('A' for Active; 'I' for Inactive)
REMARK    1  A    between atoms: C_6  and  C_7 
REMARK    2  A    between atoms: N_13  and  C_15 
REMARK    3  A    between atoms: C_15  and  C_16 
REMARK    4  A    between atoms: C_16  and  N_17 
REMARK       I    between atoms: N_17  and  C_18 
REMARK    5  A    between atoms: C_18  and  C_19 
REMARK    6  A    between atoms: C_19  and  N_20 
REMARK    7  A    between atoms: C_19  and  C_27 
ROOT
HETATM    1  C   UNL     1       8.057  28.524  55.988  1.00  0.00     0.150 C 
ENDROOT
BRANCH   1   2
HETATM    2  C   UNL     1       7.511  27.548  54.921  1.00  0.00     0.255 C 
BRANCH   2   3
HETATM    3  N   UNL     1       6.427  26.622  55.446  1.00  0.00    -0.063 N 
HETATM    4  C   UNL     1       6.741  25.123  55.417  1.00  0.00     0.272 C 
HETATM    5  C   UNL     1       6.856  24.507  53.996  1.00  0.00     0.188 C 
HETATM    6  O   UNL     1       5.565  24.511  53.359  1.00  0.00    -0.339 OA
HETATM    7  C   UNL     1       5.354  25.657  52.648  1.00  0.00     0.077 A 
HETATM    8  C   UNL     1       5.091  26.863  53.305  1.00  0.00     0.001 A 
HETATM    9  C   UNL     1       5.346  25.574  51.258  1.00  0.00     0.037 A 
HETATM   10  C   UNL     1       4.847  28.009  52.535  1.00  0.00     0.012 A 
HETATM   11  C   UNL     1       5.072  26.917  54.803  1.00  0.00     0.276 C 
HETATM   12  C   UNL     1       4.863  27.937  51.140  1.00  0.00     0.001 A 
HETATM   13  C   UNL     1       5.110  26.721  50.503  1.00  0.00     0.003 A 
HETATM   14  H   UNL     1       6.279  26.854  56.438  1.00  0.00     0.280 HD
BRANCH   5  15
HETATM   15  C   UNL     1       7.374  23.089  54.102  1.00  0.00    -0.020 A 
HETATM   16  C   UNL     1       7.558  22.406  55.292  1.00  0.00     0.059 A 
HETATM   17  S   UNL     1       8.131  20.811  55.066  1.00  0.00    -0.113 SA
HETATM   18  C   UNL     1       8.173  21.009  53.370  1.00  0.00     0.050 A 
HETATM   19  C   UNL     1       7.746  22.261  52.987  1.00  0.00     0.017 A 
ENDBRANCH   5  15
ENDBRANCH   2   3
ENDBRANCH   1   2
BRANCH   1  20
HETATM   20  N   UNL     1       7.325  29.791  56.082  1.00  0.00    -0.357 N 
HETATM   21  C   UNL     1       6.251  29.945  56.945  1.00  0.00     0.253 C 
HETATM   22  O   UNL     1       5.782  28.979  57.542  1.00  0.00    -0.271 OA
HETATM   23  H   UNL     1       7.835  30.626  55.795  1.00  0.00     0.162 HD
BRANCH  21  24
HETATM   24  C   UNL     1       5.646  31.387  57.063  1.00  0.00     0.314 C 
BRANCH  24  25
HETATM   25  N   UNL     1       4.541  31.723  56.038  1.00  0.00    -0.050 N 
HETATM   26  H   UNL     1       3.660  31.728  56.566  1.00  0.00     0.281 HD
HETATM   27  C   UNL     1       4.699  33.116  55.429  1.00  0.00     0.262 C 
HETATM   28  C   UNL     1       3.512  33.416  54.507  1.00  0.00     0.195 C 
HETATM   29  O   UNL     1       3.409  32.423  53.483  1.00  0.00    -0.388 OA
HETATM   30  C   UNL     1       3.177  31.119  54.024  1.00  0.00     0.195 C 
HETATM   31  C   UNL     1       4.343  30.687  54.924  1.00  0.00     0.262 C 
ENDBRANCH  24  25
BRANCH  24  32
HETATM   32  C   UNL     1       5.233  31.741  58.471  1.00  0.00    -0.001 A 
HETATM   33  C   UNL     1       3.907  31.672  58.891  1.00  0.00     0.126 A 
HETATM   34  N   UNL     1       3.494  31.996  60.131  1.00  0.00    -0.272 NA
HETATM   35  C   UNL     1       4.426  32.424  61.010  1.00  0.00     0.116 A 
HETATM   36  C   UNL     1       5.767  32.540  60.693  1.00  0.00     0.020 A 
HETATM   37  C   UNL     1       6.175  32.196  59.406  1.00  0.00     0.012 A 
ENDBRANCH  24  32
ENDBRANCH  21  24
ENDBRANCH   1  20
TORSDOF 7
ENDMDL
MODEL 7
REMARK VINA RESULT:      -8.7      5.088      8.724
REMARK  7 active torsions:
REMARK  status: ('A' for Active; 'I' for Inactive)
REMARK    1  A    between atoms: C_6  and  C_7 
REMARK    2  A    between atoms: N_13  and  C_15 
REMARK    3  A    between atoms: C_15  and  C_16 
REMARK    4  A    between atoms: C_16  and  N_17 
REMARK       I    between atoms: N_17  and  C_18 
REMARK    5  A    between atoms: C_18  and  C_19 
REMARK    6  A    between atoms: C_19  and  N_20 
REMARK    7  A    between atoms: C_19  and  C_27 
ROOT
HETATM    1  C   UNL     1       5.768  25.763  51.263  1.00  0.00     0.150 C 
ENDROOT
BRANCH   1   2
HETATM    2  C   UNL     1       4.949  27.042  51.553  1.00  0.00     0.255 C 
BRANCH   2   3
HETATM    3  N   UNL     1       5.449  28.264  50.801  1.00  0.00    -0.063 N 
HETATM    4  C   UNL     1       4.901  29.618  51.264  1.00  0.00     0.272 C 
HETATM    5  C   UNL     1       3.384  29.831  51.004  1.00  0.00     0.188 C 
HETATM    6  O   UNL     1       3.143  29.927  49.588  1.00  0.00    -0.339 OA
HETATM    7  C   UNL     1       2.881  28.707  49.034  1.00  0.00     0.077 A 
HETATM    8  C   UNL     1       3.908  27.776  48.849  1.00  0.00     0.001 A 
HETATM    9  C   UNL     1       1.583  28.447  48.604  1.00  0.00     0.037 A 
HETATM   10  C   UNL     1       3.600  26.548  48.246  1.00  0.00     0.012 A 
HETATM   11  C   UNL     1       5.305  28.095  49.289  1.00  0.00     0.276 C 
HETATM   12  C   UNL     1       2.294  26.271  47.837  1.00  0.00     0.001 A 
HETATM   13  C   UNL     1       1.287  27.220  48.014  1.00  0.00     0.003 A 
HETATM   14  H   UNL     1       6.467  28.316  50.943  1.00  0.00     0.280 HD
BRANCH   5  15
HETATM   15  C   UNL     1       2.929  31.100  51.691  1.00  0.00    -0.020 A 
HETATM   16  C   UNL     1       1.961  31.958  51.196  1.00  0.00     0.059 A 
HETATM   17  S   UNL     1       1.656  33.288  52.227  1.00  0.00    -0.113 SA
HETATM   18  C   UNL     1       2.833  32.760  53.345  1.00  0.00     0.050 A 
HETATM   19  C   UNL     1       3.435  31.587  52.945  1.00  0.00     0.017 A 
ENDBRANCH   5  15
ENDBRANCH   2   3
ENDBRANCH   1   2
BRANCH   1  20
HETATM   20  N   UNL     1       5.851  24.828  52.390  1.00  0.00    -0.357 N 
HETATM   21  C   UNL     1       7.061  24.535  53.000  1.00  0.00     0.253 C 
HETATM   22  O   UNL     1       8.120  24.927  52.515  1.00  0.00    -0.271 OA
HETATM   23  H   UNL     1       4.997  24.702  52.932  1.00  0.00     0.162 HD
BRANCH  21  24
HETATM   24  C   UNL     1       7.001  23.638  54.285  1.00  0.00     0.314 C 
BRANCH  24  25
HETATM   25  N   UNL     1       7.931  22.406  54.272  1.00  0.00    -0.050 N 
HETATM   26  H   UNL     1       8.889  22.777  54.301  1.00  0.00     0.281 HD
HETATM   27  C   UNL     1       7.764  21.522  55.507  1.00  0.00     0.262 C 
HETATM   28  C   UNL     1       8.790  20.385  55.473  1.00  0.00     0.195 C 
HETATM   29  O   UNL     1       8.648  19.616  54.277  1.00  0.00    -0.388 OA
HETATM   30  C   UNL     1       8.883  20.403  53.105  1.00  0.00     0.195 C 
HETATM   31  C   UNL     1       7.864  21.547  53.003  1.00  0.00     0.262 C 
ENDBRANCH  24  25
BRANCH  24  32
HETATM   32  C   UNL     1       7.134  24.430  55.564  1.00  0.00    -0.001 A 
HETATM   33  C   UNL     1       6.030  24.987  56.206  1.00  0.00     0.126 A 
HETATM   34  N   UNL     1       6.108  25.714  57.336  1.00  0.00    -0.272 NA
HETATM   35  C   UNL     1       7.332  25.921  57.865  1.00  0.00     0.116 A 
HETATM   36  C   UNL     1       8.493  25.424  57.303  1.00  0.00     0.020 A 
HETATM   37  C   UNL     1       8.392  24.670  56.136  1.00  0.00     0.012 A 
ENDBRANCH  24  32
ENDBRANCH  21  24
ENDBRANCH   1  20
TORSDOF 7
ENDMDL
MODEL 8
REMARK VINA RESULT:      -8.7      4.256      8.432
REMARK  7 active torsions:
REMARK  status: ('A' for Active; 'I' for Inactive)
REMARK    1  A    between atoms: C_6  and  C_7 
REMARK    2  A    between atoms: N_13  and  C_15 
REMARK    3  A    between atoms: C_15  and  C_16 
REMARK    4  A    between atoms: C_16  and  N_17 
REMARK       I    between atoms: N_17  and  C_18 
REMARK    5  A    between atoms: C_18  and  C_19 
REMARK    6  A    between atoms: C_19  and  N_20 
REMARK    7  A    between atoms: C_19  and  C_27 
ROOT
HETATM    1  C   UNL     1       4.227  27.620  53.215  1.00  0.00     0.150 C 
ENDROOT
BRANCH   1   2
HETATM    2  C   UNL     1       4.820  26.195  53.284  1.00  0.00     0.255 C 
BRANCH   2   3
HETATM    3  N   UNL     1       6.254  26.112  52.789  1.00  0.00    -0.063 N 
HETATM    4  C   UNL     1       6.894  24.720  52.792  1.00  0.00     0.272 C 
HETATM    5  C   UNL     1       7.136  24.115  54.202  1.00  0.00     0.188 C 
HETATM    6  O   UNL     1       8.156  24.868  54.886  1.00  0.00    -0.339 OA
HETATM    7  C   UNL     1       7.626  25.894  55.615  1.00  0.00     0.077 A 
HETATM    8  C   UNL     1       7.134  27.038  54.979  1.00  0.00     0.001 A 
HETATM    9  C   UNL     1       7.650  25.792  57.003  1.00  0.00     0.037 A 
HETATM   10  C   UNL     1       6.630  28.081  55.768  1.00  0.00     0.012 A 
HETATM   11  C   UNL     1       7.151  27.136  53.483  1.00  0.00     0.276 C 
HETATM   12  C   UNL     1       6.628  27.973  57.161  1.00  0.00     0.001 A 
HETATM   13  C   UNL     1       7.139  26.831  57.777  1.00  0.00     0.003 A 
HETATM   14  H   UNL     1       6.257  26.414  51.806  1.00  0.00     0.280 HD
BRANCH   5  15
HETATM   15  C   UNL     1       7.566  22.671  54.065  1.00  0.00    -0.020 A 
HETATM   16  C   UNL     1       7.868  22.052  52.864  1.00  0.00     0.059 A 
HETATM   17  S   UNL     1       8.348  20.422  53.054  1.00  0.00    -0.113 SA
HETATM   18  C   UNL     1       8.136  20.501  54.746  1.00  0.00     0.050 A 
HETATM   19  C   UNL     1       7.721  21.748  55.156  1.00  0.00     0.017 A 
ENDBRANCH   5  15
ENDBRANCH   2   3
ENDBRANCH   1   2
BRANCH   1  20
HETATM   20  N   UNL     1       3.670  27.983  51.907  1.00  0.00    -0.357 N 
HETATM   21  C   UNL     1       4.453  28.569  50.924  1.00  0.00     0.253 C 
HETATM   22  O   UNL     1       5.596  28.946  51.174  1.00  0.00    -0.271 OA
HETATM   23  H   UNL     1       2.837  27.472  51.617  1.00  0.00     0.162 HD
BRANCH  21  24
HETATM   24  C   UNL     1       3.782  28.773  49.521  1.00  0.00     0.314 C 
BRANCH  24  25
HETATM   25  N   UNL     1       3.195  27.496  48.882  1.00  0.00    -0.050 N 
HETATM   26  H   UNL     1       2.356  27.267  49.430  1.00  0.00     0.281 HD
HETATM   27  C   UNL     1       2.732  27.712  47.441  1.00  0.00     0.262 C 
HETATM   28  C   UNL     1       2.067  26.437  46.913  1.00  0.00     0.195 C 
HETATM   29  O   UNL     1       2.967  25.330  46.996  1.00  0.00    -0.388 OA
HETATM   30  C   UNL     1       3.351  25.053  48.347  1.00  0.00     0.195 C 
HETATM   31  C   UNL     1       4.088  26.251  48.961  1.00  0.00     0.262 C 
ENDBRANCH  24  25
BRANCH  24  32
HETATM   32  C   UNL     1       2.799  29.918  49.498  1.00  0.00    -0.001 A 
HETATM   33  C   UNL     1       3.143  31.178  49.016  1.00  0.00     0.126 A 
HETATM   34  N   UNL     1       2.302  32.229  48.994  1.00  0.00    -0.272 NA
HETATM   35  C   UNL     1       1.057  32.046  49.484  1.00  0.00     0.116 A 
HETATM   36  C   UNL     1       0.617  30.840  49.997  1.00  0.00     0.020 A 
HETATM   37  C   UNL     1       1.500  29.762  50.006  1.00  0.00     0.012 A 
ENDBRANCH  24  32
ENDBRANCH  21  24
ENDBRANCH   1  20
TORSDOF 7
ENDMDL
MODEL 9
REMARK VINA RESULT:      -8.7      4.415      8.258
REMARK  7 active torsions:
REMARK  status: ('A' for Active; 'I' for Inactive)
REMARK    1  A    between atoms: C_6  and  C_7 
REMARK    2  A    between atoms: N_13  and  C_15 
REMARK    3  A    between atoms: C_15  and  C_16 
REMARK    4  A    between atoms: C_16  and  N_17 
REMARK       I    between atoms: N_17  and  C_18 
REMARK    5  A    between atoms: C_18  and  C_19 
REMARK    6  A    between atoms: C_19  and  N_20 
REMARK    7  A    between atoms: C_19  and  C_27 
ROOT
HETATM    1  C   UNL     1       4.901  26.025  51.674  1.00  0.00     0.150 C 
ENDROOT
BRANCH   1   2
HETATM    2  C   UNL     1       5.017  26.175  50.140  1.00  0.00     0.255 C 
BRANCH   2   3
HETATM    3  N   UNL     1       5.489  27.550  49.700  1.00  0.00    -0.063 N 
HETATM    4  C   UNL     1       5.150  28.716  50.635  1.00  0.00     0.272 C 
HETATM    5  C   UNL     1       3.637  29.049  50.741  1.00  0.00     0.188 C 
HETATM    6  O   UNL     1       3.167  29.581  49.488  1.00  0.00    -0.339 OA
HETATM    7  C   UNL     1       2.707  28.597  48.660  1.00  0.00     0.077 A 
HETATM    8  C   UNL     1       3.600  27.733  48.018  1.00  0.00     0.001 A 
HETATM    9  C   UNL     1       1.337  28.524  48.427  1.00  0.00     0.037 A 
HETATM   10  C   UNL     1       3.086  26.759  47.151  1.00  0.00     0.012 A 
HETATM   11  C   UNL     1       5.074  27.856  48.260  1.00  0.00     0.276 C 
HETATM   12  C   UNL     1       1.710  26.665  46.933  1.00  0.00     0.001 A 
HETATM   13  C   UNL     1       0.837  27.547  47.568  1.00  0.00     0.003 A 
HETATM   14  H   UNL     1       6.516  27.523  49.655  1.00  0.00     0.280 HD
BRANCH   5  15
HETATM   15  C   UNL     1       3.419  30.062  51.844  1.00  0.00    -0.020 A 
HETATM   16  C   UNL     1       3.068  31.385  51.638  1.00  0.00     0.059 A 
HETATM   17  S   UNL     1       2.871  32.259  53.094  1.00  0.00    -0.113 SA
HETATM   18  C   UNL     1       3.280  30.893  54.032  1.00  0.00     0.050 A 
HETATM   19  C   UNL     1       3.547  29.792  53.250  1.00  0.00     0.017 A 
ENDBRANCH   5  15
ENDBRANCH   2   3
ENDBRANCH   1   2
BRANCH   1  20
HETATM   20  N   UNL     1       6.181  25.828  52.362  1.00  0.00    -0.357 N 
HETATM   21  C   UNL     1       6.250  25.209  53.601  1.00  0.00     0.253 C 
HETATM   22  O   UNL     1       5.227  24.949  54.230  1.00  0.00    -0.271 OA
HETATM   23  H   UNL     1       7.011  25.811  51.770  1.00  0.00     0.162 HD
BRANCH  21  24
HETATM   24  C   UNL     1       7.685  24.924  54.165  1.00  0.00     0.314 C 
BRANCH  24  25
HETATM   25  N   UNL     1       7.992  25.564  55.537  1.00  0.00    -0.050 N 
HETATM   26  H   UNL     1       8.994  25.407  55.702  1.00  0.00     0.281 HD
HETATM   27  C   UNL     1       7.776  27.077  55.548  1.00  0.00     0.262 C 
HETATM   28  C   UNL     1       8.201  27.652  56.903  1.00  0.00     0.195 C 
HETATM   29  O   UNL     1       7.473  27.028  57.963  1.00  0.00    -0.388 OA
HETATM   30  C   UNL     1       7.723  25.620  58.027  1.00  0.00     0.195 C 
HETATM   31  C   UNL     1       7.275  24.927  56.733  1.00  0.00     0.262 C 
ENDBRANCH  24  25
BRANCH  24  32
HETATM   32  C   UNL     1       8.052  23.460  54.133  1.00  0.00    -0.001 A 
HETATM   33  C   UNL     1       8.925  22.897  55.060  1.00  0.00     0.126 A 
HETATM   34  N   UNL     1       9.292  21.602  55.055  1.00  0.00    -0.272 NA
HETATM   35  C   UNL     1       8.789  20.812  54.082  1.00  0.00     0.116 A 
HETATM   36  C   UNL     1       7.925  21.272  53.106  1.00  0.00     0.020 A 
HETATM   37  C   UNL     1       7.553  22.614  53.131  1.00  0.00     0.012 A 
ENDBRANCH  24  32
ENDBRANCH  21  24
ENDBRANCH   1  20
TORSDOF 7
ENDMDL
MODEL 10
REMARK VINA RESULT:      -8.5      3.382      8.735
REMARK  7 active torsions:
REMARK  status: ('A' for Active; 'I' for Inactive)
REMARK    1  A    between atoms: C_6  and  C_7 
REMARK    2  A    between atoms: N_13  and  C_15 
REMARK    3  A    between atoms: C_15  and  C_16 
REMARK    4  A    between atoms: C_16  and  N_17 
REMARK       I    between atoms: N_17  and  C_18 
REMARK    5  A    between atoms: C_18  and  C_19 
REMARK    6  A    between atoms: C_19  and  N_20 
REMARK    7  A    between atoms: C_19  and  C_27 
ROOT
HETATM    1  C   UNL     1       4.682  31.164  55.263  1.00  0.00     0.150 C 
ENDROOT
BRANCH   1   2
HETATM    2  C   UNL     1       5.829  31.251  56.296  1.00  0.00     0.255 C 
BRANCH   2   3
HETATM    3  N   UNL     1       5.651  30.313  57.478  1.00  0.00    -0.063 N 
HETATM    4  C   UNL     1       5.646  30.963  58.866  1.00  0.00     0.272 C 
HETATM    5  C   UNL     1       7.003  31.579  59.303  1.00  0.00     0.188 C 
HETATM    6  O   UNL     1       7.967  30.531  59.515  1.00  0.00    -0.339 OA
HETATM    7  C   UNL     1       8.668  30.250  58.377  1.00  0.00     0.077 A 
HETATM    8  C   UNL     1       8.066  29.555  57.324  1.00  0.00     0.001 A 
HETATM    9  C   UNL     1      10.010  30.618  58.326  1.00  0.00     0.037 A 
HETATM   10  C   UNL     1       8.832  29.258  56.188  1.00  0.00     0.012 A 
HETATM   11  C   UNL     1       6.628  29.139  57.419  1.00  0.00     0.276 C 
HETATM   12  C   UNL     1      10.172  29.648  56.121  1.00  0.00     0.001 A 
HETATM   13  C   UNL     1      10.760  30.326  57.189  1.00  0.00     0.003 A 
HETATM   14  H   UNL     1       4.730  29.866  57.379  1.00  0.00     0.280 HD
BRANCH   5  15
HETATM   15  C   UNL     1       6.810  32.366  60.581  1.00  0.00    -0.020 A 
HETATM   16  C   UNL     1       5.734  33.200  60.835  1.00  0.00     0.059 A 
HETATM   17  S   UNL     1       5.800  33.923  62.384  1.00  0.00    -0.113 SA
HETATM   18  C   UNL     1       7.285  33.158  62.736  1.00  0.00     0.050 A 
HETATM   19  C   UNL     1       7.712  32.359  61.699  1.00  0.00     0.017 A 
ENDBRANCH   5  15
ENDBRANCH   2   3
ENDBRANCH   1   2
BRANCH   1  20
HETATM   20  N   UNL     1       4.816  30.067  54.299  1.00  0.00    -0.357 N 
HETATM   21  C   UNL     1       4.246  28.824  54.532  1.00  0.00     0.253 C 
HETATM   22  O   UNL     1       3.748  28.556  55.622  1.00  0.00    -0.271 OA
HETATM   23  H   UNL     1       4.999  30.338  53.334  1.00  0.00     0.162 HD
BRANCH  21  24
HETATM   24  C   UNL     1       4.333  27.782  53.363  1.00  0.00     0.314 C 
BRANCH  24  25
HETATM   25  N   UNL     1       4.444  28.390  51.948  1.00  0.00    -0.050 N 
HETATM   26  H   UNL     1       5.074  29.197  52.037  1.00  0.00     0.281 HD
HETATM   27  C   UNL     1       5.090  27.438  50.941  1.00  0.00     0.262 C 
HETATM   28  C   UNL     1       5.263  28.147  49.594  1.00  0.00     0.195 C 
HETATM   29  O   UNL     1       4.003  28.618  49.110  1.00  0.00    -0.388 OA
HETATM   30  C   UNL     1       3.414  29.576  49.995  1.00  0.00     0.195 C 
HETATM   31  C   UNL     1       3.139  28.951  51.370  1.00  0.00     0.262 C 
ENDBRANCH  24  25
BRANCH  24  32
HETATM   32  C   UNL     1       5.373  26.714  53.600  1.00  0.00    -0.001 A 
HETATM   33  C   UNL     1       5.088  25.359  53.449  1.00  0.00     0.126 A 
HETATM   34  N   UNL     1       5.980  24.375  53.668  1.00  0.00    -0.272 NA
HETATM   35  C   UNL     1       7.219  24.731  54.070  1.00  0.00     0.116 A 
HETATM   36  C   UNL     1       7.604  26.045  54.261  1.00  0.00     0.020 A 
HETATM   37  C   UNL     1       6.667  27.049  54.025  1.00  0.00     0.012 A 
ENDBRANCH  24  32
ENDBRANCH  21  24
ENDBRANCH   1  20
TORSDOF 7
ENDMDL
