MODEL 1
REMARK VINA RESULT:     -11.2      0.000      0.000
REMARK  8 active torsions:
REMARK  status: ('A' for Active; 'I' for Inactive)
REMARK    1  A    between atoms: C_2  and  N_3 
REMARK    2  A    between atoms: N_3  and  N_4 
REMARK       I    between atoms: N_4  and  C_5 
REMARK    3  A    between atoms: C_5  and  C_6 
REMARK    4  A    between atoms: C_6  and  O_7 
REMARK    5  A    between atoms: O_7  and  C_8 
REMARK    6  A    between atoms: C_19  and  C_20 
REMARK       I    between atoms: C_20  and  N_21 
REMARK    7  A    between atoms: N_21  and  C_22 
REMARK    8  A    between atoms: C_25  and  C_26 
REMARK       I    between atoms: C_26  and  N_27 
ROOT
HETATM    1  C   UNL     1       6.376  30.411  57.822  1.00  0.00     0.070 C 
HETATM    2  C   UNL     1       7.661  29.720  58.231  1.00  0.00     0.027 C 
HETATM    3  C   UNL     1       8.453  30.196  59.214  1.00  0.00     0.100 C 
ENDROOT
BRANCH   2   4
HETATM    4  N   UNL     1       7.943  28.569  57.498  1.00  0.00    -0.302 N 
HETATM    5  H   UNL     1       8.220  27.779  58.096  1.00  0.00     0.186 HD
BRANCH   4   6
HETATM    6  N   UNL     1       8.613  28.588  56.271  1.00  0.00    -0.268 N 
HETATM    7  C   UNL     1       7.967  28.281  55.089  1.00  0.00     0.260 C 
HETATM    8  O   UNL     1       8.450  28.646  54.016  1.00  0.00    -0.269 OA
HETATM    9  H   UNL     1       9.382  29.250  56.201  1.00  0.00     0.190 HD
BRANCH   7  10
HETATM   10  C   UNL     1       6.723  27.396  55.162  1.00  0.00     0.280 C 
BRANCH  10  11
HETATM   11  O   UNL     1       6.989  26.184  55.862  1.00  0.00    -0.342 OA
BRANCH  11  12
HETATM   12  C   UNL     1       7.248  25.102  55.062  1.00  0.00     0.070 A 
HETATM   13  C   UNL     1       7.389  23.881  55.725  1.00  0.00     0.049 A 
HETATM   14  C   UNL     1       7.661  22.698  55.017  1.00  0.00    -0.023 A 
HETATM   15  C   UNL     1       7.812  22.753  53.612  1.00  0.00    -0.026 A 
HETATM   16  C   UNL     1       7.786  21.461  55.669  1.00  0.00     0.012 A 
HETATM   17  C   UNL     1       7.699  23.990  52.961  1.00  0.00     0.015 A 
HETATM   18  C   UNL     1       8.076  21.573  52.899  1.00  0.00     0.012 A 
HETATM   19  C   UNL     1       7.426  25.157  53.681  1.00  0.00     0.037 A 
HETATM   20  C   UNL     1       8.192  20.351  53.563  1.00  0.00     0.001 A 
HETATM   21  C   UNL     1       8.048  20.295  54.946  1.00  0.00     0.001 A 
ENDBRANCH  11  12
ENDBRANCH  10  11
ENDBRANCH   7  10
ENDBRANCH   4   6
ENDBRANCH   2   4
BRANCH   3  22
HETATM   22  C   UNL     1       8.066  31.320  60.112  1.00  0.00     0.247 C 
HETATM   23  N   UNL     1       7.573  30.872  61.319  1.00  0.00    -0.324 N 
HETATM   24  H   UNL     1       7.539  29.871  61.465  1.00  0.00     0.169 HD
HETATM   25  O   UNL     1       8.159  32.483  59.739  1.00  0.00    -0.268 OA
BRANCH  23  26
HETATM   26  C   UNL     1       7.118  31.667  62.394  1.00  0.00     0.035 A 
HETATM   27  C   UNL     1       5.770  31.865  62.703  1.00  0.00     0.030 A 
HETATM   28  C   UNL     1       5.391  32.681  63.778  1.00  0.00     0.019 A 
HETATM   29  C   UNL     1       6.363  33.315  64.555  1.00  0.00     0.032 A 
HETATM   30  C   UNL     1       7.715  33.105  64.264  1.00  0.00     0.019 A 
HETATM   31  C   UNL     1       8.088  32.291  63.188  1.00  0.00     0.030 A 
BRANCH  29  32
HETATM   32  C   UNL     1       6.013  34.198  65.699  1.00  0.00     0.249 C 
HETATM   33  N   UNL     1       6.788  34.118  66.821  1.00  0.00    -0.366 N 
HETATM   34  H   UNL     1       7.444  33.368  66.986  1.00  0.00     0.159 HD
HETATM   35  H   UNL     1       6.474  34.651  67.622  1.00  0.00     0.159 HD
HETATM   36  O   UNL     1       5.043  34.945  65.659  1.00  0.00    -0.268 OA
ENDBRANCH  29  32
ENDBRANCH  23  26
ENDBRANCH   3  22
TORSDOF 8
ENDMDL
MODEL 2
REMARK VINA RESULT:     -11.0      0.653      1.653
REMARK  8 active torsions:
REMARK  status: ('A' for Active; 'I' for Inactive)
REMARK    1  A    between atoms: C_2  and  N_3 
REMARK    2  A    between atoms: N_3  and  N_4 
REMARK       I    between atoms: N_4  and  C_5 
REMARK    3  A    between atoms: C_5  and  C_6 
REMARK    4  A    between atoms: C_6  and  O_7 
REMARK    5  A    between atoms: O_7  and  C_8 
REMARK    6  A    between atoms: C_19  and  C_20 
REMARK       I    between atoms: C_20  and  N_21 
REMARK    7  A    between atoms: N_21  and  C_22 
REMARK    8  A    between atoms: C_25  and  C_26 
REMARK       I    between atoms: C_26  and  N_27 
ROOT
HETATM    1  C   UNL     1       6.282  30.900  57.769  1.00  0.00     0.070 C 
HETATM    2  C   UNL     1       7.496  30.031  58.026  1.00  0.00     0.027 C 
HETATM    3  C   UNL     1       8.410  30.332  58.972  1.00  0.00     0.100 C 
ENDROOT
BRANCH   2   4
HETATM    4  N   UNL     1       7.578  28.914  57.197  1.00  0.00    -0.302 N 
HETATM    5  H   UNL     1       7.753  28.047  57.722  1.00  0.00     0.186 HD
BRANCH   4   6
HETATM    6  N   UNL     1       8.203  28.934  55.947  1.00  0.00    -0.268 N 
HETATM    7  C   UNL     1       7.794  28.104  54.921  1.00  0.00     0.260 C 
HETATM    8  O   UNL     1       8.093  28.378  53.758  1.00  0.00    -0.269 OA
HETATM    9  H   UNL     1       8.599  29.828  55.668  1.00  0.00     0.190 HD
BRANCH   7  10
HETATM   10  C   UNL     1       7.071  26.810  55.292  1.00  0.00     0.280 C 
BRANCH  10  11
HETATM   11  O   UNL     1       7.738  26.127  56.350  1.00  0.00    -0.342 OA
BRANCH  11  12
HETATM   12  C   UNL     1       7.938  24.789  56.135  1.00  0.00     0.070 A 
HETATM   13  C   UNL     1       7.745  24.354  54.822  1.00  0.00     0.049 A 
HETATM   14  C   UNL     1       7.913  23.002  54.474  1.00  0.00    -0.023 A 
HETATM   15  C   UNL     1       8.267  22.070  55.476  1.00  0.00    -0.026 A 
HETATM   16  C   UNL     1       7.741  22.554  53.154  1.00  0.00     0.012 A 
HETATM   17  C   UNL     1       8.428  22.514  56.796  1.00  0.00     0.015 A 
HETATM   18  C   UNL     1       8.445  20.720  55.131  1.00  0.00     0.012 A 
HETATM   19  C   UNL     1       8.258  23.862  57.125  1.00  0.00     0.037 A 
HETATM   20  C   UNL     1       8.275  20.293  53.814  1.00  0.00     0.001 A 
HETATM   21  C   UNL     1       7.922  21.209  52.827  1.00  0.00     0.001 A 
ENDBRANCH  11  12
ENDBRANCH  10  11
ENDBRANCH   7  10
ENDBRANCH   4   6
ENDBRANCH   2   4
BRANCH   3  22
HETATM   22  C   UNL     1       8.232  31.423  59.972  1.00  0.00     0.247 C 
HETATM   23  N   UNL     1       7.571  30.987  61.101  1.00  0.00    -0.324 N 
HETATM   24  H   UNL     1       7.300  30.013  61.134  1.00  0.00     0.169 HD
HETATM   25  O   UNL     1       8.612  32.561  59.734  1.00  0.00    -0.268 OA
BRANCH  23  26
HETATM   26  C   UNL     1       7.241  31.757  62.238  1.00  0.00     0.035 A 
HETATM   27  C   UNL     1       8.185  32.367  63.068  1.00  0.00     0.030 A 
HETATM   28  C   UNL     1       7.786  33.106  64.190  1.00  0.00     0.019 A 
HETATM   29  C   UNL     1       6.430  33.238  64.497  1.00  0.00     0.032 A 
HETATM   30  C   UNL     1       5.478  32.648  63.658  1.00  0.00     0.019 A 
HETATM   31  C   UNL     1       5.883  31.908  62.541  1.00  0.00     0.030 A 
BRANCH  29  32
HETATM   32  C   UNL     1       5.954  34.003  65.681  1.00  0.00     0.249 C 
HETATM   33  N   UNL     1       6.753  34.014  66.790  1.00  0.00    -0.366 N 
HETATM   34  H   UNL     1       7.530  33.382  66.916  1.00  0.00     0.159 HD
HETATM   35  H   UNL     1       6.367  34.454  67.615  1.00  0.00     0.159 HD
HETATM   36  O   UNL     1       4.870  34.572  65.683  1.00  0.00    -0.268 OA
ENDBRANCH  29  32
ENDBRANCH  23  26
ENDBRANCH   3  22
TORSDOF 8
ENDMDL
MODEL 3
REMARK VINA RESULT:     -10.3      6.196     11.400
REMARK  8 active torsions:
REMARK  status: ('A' for Active; 'I' for Inactive)
REMARK    1  A    between atoms: C_2  and  N_3 
REMARK    2  A    between atoms: N_3  and  N_4 
REMARK       I    between atoms: N_4  and  C_5 
REMARK    3  A    between atoms: C_5  and  C_6 
REMARK    4  A    between atoms: C_6  and  O_7 
REMARK    5  A    between atoms: O_7  and  C_8 
REMARK    6  A    between atoms: C_19  and  C_20 
REMARK       I    between atoms: C_20  and  N_21 
REMARK    7  A    between atoms: N_21  and  C_22 
REMARK    8  A    between atoms: C_25  and  C_26 
REMARK       I    between atoms: C_26  and  N_27 
ROOT
HETATM    1  C   UNL     1       4.585  29.746  52.071  1.00  0.00     0.070 C 
HETATM    2  C   UNL     1       5.612  28.639  51.944  1.00  0.00     0.027 C 
HETATM    3  C   UNL     1       5.651  27.813  50.878  1.00  0.00     0.100 C 
ENDROOT
BRANCH   2   4
HETATM    4  N   UNL     1       6.490  28.556  53.022  1.00  0.00    -0.302 N 
HETATM    5  H   UNL     1       7.037  27.685  53.017  1.00  0.00     0.186 HD
BRANCH   4   6
HETATM    6  N   UNL     1       6.164  28.990  54.310  1.00  0.00    -0.268 N 
HETATM    7  C   UNL     1       6.752  28.436  55.430  1.00  0.00     0.260 C 
HETATM    8  O   UNL     1       6.736  29.052  56.497  1.00  0.00    -0.269 OA
HETATM    9  H   UNL     1       5.886  29.965  54.387  1.00  0.00     0.190 HD
BRANCH   7  10
HETATM   10  C   UNL     1       7.308  27.017  55.320  1.00  0.00     0.280 C 
BRANCH  10  11
HETATM   11  O   UNL     1       6.362  26.134  54.722  1.00  0.00    -0.342 OA
BRANCH  11  12
HETATM   12  C   UNL     1       6.885  24.951  54.270  1.00  0.00     0.070 A 
HETATM   13  C   UNL     1       7.015  23.945  55.230  1.00  0.00     0.049 A 
HETATM   14  C   UNL     1       7.543  22.686  54.894  1.00  0.00    -0.023 A 
HETATM   15  C   UNL     1       7.965  22.446  53.567  1.00  0.00    -0.026 A 
HETATM   16  C   UNL     1       7.661  21.659  55.845  1.00  0.00     0.012 A 
HETATM   17  C   UNL     1       7.858  23.475  52.620  1.00  0.00     0.015 A 
HETATM   18  C   UNL     1       8.486  21.188  53.224  1.00  0.00     0.012 A 
HETATM   19  C   UNL     1       7.329  24.720  52.970  1.00  0.00     0.037 A 
HETATM   20  C   UNL     1       8.591  20.177  54.180  1.00  0.00     0.001 A 
HETATM   21  C   UNL     1       8.181  20.413  55.489  1.00  0.00     0.001 A 
ENDBRANCH  11  12
ENDBRANCH  10  11
ENDBRANCH   7  10
ENDBRANCH   4   6
ENDBRANCH   2   4
BRANCH   3  22
HETATM   22  C   UNL     1       4.830  28.011  49.651  1.00  0.00     0.247 C 
HETATM   23  N   UNL     1       3.631  27.333  49.714  1.00  0.00    -0.324 N 
HETATM   24  H   UNL     1       3.439  26.806  50.556  1.00  0.00     0.169 HD
HETATM   25  O   UNL     1       5.253  28.675  48.713  1.00  0.00    -0.268 OA
BRANCH  23  26
HETATM   26  C   UNL     1       2.621  27.307  48.727  1.00  0.00     0.035 A 
HETATM   27  C   UNL     1       2.551  26.354  47.707  1.00  0.00     0.030 A 
HETATM   28  C   UNL     1       1.528  26.398  46.750  1.00  0.00     0.019 A 
HETATM   29  C   UNL     1       0.562  27.405  46.802  1.00  0.00     0.032 A 
HETATM   30  C   UNL     1       0.613  28.350  47.833  1.00  0.00     0.019 A 
HETATM   31  C   UNL     1       1.639  28.303  48.784  1.00  0.00     0.030 A 
BRANCH  29  32
HETATM   32  C   UNL     1      -0.538  27.502  45.806  1.00  0.00     0.249 C 
HETATM   33  N   UNL     1      -1.662  28.191  46.168  1.00  0.00    -0.366 N 
HETATM   34  H   UNL     1      -1.862  28.457  47.121  1.00  0.00     0.159 HD
HETATM   35  H   UNL     1      -2.436  28.159  45.518  1.00  0.00     0.159 HD
HETATM   36  O   UNL     1      -0.464  26.954  44.713  1.00  0.00    -0.268 OA
ENDBRANCH  29  32
ENDBRANCH  23  26
ENDBRANCH   3  22
TORSDOF 8
ENDMDL
MODEL 4
REMARK VINA RESULT:     -10.2      3.000     11.812
REMARK  8 active torsions:
REMARK  status: ('A' for Active; 'I' for Inactive)
REMARK    1  A    between atoms: C_2  and  N_3 
REMARK    2  A    between atoms: N_3  and  N_4 
REMARK       I    between atoms: N_4  and  C_5 
REMARK    3  A    between atoms: C_5  and  C_6 
REMARK    4  A    between atoms: C_6  and  O_7 
REMARK    5  A    between atoms: O_7  and  C_8 
REMARK    6  A    between atoms: C_19  and  C_20 
REMARK       I    between atoms: C_20  and  N_21 
REMARK    7  A    between atoms: N_21  and  C_22 
REMARK    8  A    between atoms: C_25  and  C_26 
REMARK       I    between atoms: C_26  and  N_27 
ROOT
HETATM    1  C   UNL     1       7.349  28.176  57.468  1.00  0.00     0.070 C 
HETATM    2  C   UNL     1       5.932  28.365  56.967  1.00  0.00     0.027 C 
HETATM    3  C   UNL     1       5.236  27.367  56.383  1.00  0.00     0.100 C 
ENDROOT
BRANCH   2   4
HETATM    4  N   UNL     1       5.431  29.651  57.159  1.00  0.00    -0.302 N 
HETATM    5  H   UNL     1       6.150  30.376  57.037  1.00  0.00     0.186 HD
BRANCH   4   6
HETATM    6  N   UNL     1       4.497  29.967  58.149  1.00  0.00    -0.268 N 
HETATM    7  C   UNL     1       4.214  31.278  58.483  1.00  0.00     0.260 C 
HETATM    8  O   UNL     1       3.164  31.546  59.071  1.00  0.00    -0.269 OA
HETATM    9  H   UNL     1       3.736  29.303  58.264  1.00  0.00     0.190 HD
BRANCH   7  10
HETATM   10  C   UNL     1       5.280  32.335  58.202  1.00  0.00     0.280 C 
BRANCH  10  11
HETATM   11  O   UNL     1       6.586  31.845  58.492  1.00  0.00    -0.342 OA
BRANCH  11  12
HETATM   12  C   UNL     1       6.977  31.988  59.798  1.00  0.00     0.070 A 
HETATM   13  C   UNL     1       6.330  32.997  60.513  1.00  0.00     0.049 A 
HETATM   14  C   UNL     1       6.646  33.248  61.860  1.00  0.00    -0.023 A 
HETATM   15  C   UNL     1       7.648  32.475  62.490  1.00  0.00    -0.026 A 
HETATM   16  C   UNL     1       5.989  34.247  62.597  1.00  0.00     0.012 A 
HETATM   17  C   UNL     1       8.312  31.486  61.752  1.00  0.00     0.015 A 
HETATM   18  C   UNL     1       7.962  32.716  63.837  1.00  0.00     0.012 A 
HETATM   19  C   UNL     1       7.985  31.248  60.413  1.00  0.00     0.037 A 
HETATM   20  C   UNL     1       7.295  33.709  64.556  1.00  0.00     0.001 A 
HETATM   21  C   UNL     1       6.311  34.475  63.937  1.00  0.00     0.001 A 
ENDBRANCH  11  12
ENDBRANCH  10  11
ENDBRANCH   7  10
ENDBRANCH   4   6
ENDBRANCH   2   4
BRANCH   3  22
HETATM   22  C   UNL     1       5.703  25.954  56.337  1.00  0.00     0.247 C 
HETATM   23  N   UNL     1       6.284  25.638  55.126  1.00  0.00    -0.324 N 
HETATM   24  H   UNL     1       6.339  26.373  54.433  1.00  0.00     0.169 HD
HETATM   25  O   UNL     1       5.519  25.200  57.284  1.00  0.00    -0.268 OA
BRANCH  23  26
HETATM   26  C   UNL     1       6.831  24.392  54.750  1.00  0.00     0.035 A 
HETATM   27  C   UNL     1       7.056  24.007  53.426  1.00  0.00     0.030 A 
HETATM   28  C   UNL     1       7.588  22.746  53.124  1.00  0.00     0.019 A 
HETATM   29  C   UNL     1       7.897  21.851  54.150  1.00  0.00     0.032 A 
HETATM   30  C   UNL     1       7.694  22.238  55.479  1.00  0.00     0.019 A 
HETATM   31  C   UNL     1       7.159  23.497  55.775  1.00  0.00     0.030 A 
BRANCH  29  32
HETATM   32  C   UNL     1       8.455  20.498  53.883  1.00  0.00     0.249 C 
HETATM   33  N   UNL     1       9.010  19.824  54.934  1.00  0.00    -0.366 N 
HETATM   34  H   UNL     1       9.238  20.263  55.813  1.00  0.00     0.159 HD
HETATM   35  H   UNL     1       9.473  18.951  54.712  1.00  0.00     0.159 HD
HETATM   36  O   UNL     1       8.456  20.016  52.758  1.00  0.00    -0.268 OA
ENDBRANCH  29  32
ENDBRANCH  23  26
ENDBRANCH   3  22
TORSDOF 8
ENDMDL
MODEL 5
REMARK VINA RESULT:     -10.0      2.495     12.202
REMARK  8 active torsions:
REMARK  status: ('A' for Active; 'I' for Inactive)
REMARK    1  A    between atoms: C_2  and  N_3 
REMARK    2  A    between atoms: N_3  and  N_4 
REMARK       I    between atoms: N_4  and  C_5 
REMARK    3  A    between atoms: C_5  and  C_6 
REMARK    4  A    between atoms: C_6  and  O_7 
REMARK    5  A    between atoms: O_7  and  C_8 
REMARK    6  A    between atoms: C_19  and  C_20 
REMARK       I    between atoms: C_20  and  N_21 
REMARK    7  A    between atoms: N_21  and  C_22 
REMARK    8  A    between atoms: C_25  and  C_26 
REMARK       I    between atoms: C_26  and  N_27 
ROOT
HETATM    1  C   UNL     1       9.275  28.641  57.083  1.00  0.00     0.070 C 
HETATM    2  C   UNL     1       7.818  28.672  57.500  1.00  0.00     0.027 C 
HETATM    3  C   UNL     1       6.884  27.900  56.908  1.00  0.00     0.100 C 
ENDROOT
BRANCH   2   4
HETATM    4  N   UNL     1       7.544  29.568  58.531  1.00  0.00    -0.302 N 
HETATM    5  H   UNL     1       7.566  29.121  59.457  1.00  0.00     0.186 HD
BRANCH   4   6
HETATM    6  N   UNL     1       6.580  30.576  58.432  1.00  0.00    -0.268 N 
HETATM    7  C   UNL     1       6.810  31.846  58.924  1.00  0.00     0.260 C 
HETATM    8  O   UNL     1       6.129  32.790  58.520  1.00  0.00    -0.269 OA
HETATM    9  H   UNL     1       5.959  30.513  57.629  1.00  0.00     0.190 HD
BRANCH   7  10
HETATM   10  C   UNL     1       7.838  32.006  60.043  1.00  0.00     0.280 C 
BRANCH  10  11
HETATM   11  O   UNL     1       7.482  31.237  61.189  1.00  0.00    -0.342 OA
BRANCH  11  12
HETATM   12  C   UNL     1       7.164  31.974  62.300  1.00  0.00     0.070 A 
HETATM   13  C   UNL     1       5.841  32.414  62.372  1.00  0.00     0.049 A 
HETATM   14  C   UNL     1       5.391  33.184  63.459  1.00  0.00    -0.023 A 
HETATM   15  C   UNL     1       6.301  33.530  64.484  1.00  0.00    -0.026 A 
HETATM   16  C   UNL     1       4.058  33.616  63.555  1.00  0.00     0.012 A 
HETATM   17  C   UNL     1       7.635  33.108  64.384  1.00  0.00     0.015 A 
HETATM   18  C   UNL     1       5.855  34.292  65.576  1.00  0.00     0.012 A 
HETATM   19  C   UNL     1       8.065  32.342  63.296  1.00  0.00     0.037 A 
HETATM   20  C   UNL     1       4.526  34.709  65.657  1.00  0.00     0.001 A 
HETATM   21  C   UNL     1       3.629  34.373  64.647  1.00  0.00     0.001 A 
ENDBRANCH  11  12
ENDBRANCH  10  11
ENDBRANCH   7  10
ENDBRANCH   4   6
ENDBRANCH   2   4
BRANCH   3  22
HETATM   22  C   UNL     1       7.204  26.820  55.933  1.00  0.00     0.247 C 
HETATM   23  N   UNL     1       7.268  25.581  56.535  1.00  0.00    -0.324 N 
HETATM   24  H   UNL     1       7.087  25.538  57.529  1.00  0.00     0.169 HD
HETATM   25  O   UNL     1       7.419  27.079  54.756  1.00  0.00    -0.268 OA
BRANCH  23  26
HETATM   26  C   UNL     1       7.548  24.348  55.905  1.00  0.00     0.035 A 
HETATM   27  C   UNL     1       7.277  24.080  54.560  1.00  0.00     0.030 A 
HETATM   28  C   UNL     1       7.567  22.827  54.004  1.00  0.00     0.019 A 
HETATM   29  C   UNL     1       8.129  21.821  54.794  1.00  0.00     0.032 A 
HETATM   30  C   UNL     1       8.421  22.089  56.136  1.00  0.00     0.019 A 
HETATM   31  C   UNL     1       8.127  23.342  56.687  1.00  0.00     0.030 A 
BRANCH  29  32
HETATM   32  C   UNL     1       8.446  20.472  54.255  1.00  0.00     0.249 C 
HETATM   33  N   UNL     1       9.121  19.607  55.071  1.00  0.00    -0.366 N 
HETATM   34  H   UNL     1       9.581  19.896  55.921  1.00  0.00     0.159 HD
HETATM   35  H   UNL     1       9.415  18.734  54.652  1.00  0.00     0.159 HD
HETATM   36  O   UNL     1       8.151  20.153  53.110  1.00  0.00    -0.268 OA
ENDBRANCH  29  32
ENDBRANCH  23  26
ENDBRANCH   3  22
TORSDOF 8
ENDMDL
MODEL 6
REMARK VINA RESULT:      -9.6      3.355     11.321
REMARK  8 active torsions:
REMARK  status: ('A' for Active; 'I' for Inactive)
REMARK    1  A    between atoms: C_2  and  N_3 
REMARK    2  A    between atoms: N_3  and  N_4 
REMARK       I    between atoms: N_4  and  C_5 
REMARK    3  A    between atoms: C_5  and  C_6 
REMARK    4  A    between atoms: C_6  and  O_7 
REMARK    5  A    between atoms: O_7  and  C_8 
REMARK    6  A    between atoms: C_19  and  C_20 
REMARK       I    between atoms: C_20  and  N_21 
REMARK    7  A    between atoms: N_21  and  C_22 
REMARK    8  A    between atoms: C_25  and  C_26 
REMARK       I    between atoms: C_26  and  N_27 
ROOT
HETATM    1  C   UNL     1       6.914  28.292  57.178  1.00  0.00     0.070 C 
HETATM    2  C   UNL     1       6.425  28.814  55.842  1.00  0.00     0.027 C 
HETATM    3  C   UNL     1       6.194  27.999  54.791  1.00  0.00     0.100 C 
ENDROOT
BRANCH   2   4
HETATM    4  N   UNL     1       6.248  30.196  55.805  1.00  0.00    -0.302 N 
HETATM    5  H   UNL     1       6.434  30.640  56.714  1.00  0.00     0.186 HD
BRANCH   4   6
HETATM    6  N   UNL     1       5.218  30.816  55.092  1.00  0.00    -0.268 N 
HETATM    7  C   UNL     1       4.826  32.111  55.370  1.00  0.00     0.260 C 
HETATM    8  O   UNL     1       4.197  32.753  54.526  1.00  0.00    -0.269 OA
HETATM    9  H   UNL     1       5.106  30.512  54.129  1.00  0.00     0.190 HD
BRANCH   7  10
HETATM   10  C   UNL     1       5.100  32.659  56.770  1.00  0.00     0.280 C 
BRANCH  10  11
HETATM   11  O   UNL     1       4.617  31.773  57.776  1.00  0.00    -0.342 OA
BRANCH  11  12
HETATM   12  C   UNL     1       5.125  31.994  59.029  1.00  0.00     0.070 A 
HETATM   13  C   UNL     1       6.494  31.759  59.174  1.00  0.00     0.049 A 
HETATM   14  C   UNL     1       7.135  31.944  60.412  1.00  0.00    -0.023 A 
HETATM   15  C   UNL     1       6.373  32.358  61.529  1.00  0.00    -0.026 A 
HETATM   16  C   UNL     1       8.514  31.731  60.567  1.00  0.00     0.012 A 
HETATM   17  C   UNL     1       4.994  32.560  61.378  1.00  0.00     0.015 A 
HETATM   18  C   UNL     1       7.010  32.552  62.765  1.00  0.00     0.012 A 
HETATM   19  C   UNL     1       4.373  32.373  60.139  1.00  0.00     0.037 A 
HETATM   20  C   UNL     1       8.382  32.340  62.900  1.00  0.00     0.001 A 
HETATM   21  C   UNL     1       9.133  31.928  61.803  1.00  0.00     0.001 A 
ENDBRANCH  11  12
ENDBRANCH  10  11
ENDBRANCH   7  10
ENDBRANCH   4   6
ENDBRANCH   2   4
BRANCH   3  22
HETATM   22  C   UNL     1       6.213  26.513  54.882  1.00  0.00     0.247 C 
HETATM   23  N   UNL     1       7.323  25.970  54.268  1.00  0.00    -0.324 N 
HETATM   24  H   UNL     1       7.984  26.613  53.851  1.00  0.00     0.169 HD
HETATM   25  O   UNL     1       5.293  25.904  55.413  1.00  0.00    -0.268 OA
BRANCH  23  26
HETATM   26  C   UNL     1       7.651  24.600  54.172  1.00  0.00     0.035 A 
HETATM   27  C   UNL     1       7.490  23.839  53.010  1.00  0.00     0.030 A 
HETATM   28  C   UNL     1       7.822  22.478  52.991  1.00  0.00     0.019 A 
HETATM   29  C   UNL     1       8.316  21.859  54.141  1.00  0.00     0.032 A 
HETATM   30  C   UNL     1       8.499  22.619  55.301  1.00  0.00     0.019 A 
HETATM   31  C   UNL     1       8.163  23.978  55.316  1.00  0.00     0.030 A 
BRANCH  29  32
HETATM   32  C   UNL     1       8.674  20.416  54.175  1.00  0.00     0.249 C 
HETATM   33  N   UNL     1       8.957  19.863  55.392  1.00  0.00    -0.366 N 
HETATM   34  H   UNL     1       9.129  20.412  56.221  1.00  0.00     0.159 HD
HETATM   35  H   UNL     1       9.296  18.909  55.383  1.00  0.00     0.159 HD
HETATM   36  O   UNL     1       8.753  19.751  53.150  1.00  0.00    -0.268 OA
ENDBRANCH  29  32
ENDBRANCH  23  26
ENDBRANCH   3  22
TORSDOF 8
ENDMDL
MODEL 7
REMARK VINA RESULT:      -9.4      2.563      3.199
REMARK  8 active torsions:
REMARK  status: ('A' for Active; 'I' for Inactive)
REMARK    1  A    between atoms: C_2  and  N_3 
REMARK    2  A    between atoms: N_3  and  N_4 
REMARK       I    between atoms: N_4  and  C_5 
REMARK    3  A    between atoms: C_5  and  C_6 
REMARK    4  A    between atoms: C_6  and  O_7 
REMARK    5  A    between atoms: O_7  and  C_8 
REMARK    6  A    between atoms: C_19  and  C_20 
REMARK       I    between atoms: C_20  and  N_21 
REMARK    7  A    between atoms: N_21  and  C_22 
REMARK    8  A    between atoms: C_25  and  C_26 
REMARK       I    between atoms: C_26  and  N_27 
ROOT
HETATM    1  C   UNL     1       6.459  30.149  57.754  1.00  0.00     0.070 C 
HETATM    2  C   UNL     1       5.111  29.689  57.237  1.00  0.00     0.027 C 
HETATM    3  C   UNL     1       3.964  30.330  57.545  1.00  0.00     0.100 C 
ENDROOT
BRANCH   2   4
HETATM    4  N   UNL     1       5.172  28.553  56.433  1.00  0.00    -0.302 N 
HETATM    5  H   UNL     1       5.192  28.781  55.430  1.00  0.00     0.186 HD
BRANCH   4   6
HETATM    6  N   UNL     1       4.466  27.379  56.714  1.00  0.00    -0.268 N 
HETATM    7  C   UNL     1       5.118  26.192  56.989  1.00  0.00     0.260 C 
HETATM    8  O   UNL     1       4.520  25.288  57.575  1.00  0.00    -0.269 OA
HETATM    9  H   UNL     1       3.562  27.506  57.161  1.00  0.00     0.190 HD
BRANCH   7  10
HETATM   10  C   UNL     1       6.536  26.012  56.449  1.00  0.00     0.280 C 
BRANCH  10  11
HETATM   11  O   UNL     1       6.550  25.984  55.025  1.00  0.00    -0.342 OA
BRANCH  11  12
HETATM   12  C   UNL     1       7.009  24.815  54.476  1.00  0.00     0.070 A 
HETATM   13  C   UNL     1       7.214  23.767  55.377  1.00  0.00     0.049 A 
HETATM   14  C   UNL     1       7.688  22.518  54.939  1.00  0.00    -0.023 A 
HETATM   15  C   UNL     1       7.978  22.331  53.569  1.00  0.00    -0.026 A 
HETATM   16  C   UNL     1       7.880  21.450  55.830  1.00  0.00     0.012 A 
HETATM   17  C   UNL     1       7.797  23.400  52.680  1.00  0.00     0.015 A 
HETATM   18  C   UNL     1       8.444  21.082  53.125  1.00  0.00     0.012 A 
HETATM   19  C   UNL     1       7.324  24.636  53.131  1.00  0.00     0.037 A 
HETATM   20  C   UNL     1       8.624  20.030  54.024  1.00  0.00     0.001 A 
HETATM   21  C   UNL     1       8.343  20.214  55.375  1.00  0.00     0.001 A 
ENDBRANCH  11  12
ENDBRANCH  10  11
ENDBRANCH   7  10
ENDBRANCH   4   6
ENDBRANCH   2   4
BRANCH   3  22
HETATM   22  C   UNL     1       3.917  31.639  58.254  1.00  0.00     0.247 C 
HETATM   23  N   UNL     1       3.659  31.490  59.601  1.00  0.00    -0.324 N 
HETATM   24  H   UNL     1       3.546  30.547  59.950  1.00  0.00     0.169 HD
HETATM   25  O   UNL     1       4.054  32.691  57.643  1.00  0.00    -0.268 OA
BRANCH  23  26
HETATM   26  C   UNL     1       3.549  32.520  60.561  1.00  0.00     0.035 A 
HETATM   27  C   UNL     1       2.524  33.469  60.573  1.00  0.00     0.030 A 
HETATM   28  C   UNL     1       2.486  34.475  61.548  1.00  0.00     0.019 A 
HETATM   29  C   UNL     1       3.484  34.545  62.523  1.00  0.00     0.032 A 
HETATM   30  C   UNL     1       4.502  33.585  62.529  1.00  0.00     0.019 A 
HETATM   31  C   UNL     1       4.537  32.585  61.551  1.00  0.00     0.030 A 
BRANCH  29  32
HETATM   32  C   UNL     1       3.495  35.597  63.573  1.00  0.00     0.249 C 
HETATM   33  N   UNL     1       3.237  35.212  64.859  1.00  0.00    -0.366 N 
HETATM   34  H   UNL     1       2.851  34.310  65.098  1.00  0.00     0.159 HD
HETATM   35  H   UNL     1       3.150  35.955  65.540  1.00  0.00     0.159 HD
HETATM   36  O   UNL     1       3.688  36.775  63.299  1.00  0.00    -0.268 OA
ENDBRANCH  29  32
ENDBRANCH  23  26
ENDBRANCH   3  22
TORSDOF 8
ENDMDL
MODEL 8
REMARK VINA RESULT:      -9.2      1.590      2.357
REMARK  8 active torsions:
REMARK  status: ('A' for Active; 'I' for Inactive)
REMARK    1  A    between atoms: C_2  and  N_3 
REMARK    2  A    between atoms: N_3  and  N_4 
REMARK       I    between atoms: N_4  and  C_5 
REMARK    3  A    between atoms: C_5  and  C_6 
REMARK    4  A    between atoms: C_6  and  O_7 
REMARK    5  A    between atoms: O_7  and  C_8 
REMARK    6  A    between atoms: C_19  and  C_20 
REMARK       I    between atoms: C_20  and  N_21 
REMARK    7  A    between atoms: N_21  and  C_22 
REMARK    8  A    between atoms: C_25  and  C_26 
REMARK       I    between atoms: C_26  and  N_27 
ROOT
HETATM    1  C   UNL     1       7.625  30.201  58.036  1.00  0.00     0.070 C 
HETATM    2  C   UNL     1       6.252  30.314  57.403  1.00  0.00     0.027 C 
HETATM    3  C   UNL     1       5.301  31.138  57.891  1.00  0.00     0.100 C 
ENDROOT
BRANCH   2   4
HETATM    4  N   UNL     1       6.071  29.491  56.294  1.00  0.00    -0.302 N 
HETATM    5  H   UNL     1       6.027  30.022  55.414  1.00  0.00     0.186 HD
BRANCH   4   6
HETATM    6  N   UNL     1       5.236  28.371  56.301  1.00  0.00    -0.268 N 
HETATM    7  C   UNL     1       5.720  27.110  56.590  1.00  0.00     0.260 C 
HETATM    8  O   UNL     1       4.941  26.223  56.944  1.00  0.00    -0.269 OA
HETATM    9  H   UNL     1       4.267  28.547  56.556  1.00  0.00     0.190 HD
BRANCH   7  10
HETATM   10  C   UNL     1       7.205  26.840  56.350  1.00  0.00     0.280 C 
BRANCH  10  11
HETATM   11  O   UNL     1       7.413  26.142  55.125  1.00  0.00    -0.342 OA
BRANCH  11  12
HETATM   12  C   UNL     1       7.801  24.836  55.266  1.00  0.00     0.070 A 
HETATM   13  C   UNL     1       7.658  24.038  54.129  1.00  0.00     0.049 A 
HETATM   14  C   UNL     1       8.015  22.679  54.147  1.00  0.00    -0.023 A 
HETATM   15  C   UNL     1       8.510  22.110  55.343  1.00  0.00    -0.026 A 
HETATM   16  C   UNL     1       7.895  21.870  53.005  1.00  0.00     0.012 A 
HETATM   17  C   UNL     1       8.620  22.914  56.487  1.00  0.00     0.015 A 
HETATM   18  C   UNL     1       8.876  20.755  55.364  1.00  0.00     0.012 A 
HETATM   19  C   UNL     1       8.261  24.265  56.451  1.00  0.00     0.037 A 
HETATM   20  C   UNL     1       8.755  19.967  54.219  1.00  0.00     0.001 A 
HETATM   21  C   UNL     1       8.264  20.524  53.041  1.00  0.00     0.001 A 
ENDBRANCH  11  12
ENDBRANCH  10  11
ENDBRANCH   7  10
ENDBRANCH   4   6
ENDBRANCH   2   4
BRANCH   3  22
HETATM   22  C   UNL     1       5.551  32.142  58.962  1.00  0.00     0.247 C 
HETATM   23  N   UNL     1       5.258  31.646  60.215  1.00  0.00    -0.324 N 
HETATM   24  H   UNL     1       4.931  30.690  60.272  1.00  0.00     0.169 HD
HETATM   25  O   UNL     1       5.927  33.274  58.688  1.00  0.00    -0.268 OA
BRANCH  23  26
HETATM   26  C   UNL     1       5.382  32.329  61.445  1.00  0.00     0.035 A 
HETATM   27  C   UNL     1       4.362  33.092  62.020  1.00  0.00     0.030 A 
HETATM   28  C   UNL     1       4.560  33.756  63.238  1.00  0.00     0.019 A 
HETATM   29  C   UNL     1       5.790  33.668  63.894  1.00  0.00     0.032 A 
HETATM   30  C   UNL     1       6.809  32.889  63.335  1.00  0.00     0.019 A 
HETATM   31  C   UNL     1       6.606  32.229  62.116  1.00  0.00     0.030 A 
BRANCH  29  32
HETATM   32  C   UNL     1       6.054  34.361  65.183  1.00  0.00     0.249 C 
HETATM   33  N   UNL     1       5.739  35.688  65.264  1.00  0.00    -0.366 N 
HETATM   34  H   UNL     1       5.531  36.256  64.456  1.00  0.00     0.159 HD
HETATM   35  H   UNL     1       6.019  36.164  66.112  1.00  0.00     0.159 HD
HETATM   36  O   UNL     1       6.571  33.780  66.129  1.00  0.00    -0.268 OA
ENDBRANCH  29  32
ENDBRANCH  23  26
ENDBRANCH   3  22
TORSDOF 8
ENDMDL
MODEL 9
REMARK VINA RESULT:      -9.1      5.635     10.395
REMARK  8 active torsions:
REMARK  status: ('A' for Active; 'I' for Inactive)
REMARK    1  A    between atoms: C_2  and  N_3 
REMARK    2  A    between atoms: N_3  and  N_4 
REMARK       I    between atoms: N_4  and  C_5 
REMARK    3  A    between atoms: C_5  and  C_6 
REMARK    4  A    between atoms: C_6  and  O_7 
REMARK    5  A    between atoms: O_7  and  C_8 
REMARK    6  A    between atoms: C_19  and  C_20 
REMARK       I    between atoms: C_20  and  N_21 
REMARK    7  A    between atoms: N_21  and  C_22 
REMARK    8  A    between atoms: C_25  and  C_26 
REMARK       I    between atoms: C_26  and  N_27 
ROOT
HETATM    1  C   UNL     1       3.932  29.558  54.368  1.00  0.00     0.070 C 
HETATM    2  C   UNL     1       4.285  28.090  54.234  1.00  0.00     0.027 C 
HETATM    3  C   UNL     1       4.389  27.481  53.034  1.00  0.00     0.100 C 
ENDROOT
BRANCH   2   4
HETATM    4  N   UNL     1       4.480  27.442  55.452  1.00  0.00    -0.302 N 
HETATM    5  H   UNL     1       3.751  26.742  55.646  1.00  0.00     0.186 HD
BRANCH   4   6
HETATM    6  N   UNL     1       4.932  28.095  56.602  1.00  0.00    -0.268 N 
HETATM    7  C   UNL     1       6.276  28.151  56.920  1.00  0.00     0.260 C 
HETATM    8  O   UNL     1       6.682  29.011  57.704  1.00  0.00    -0.269 OA
HETATM    9  H   UNL     1       4.366  28.880  56.913  1.00  0.00     0.190 HD
BRANCH   7  10
HETATM   10  C   UNL     1       7.190  27.063  56.360  1.00  0.00     0.280 C 
BRANCH  10  11
HETATM   11  O   UNL     1       6.644  25.765  56.575  1.00  0.00    -0.342 OA
BRANCH  11  12
HETATM   12  C   UNL     1       6.963  24.840  55.615  1.00  0.00     0.070 A 
HETATM   13  C   UNL     1       7.271  23.563  56.088  1.00  0.00     0.049 A 
HETATM   14  C   UNL     1       7.620  22.528  55.203  1.00  0.00    -0.023 A 
HETATM   15  C   UNL     1       7.676  22.793  53.816  1.00  0.00    -0.026 A 
HETATM   16  C   UNL     1       7.913  21.233  55.663  1.00  0.00     0.012 A 
HETATM   17  C   UNL     1       7.395  24.088  53.357  1.00  0.00     0.015 A 
HETATM   18  C   UNL     1       8.016  21.760  52.928  1.00  0.00     0.012 A 
HETATM   19  C   UNL     1       7.048  25.106  54.250  1.00  0.00     0.037 A 
HETATM   20  C   UNL     1       8.299  20.479  53.402  1.00  0.00     0.001 A 
HETATM   21  C   UNL     1       8.249  20.216  54.768  1.00  0.00     0.001 A 
ENDBRANCH  11  12
ENDBRANCH  10  11
ENDBRANCH   7  10
ENDBRANCH   4   6
ENDBRANCH   2   4
BRANCH   3  22
HETATM   22  C   UNL     1       4.356  28.210  51.735  1.00  0.00     0.247 C 
HETATM   23  N   UNL     1       3.087  28.246  51.195  1.00  0.00    -0.324 N 
HETATM   24  H   UNL     1       2.345  27.804  51.721  1.00  0.00     0.169 HD
HETATM   25  O   UNL     1       5.381  28.658  51.240  1.00  0.00    -0.268 OA
BRANCH  23  26
HETATM   26  C   UNL     1       2.704  28.854  49.979  1.00  0.00     0.035 A 
HETATM   27  C   UNL     1       2.480  30.225  49.829  1.00  0.00     0.030 A 
HETATM   28  C   UNL     1       2.085  30.758  48.595  1.00  0.00     0.019 A 
HETATM   29  C   UNL     1       1.904  29.919  47.493  1.00  0.00     0.032 A 
HETATM   30  C   UNL     1       2.147  28.548  47.631  1.00  0.00     0.019 A 
HETATM   31  C   UNL     1       2.538  28.020  48.867  1.00  0.00     0.030 A 
BRANCH  29  32
HETATM   32  C   UNL     1       1.477  30.434  46.164  1.00  0.00     0.249 C 
HETATM   33  N   UNL     1       0.474  29.766  45.519  1.00  0.00    -0.366 N 
HETATM   34  H   UNL     1       0.155  28.850  45.796  1.00  0.00     0.159 HD
HETATM   35  H   UNL     1       0.268  30.070  44.576  1.00  0.00     0.159 HD
HETATM   36  O   UNL     1       2.026  31.396  45.643  1.00  0.00    -0.268 OA
ENDBRANCH  29  32
ENDBRANCH  23  26
ENDBRANCH   3  22
TORSDOF 8
ENDMDL
MODEL 10
REMARK VINA RESULT:      -9.1      6.198     11.281
REMARK  8 active torsions:
REMARK  status: ('A' for Active; 'I' for Inactive)
REMARK    1  A    between atoms: C_2  and  N_3 
REMARK    2  A    between atoms: N_3  and  N_4 
REMARK       I    between atoms: N_4  and  C_5 
REMARK    3  A    between atoms: C_5  and  C_6 
REMARK    4  A    between atoms: C_6  and  O_7 
REMARK    5  A    between atoms: O_7  and  C_8 
REMARK    6  A    between atoms: C_19  and  C_20 
REMARK       I    between atoms: C_20  and  N_21 
REMARK    7  A    between atoms: N_21  and  C_22 
REMARK    8  A    between atoms: C_25  and  C_26 
REMARK       I    between atoms: C_26  and  N_27 
ROOT
HETATM    1  C   UNL     1       3.498  29.250  52.916  1.00  0.00     0.070 C 
HETATM    2  C   UNL     1       4.790  28.482  52.720  1.00  0.00     0.027 C 
HETATM    3  C   UNL     1       5.186  28.036  51.510  1.00  0.00     0.100 C 
ENDROOT
BRANCH   2   4
HETATM    4  N   UNL     1       5.511  28.280  53.895  1.00  0.00    -0.302 N 
HETATM    5  H   UNL     1       4.909  28.265  54.729  1.00  0.00     0.186 HD
BRANCH   4   6
HETATM    6  N   UNL     1       6.761  28.858  54.134  1.00  0.00    -0.268 N 
HETATM    7  C   UNL     1       7.524  28.504  55.231  1.00  0.00     0.260 C 
HETATM    8  O   UNL     1       8.734  28.735  55.233  1.00  0.00    -0.269 OA
HETATM    9  H   UNL     1       7.277  29.148  53.307  1.00  0.00     0.190 HD
BRANCH   7  10
HETATM   10  C   UNL     1       6.802  27.935  56.451  1.00  0.00     0.280 C 
BRANCH  10  11
HETATM   11  O   UNL     1       6.127  26.720  56.134  1.00  0.00    -0.342 OA
BRANCH  11  12
HETATM   12  C   UNL     1       6.948  25.638  55.950  1.00  0.00     0.070 A 
HETATM   13  C   UNL     1       6.700  24.882  54.802  1.00  0.00     0.049 A 
HETATM   14  C   UNL     1       7.469  23.744  54.504  1.00  0.00    -0.023 A 
HETATM   15  C   UNL     1       8.497  23.352  55.392  1.00  0.00    -0.026 A 
HETATM   16  C   UNL     1       7.244  22.987  53.342  1.00  0.00     0.012 A 
HETATM   17  C   UNL     1       8.715  24.101  56.557  1.00  0.00     0.015 A 
HETATM   18  C   UNL     1       9.273  22.221  55.094  1.00  0.00     0.012 A 
HETATM   19  C   UNL     1       7.941  25.231  56.838  1.00  0.00     0.037 A 
HETATM   20  C   UNL     1       9.039  21.483  53.933  1.00  0.00     0.001 A 
HETATM   21  C   UNL     1       8.025  21.864  53.059  1.00  0.00     0.001 A 
ENDBRANCH  11  12
ENDBRANCH  10  11
ENDBRANCH   7  10
ENDBRANCH   4   6
ENDBRANCH   2   4
BRANCH   3  22
HETATM   22  C   UNL     1       4.509  28.403  50.235  1.00  0.00     0.247 C 
HETATM   23  N   UNL     1       3.354  27.675  50.034  1.00  0.00    -0.324 N 
HETATM   24  H   UNL     1       3.096  27.008  50.749  1.00  0.00     0.169 HD
HETATM   25  O   UNL     1       5.000  29.229  49.477  1.00  0.00    -0.268 OA
BRANCH  23  26
HETATM   26  C   UNL     1       2.475  27.772  48.933  1.00  0.00     0.035 A 
HETATM   27  C   UNL     1       2.312  26.769  47.974  1.00  0.00     0.030 A 
HETATM   28  C   UNL     1       1.431  26.940  46.897  1.00  0.00     0.019 A 
HETATM   29  C   UNL     1       0.704  28.125  46.767  1.00  0.00     0.032 A 
HETATM   30  C   UNL     1       0.846  29.125  47.735  1.00  0.00     0.019 A 
HETATM   31  C   UNL     1       1.730  28.950  48.807  1.00  0.00     0.030 A 
BRANCH  29  32
HETATM   32  C   UNL     1      -0.236  28.359  45.638  1.00  0.00     0.249 C 
HETATM   33  N   UNL     1      -0.413  27.345  44.740  1.00  0.00    -0.366 N 
HETATM   34  H   UNL     1       0.196  26.542  44.688  1.00  0.00     0.159 HD
HETATM   35  H   UNL     1      -0.976  27.559  43.927  1.00  0.00     0.159 HD
HETATM   36  O   UNL     1      -0.806  29.433  45.491  1.00  0.00    -0.268 OA
ENDBRANCH  29  32
ENDBRANCH  23  26
ENDBRANCH   3  22
TORSDOF 8
ENDMDL
