MODEL 1
REMARK VINA RESULT:      -8.0      0.000      0.000
REMARK  5 active torsions:
REMARK  status: ('A' for Active; 'I' for Inactive)
REMARK    1  A    between atoms: C_8  and  O_9 
REMARK    2  A    between atoms: O_9  and  C_10 
REMARK    3  A    between atoms: C_17  and  C_18 
REMARK       I    between atoms: C_18  and  N_19 
REMARK    4  A    between atoms: N_19  and  C_20 
REMARK    5  A    between atoms: C_20  and  C_21 
ROOT
HETATM    1  C   UNL     1       4.461  29.546  54.273  1.00  0.00     0.051 C 
HETATM    2  C   UNL     1       5.079  28.491  53.391  1.00  0.00    -0.018 A 
HETATM    3  C   UNL     1       4.503  28.138  52.154  1.00  0.00     0.065 A 
HETATM    4 CL   UNL     1       3.039  28.889  51.608  1.00  0.00    -0.082 Cl
HETATM    5  C   UNL     1       5.119  27.158  51.363  1.00  0.00     0.056 A 
HETATM    6  C   UNL     1       4.568  26.745  50.027  1.00  0.00     0.072 C 
HETATM    7  N   UNL     1       6.245  26.509  51.750  1.00  0.00    -0.227 NA
HETATM    8  C   UNL     1       6.760  26.809  52.965  1.00  0.00     0.186 A 
HETATM    9  C   UNL     1       6.235  27.790  53.804  1.00  0.00     0.092 A 
ENDROOT
BRANCH   8  10
HETATM   10  O   UNL     1       7.908  26.136  53.364  1.00  0.00    -0.291 OA
BRANCH  10  11
HETATM   11  C   UNL     1       7.761  24.806  53.677  1.00  0.00     0.078 A 
HETATM   12  C   UNL     1       8.056  23.868  52.686  1.00  0.00     0.040 A 
HETATM   13  C   UNL     1       7.970  22.506  52.979  1.00  0.00     0.045 A 
HETATM   14  C   UNL     1       7.607  22.102  54.259  1.00  0.00     0.116 A 
HETATM   15  F   UNL     1       7.528  20.794  54.539  1.00  0.00    -0.206 F 
HETATM   16  C   UNL     1       7.335  23.033  55.258  1.00  0.00     0.045 A 
HETATM   17  C   UNL     1       7.420  24.395  54.970  1.00  0.00     0.040 A 
ENDBRANCH  10  11
ENDBRANCH   8  10
BRANCH   9  18
HETATM   18  C   UNL     1       6.837  28.027  55.139  1.00  0.00     0.256 C 
HETATM   19  N   UNL     1       7.936  28.857  55.181  1.00  0.00    -0.353 N 
HETATM   20  H   UNL     1       8.419  29.064  54.315  1.00  0.00     0.163 HD
HETATM   21  O   UNL     1       6.347  27.497  56.130  1.00  0.00    -0.267 OA
BRANCH  19  22
HETATM   22  C   UNL     1       8.676  29.015  56.407  1.00  0.00     0.149 C 
BRANCH  22  23
HETATM   23  C   UNL     1      10.032  29.607  56.157  1.00  0.00    -0.018 C 
HETATM   24  C   UNL     1      10.938  30.017  57.056  1.00  0.00     0.008 C 
ENDBRANCH  22  23
ENDBRANCH  19  22
ENDBRANCH   9  18
TORSDOF 5
ENDMDL
MODEL 2
REMARK VINA RESULT:      -7.8      1.818      2.334
REMARK  5 active torsions:
REMARK  status: ('A' for Active; 'I' for Inactive)
REMARK    1  A    between atoms: C_8  and  O_9 
REMARK    2  A    between atoms: O_9  and  C_10 
REMARK    3  A    between atoms: C_17  and  C_18 
REMARK       I    between atoms: C_18  and  N_19 
REMARK    4  A    between atoms: N_19  and  C_20 
REMARK    5  A    between atoms: C_20  and  C_21 
ROOT
HETATM    1  C   UNL     1       6.053  30.215  57.294  1.00  0.00     0.051 C 
HETATM    2  C   UNL     1       5.936  29.464  55.992  1.00  0.00    -0.018 A 
HETATM    3  C   UNL     1       4.740  29.467  55.247  1.00  0.00     0.065 A 
HETATM    4 CL   UNL     1       3.340  30.318  55.815  1.00  0.00    -0.082 Cl
HETATM    5  C   UNL     1       4.681  28.762  54.037  1.00  0.00     0.056 A 
HETATM    6  C   UNL     1       3.444  28.737  53.184  1.00  0.00     0.072 C 
HETATM    7  N   UNL     1       5.729  28.048  53.556  1.00  0.00    -0.227 NA
HETATM    8  C   UNL     1       6.856  27.999  54.305  1.00  0.00     0.186 A 
HETATM    9  C   UNL     1       7.016  28.693  55.503  1.00  0.00     0.092 A 
ENDROOT
BRANCH   8  10
HETATM   10  O   UNL     1       7.925  27.260  53.815  1.00  0.00    -0.291 OA
BRANCH  10  11
HETATM   11  C   UNL     1       7.730  25.905  53.699  1.00  0.00     0.078 A 
HETATM   12  C   UNL     1       7.945  25.322  52.448  1.00  0.00     0.040 A 
HETATM   13  C   UNL     1       7.808  23.941  52.299  1.00  0.00     0.045 A 
HETATM   14  C   UNL     1       7.477  23.162  53.403  1.00  0.00     0.116 A 
HETATM   15  F   UNL     1       7.350  21.836  53.258  1.00  0.00    -0.206 F 
HETATM   16  C   UNL     1       7.286  23.734  54.657  1.00  0.00     0.045 A 
HETATM   17  C   UNL     1       7.421  25.115  54.810  1.00  0.00     0.040 A 
ENDBRANCH  10  11
ENDBRANCH   8  10
BRANCH   9  18
HETATM   18  C   UNL     1       8.270  28.551  56.283  1.00  0.00     0.256 C 
HETATM   19  N   UNL     1       9.293  29.419  55.966  1.00  0.00    -0.353 N 
HETATM   20  H   UNL     1       9.244  29.926  55.092  1.00  0.00     0.163 HD
HETATM   21  O   UNL     1       8.347  27.699  57.159  1.00  0.00    -0.267 OA
BRANCH  19  22
HETATM   22  C   UNL     1      10.595  29.248  56.562  1.00  0.00     0.149 C 
BRANCH  22  23
HETATM   23  C   UNL     1      10.977  30.436  57.394  1.00  0.00    -0.018 C 
HETATM   24  C   UNL     1      10.194  31.181  58.187  1.00  0.00     0.008 C 
ENDBRANCH  22  23
ENDBRANCH  19  22
ENDBRANCH   9  18
TORSDOF 5
ENDMDL
MODEL 3
REMARK VINA RESULT:      -7.6      3.388      6.465
REMARK  5 active torsions:
REMARK  status: ('A' for Active; 'I' for Inactive)
REMARK    1  A    between atoms: C_8  and  O_9 
REMARK    2  A    between atoms: O_9  and  C_10 
REMARK    3  A    between atoms: C_17  and  C_18 
REMARK       I    between atoms: C_18  and  N_19 
REMARK    4  A    between atoms: N_19  and  C_20 
REMARK    5  A    between atoms: C_20  and  C_21 
ROOT
HETATM    1  C   UNL     1       7.923  24.755  52.220  1.00  0.00     0.051 C 
HETATM    2  C   UNL     1       7.688  24.651  53.706  1.00  0.00    -0.018 A 
HETATM    3  C   UNL     1       8.125  23.532  54.442  1.00  0.00     0.065 A 
HETATM    4 CL   UNL     1       8.931  22.212  53.660  1.00  0.00    -0.082 Cl
HETATM    5  C   UNL     1       7.892  23.485  55.824  1.00  0.00     0.056 A 
HETATM    6  C   UNL     1       8.346  22.331  56.673  1.00  0.00     0.072 C 
HETATM    7  N   UNL     1       7.237  24.469  56.488  1.00  0.00    -0.227 NA
HETATM    8  C   UNL     1       6.767  25.513  55.766  1.00  0.00     0.186 A 
HETATM    9  C   UNL     1       6.977  25.660  54.396  1.00  0.00     0.092 A 
ENDROOT
BRANCH   8  10
HETATM   10  O   UNL     1       6.087  26.515  56.447  1.00  0.00    -0.291 OA
BRANCH  10  11
HETATM   11  C   UNL     1       6.834  27.590  56.860  1.00  0.00     0.078 A 
HETATM   12  C   UNL     1       6.152  28.728  57.295  1.00  0.00     0.040 A 
HETATM   13  C   UNL     1       6.873  29.824  57.772  1.00  0.00     0.045 A 
HETATM   14  C   UNL     1       8.261  29.761  57.825  1.00  0.00     0.116 A 
HETATM   15  F   UNL     1       8.951  30.812  58.286  1.00  0.00    -0.206 F 
HETATM   16  C   UNL     1       8.946  28.619  57.416  1.00  0.00     0.045 A 
HETATM   17  C   UNL     1       8.229  27.522  56.938  1.00  0.00     0.040 A 
ENDBRANCH  10  11
ENDBRANCH   8  10
BRANCH   9  18
HETATM   18  C   UNL     1       6.391  26.815  53.673  1.00  0.00     0.256 C 
HETATM   19  N   UNL     1       5.078  26.690  53.274  1.00  0.00    -0.353 N 
HETATM   20  H   UNL     1       4.661  25.768  53.267  1.00  0.00     0.163 HD
HETATM   21  O   UNL     1       7.072  27.813  53.469  1.00  0.00    -0.267 OA
BRANCH  19  22
HETATM   22  C   UNL     1       4.481  27.695  52.431  1.00  0.00     0.149 C 
BRANCH  22  23
HETATM   23  C   UNL     1       4.727  27.409  50.979  1.00  0.00    -0.018 C 
HETATM   24  C   UNL     1       5.000  26.231  50.399  1.00  0.00     0.008 C 
ENDBRANCH  22  23
ENDBRANCH  19  22
ENDBRANCH   9  18
TORSDOF 5
ENDMDL
MODEL 4
REMARK VINA RESULT:      -7.6      3.436      6.258
REMARK  5 active torsions:
REMARK  status: ('A' for Active; 'I' for Inactive)
REMARK    1  A    between atoms: C_8  and  O_9 
REMARK    2  A    between atoms: O_9  and  C_10 
REMARK    3  A    between atoms: C_17  and  C_18 
REMARK       I    between atoms: C_18  and  N_19 
REMARK    4  A    between atoms: N_19  and  C_20 
REMARK    5  A    between atoms: C_20  and  C_21 
ROOT
HETATM    1  C   UNL     1       7.830  24.502  52.298  1.00  0.00     0.051 C 
HETATM    2  C   UNL     1       7.636  24.323  53.783  1.00  0.00    -0.018 A 
HETATM    3  C   UNL     1       8.120  23.182  54.454  1.00  0.00     0.065 A 
HETATM    4 CL   UNL     1       8.940  21.922  53.591  1.00  0.00    -0.082 Cl
HETATM    5  C   UNL     1       7.924  23.064  55.838  1.00  0.00     0.056 A 
HETATM    6  C   UNL     1       8.428  21.883  56.619  1.00  0.00     0.072 C 
HETATM    7  N   UNL     1       7.261  23.997  56.564  1.00  0.00    -0.227 NA
HETATM    8  C   UNL     1       6.746  25.061  55.904  1.00  0.00     0.186 A 
HETATM    9  C   UNL     1       6.918  25.278  54.538  1.00  0.00     0.092 A 
ENDROOT
BRANCH   8  10
HETATM   10  O   UNL     1       6.058  26.011  56.648  1.00  0.00    -0.291 OA
BRANCH  10  11
HETATM   11  C   UNL     1       6.734  27.172  56.935  1.00  0.00     0.078 A 
HETATM   12  C   UNL     1       5.980  28.311  57.222  1.00  0.00     0.040 A 
HETATM   13  C   UNL     1       6.627  29.497  57.569  1.00  0.00     0.045 A 
HETATM   14  C   UNL     1       8.016  29.524  57.643  1.00  0.00     0.116 A 
HETATM   15  F   UNL     1       8.635  30.663  57.980  1.00  0.00    -0.206 F 
HETATM   16  C   UNL     1       8.773  28.385  57.383  1.00  0.00     0.045 A 
HETATM   17  C   UNL     1       8.129  27.197  57.034  1.00  0.00     0.040 A 
ENDBRANCH  10  11
ENDBRANCH   8  10
BRANCH   9  18
HETATM   18  C   UNL     1       6.284  26.450  53.885  1.00  0.00     0.256 C 
HETATM   19  N   UNL     1       4.906  26.466  53.851  1.00  0.00    -0.353 N 
HETATM   20  H   UNL     1       4.408  25.605  54.038  1.00  0.00     0.163 HD
HETATM   21  O   UNL     1       6.986  27.340  53.420  1.00  0.00    -0.267 OA
BRANCH  19  22
HETATM   22  C   UNL     1       4.214  27.482  53.100  1.00  0.00     0.149 C 
BRANCH  22  23
HETATM   23  C   UNL     1       3.823  28.638  53.973  1.00  0.00    -0.018 C 
HETATM   24  C   UNL     1       4.456  29.808  54.136  1.00  0.00     0.008 C 
ENDBRANCH  22  23
ENDBRANCH  19  22
ENDBRANCH   9  18
TORSDOF 5
ENDMDL
MODEL 5
REMARK VINA RESULT:      -7.5      3.330      5.242
REMARK  5 active torsions:
REMARK  status: ('A' for Active; 'I' for Inactive)
REMARK    1  A    between atoms: C_8  and  O_9 
REMARK    2  A    between atoms: O_9  and  C_10 
REMARK    3  A    between atoms: C_17  and  C_18 
REMARK       I    between atoms: C_18  and  N_19 
REMARK    4  A    between atoms: N_19  and  C_20 
REMARK    5  A    between atoms: C_20  and  C_21 
ROOT
HETATM    1  C   UNL     1       8.748  24.385  57.128  1.00  0.00     0.051 C 
HETATM    2  C   UNL     1       7.979  24.117  55.859  1.00  0.00    -0.018 A 
HETATM    3  C   UNL     1       8.355  23.084  54.977  1.00  0.00     0.065 A 
HETATM    4 CL   UNL     1       9.739  22.094  55.305  1.00  0.00    -0.082 Cl
HETATM    5  C   UNL     1       7.603  22.866  53.814  1.00  0.00     0.056 A 
HETATM    6  C   UNL     1       7.938  21.773  52.839  1.00  0.00     0.072 C 
HETATM    7  N   UNL     1       6.531  23.628  53.483  1.00  0.00    -0.227 NA
HETATM    8  C   UNL     1       6.211  24.656  54.304  1.00  0.00     0.186 A 
HETATM    9  C   UNL     1       6.880  24.929  55.495  1.00  0.00     0.092 A 
ENDROOT
BRANCH   8  10
HETATM   10  O   UNL     1       5.119  25.441  53.958  1.00  0.00    -0.291 OA
BRANCH  10  11
HETATM   11  C   UNL     1       5.237  26.183  52.807  1.00  0.00     0.078 A 
HETATM   12  C   UNL     1       5.000  25.539  51.591  1.00  0.00     0.040 A 
HETATM   13  C   UNL     1       5.059  26.267  50.403  1.00  0.00     0.045 A 
HETATM   14  C   UNL     1       5.336  27.630  50.447  1.00  0.00     0.116 A 
HETATM   15  F   UNL     1       5.388  28.328  49.305  1.00  0.00    -0.206 F 
HETATM   16  C   UNL     1       5.548  28.283  51.658  1.00  0.00     0.045 A 
HETATM   17  C   UNL     1       5.491  27.557  52.848  1.00  0.00     0.040 A 
ENDBRANCH  10  11
ENDBRANCH   8  10
BRANCH   9  18
HETATM   18  C   UNL     1       6.490  26.102  56.316  1.00  0.00     0.256 C 
HETATM   19  N   UNL     1       7.072  27.306  55.985  1.00  0.00    -0.353 N 
HETATM   20  H   UNL     1       7.890  27.300  55.388  1.00  0.00     0.163 HD
HETATM   21  O   UNL     1       5.683  25.964  57.227  1.00  0.00    -0.267 OA
BRANCH  19  22
HETATM   22  C   UNL     1       6.873  28.460  56.825  1.00  0.00     0.149 C 
BRANCH  22  23
HETATM   23  C   UNL     1       8.120  28.807  57.584  1.00  0.00    -0.018 C 
HETATM   24  C   UNL     1       9.384  28.832  57.138  1.00  0.00     0.008 C 
ENDBRANCH  22  23
ENDBRANCH  19  22
ENDBRANCH   9  18
TORSDOF 5
ENDMDL
MODEL 6
REMARK VINA RESULT:      -7.4      1.706      4.708
REMARK  5 active torsions:
REMARK  status: ('A' for Active; 'I' for Inactive)
REMARK    1  A    between atoms: C_8  and  O_9 
REMARK    2  A    between atoms: O_9  and  C_10 
REMARK    3  A    between atoms: C_17  and  C_18 
REMARK       I    between atoms: C_18  and  N_19 
REMARK    4  A    between atoms: N_19  and  C_20 
REMARK    5  A    between atoms: C_20  and  C_21 
ROOT
HETATM    1  C   UNL     1       3.591  28.283  53.248  1.00  0.00     0.051 C 
HETATM    2  C   UNL     1       5.007  28.052  53.715  1.00  0.00    -0.018 A 
HETATM    3  C   UNL     1       5.581  28.834  54.736  1.00  0.00     0.065 A 
HETATM    4 CL   UNL     1       4.687  30.118  55.483  1.00  0.00    -0.082 Cl
HETATM    5  C   UNL     1       6.897  28.575  55.143  1.00  0.00     0.056 A 
HETATM    6  C   UNL     1       7.565  29.360  56.237  1.00  0.00     0.072 C 
HETATM    7  N   UNL     1       7.661  27.609  54.575  1.00  0.00    -0.227 NA
HETATM    8  C   UNL     1       7.125  26.901  53.554  1.00  0.00     0.186 A 
HETATM    9  C   UNL     1       5.816  27.067  53.104  1.00  0.00     0.092 A 
ENDROOT
BRANCH   8  10
HETATM   10  O   UNL     1       7.912  25.919  52.966  1.00  0.00    -0.291 OA
BRANCH  10  11
HETATM   11  C   UNL     1       7.794  24.650  53.481  1.00  0.00     0.078 A 
HETATM   12  C   UNL     1       7.893  23.577  52.594  1.00  0.00     0.040 A 
HETATM   13  C   UNL     1       7.831  22.271  53.083  1.00  0.00     0.045 A 
HETATM   14  C   UNL     1       7.689  22.057  54.450  1.00  0.00     0.116 A 
HETATM   15  F   UNL     1       7.633  20.803  54.917  1.00  0.00    -0.206 F 
HETATM   16  C   UNL     1       7.615  23.123  55.342  1.00  0.00     0.045 A 
HETATM   17  C   UNL     1       7.676  24.430  54.857  1.00  0.00     0.040 A 
ENDBRANCH  10  11
ENDBRANCH   8  10
BRANCH   9  18
HETATM   18  C   UNL     1       5.321  26.277  51.950  1.00  0.00     0.256 C 
HETATM   19  N   UNL     1       5.574  26.791  50.697  1.00  0.00    -0.353 N 
HETATM   20  H   UNL     1       5.853  27.761  50.619  1.00  0.00     0.163 HD
HETATM   21  O   UNL     1       4.728  25.222  52.145  1.00  0.00    -0.267 OA
BRANCH  19  22
HETATM   22  C   UNL     1       4.993  26.173  49.531  1.00  0.00     0.149 C 
BRANCH  22  23
HETATM   23  C   UNL     1       3.803  26.942  49.039  1.00  0.00    -0.018 C 
HETATM   24  C   UNL     1       2.927  26.596  48.084  1.00  0.00     0.008 C 
ENDBRANCH  22  23
ENDBRANCH  19  22
ENDBRANCH   9  18
TORSDOF 5
ENDMDL
MODEL 7
REMARK VINA RESULT:      -7.4      3.055      5.853
REMARK  5 active torsions:
REMARK  status: ('A' for Active; 'I' for Inactive)
REMARK    1  A    between atoms: C_8  and  O_9 
REMARK    2  A    between atoms: O_9  and  C_10 
REMARK    3  A    between atoms: C_17  and  C_18 
REMARK       I    between atoms: C_18  and  N_19 
REMARK    4  A    between atoms: N_19  and  C_20 
REMARK    5  A    between atoms: C_20  and  C_21 
ROOT
HETATM    1  C   UNL     1       4.910  25.532  53.318  1.00  0.00     0.051 C 
HETATM    2  C   UNL     1       5.127  26.740  54.194  1.00  0.00    -0.018 A 
HETATM    3  C   UNL     1       4.601  28.000  53.849  1.00  0.00     0.065 A 
HETATM    4 CL   UNL     1       3.700  28.219  52.384  1.00  0.00    -0.082 Cl
HETATM    5  C   UNL     1       4.820  29.093  54.700  1.00  0.00     0.056 A 
HETATM    6  C   UNL     1       4.273  30.461  54.402  1.00  0.00     0.072 C 
HETATM    7  N   UNL     1       5.545  28.996  55.842  1.00  0.00    -0.227 NA
HETATM    8  C   UNL     1       6.099  27.797  56.137  1.00  0.00     0.186 A 
HETATM    9  C   UNL     1       5.909  26.650  55.368  1.00  0.00     0.092 A 
ENDROOT
BRANCH   8  10
HETATM   10  O   UNL     1       6.849  27.701  57.302  1.00  0.00    -0.291 OA
BRANCH  10  11
HETATM   11  C   UNL     1       7.900  28.577  57.426  1.00  0.00     0.078 A 
HETATM   12  C   UNL     1       7.861  29.495  58.478  1.00  0.00     0.040 A 
HETATM   13  C   UNL     1       8.932  30.368  58.671  1.00  0.00     0.045 A 
HETATM   14  C   UNL     1      10.034  30.299  57.824  1.00  0.00     0.116 A 
HETATM   15  F   UNL     1      11.063  31.136  58.014  1.00  0.00    -0.206 F 
HETATM   16  C   UNL     1      10.090  29.370  56.789  1.00  0.00     0.045 A 
HETATM   17  C   UNL     1       9.020  28.496  56.592  1.00  0.00     0.040 A 
ENDBRANCH  10  11
ENDBRANCH   8  10
BRANCH   9  18
HETATM   18  C   UNL     1       6.587  25.384  55.741  1.00  0.00     0.256 C 
HETATM   19  N   UNL     1       7.831  25.166  55.191  1.00  0.00    -0.353 N 
HETATM   20  H   UNL     1       8.114  25.729  54.398  1.00  0.00     0.163 HD
HETATM   21  O   UNL     1       6.036  24.603  56.508  1.00  0.00    -0.267 OA
BRANCH  19  22
HETATM   22  C   UNL     1       8.489  23.897  55.372  1.00  0.00     0.149 C 
BRANCH  22  23
HETATM   23  C   UNL     1       8.241  22.981  54.211  1.00  0.00    -0.018 C 
HETATM   24  C   UNL     1       7.944  23.306  52.944  1.00  0.00     0.008 C 
ENDBRANCH  22  23
ENDBRANCH  19  22
ENDBRANCH   9  18
TORSDOF 5
ENDMDL
MODEL 8
REMARK VINA RESULT:      -7.2      3.166      5.193
REMARK  5 active torsions:
REMARK  status: ('A' for Active; 'I' for Inactive)
REMARK    1  A    between atoms: C_8  and  O_9 
REMARK    2  A    between atoms: O_9  and  C_10 
REMARK    3  A    between atoms: C_17  and  C_18 
REMARK       I    between atoms: C_18  and  N_19 
REMARK    4  A    between atoms: N_19  and  C_20 
REMARK    5  A    between atoms: C_20  and  C_21 
ROOT
HETATM    1  C   UNL     1       7.904  25.129  57.435  1.00  0.00     0.051 C 
HETATM    2  C   UNL     1       7.735  25.391  55.959  1.00  0.00    -0.018 A 
HETATM    3  C   UNL     1       7.890  24.363  55.008  1.00  0.00     0.065 A 
HETATM    4 CL   UNL     1       8.309  22.754  55.498  1.00  0.00    -0.082 Cl
HETATM    5  C   UNL     1       7.713  24.652  53.648  1.00  0.00     0.056 A 
HETATM    6  C   UNL     1       7.848  23.601  52.582  1.00  0.00     0.072 C 
HETATM    7  N   UNL     1       7.419  25.897  53.198  1.00  0.00    -0.227 NA
HETATM    8  C   UNL     1       7.330  26.893  54.111  1.00  0.00     0.186 A 
HETATM    9  C   UNL     1       7.459  26.693  55.484  1.00  0.00     0.092 A 
ENDROOT
BRANCH   8  10
HETATM   10  O   UNL     1       7.039  28.169  53.647  1.00  0.00    -0.291 OA
BRANCH  10  11
HETATM   11  C   UNL     1       5.821  28.335  53.034  1.00  0.00     0.078 A 
HETATM   12  C   UNL     1       4.673  28.110  53.796  1.00  0.00     0.040 A 
HETATM   13  C   UNL     1       3.416  28.317  53.226  1.00  0.00     0.045 A 
HETATM   14  C   UNL     1       3.324  28.763  51.912  1.00  0.00     0.116 A 
HETATM   15  F   UNL     1       2.117  28.965  51.368  1.00  0.00    -0.206 F 
HETATM   16  C   UNL     1       4.466  29.014  51.155  1.00  0.00     0.045 A 
HETATM   17  C   UNL     1       5.724  28.807  51.721  1.00  0.00     0.040 A 
ENDBRANCH  10  11
ENDBRANCH   8  10
BRANCH   9  18
HETATM   18  C   UNL     1       7.389  27.848  56.413  1.00  0.00     0.256 C 
HETATM   19  N   UNL     1       8.537  28.598  56.552  1.00  0.00    -0.353 N 
HETATM   20  H   UNL     1       9.412  28.207  56.226  1.00  0.00     0.163 HD
HETATM   21  O   UNL     1       6.342  28.092  57.001  1.00  0.00    -0.267 OA
BRANCH  19  22
HETATM   22  C   UNL     1       8.605  29.637  57.548  1.00  0.00     0.149 C 
BRANCH  22  23
HETATM   23  C   UNL     1      10.011  30.123  57.737  1.00  0.00    -0.018 C 
HETATM   24  C   UNL     1      11.115  29.755  57.071  1.00  0.00     0.008 C 
ENDBRANCH  22  23
ENDBRANCH  19  22
ENDBRANCH   9  18
TORSDOF 5
ENDMDL
MODEL 9
REMARK VINA RESULT:      -7.0      6.287      8.934
REMARK  5 active torsions:
REMARK  status: ('A' for Active; 'I' for Inactive)
REMARK    1  A    between atoms: C_8  and  O_9 
REMARK    2  A    between atoms: O_9  and  C_10 
REMARK    3  A    between atoms: C_17  and  C_18 
REMARK       I    between atoms: C_18  and  N_19 
REMARK    4  A    between atoms: N_19  and  C_20 
REMARK    5  A    between atoms: C_20  and  C_21 
ROOT
HETATM    1  C   UNL     1       7.878  28.191  57.774  1.00  0.00     0.051 C 
HETATM    2  C   UNL     1       6.887  29.320  57.641  1.00  0.00    -0.018 A 
HETATM    3  C   UNL     1       5.802  29.242  56.746  1.00  0.00     0.065 A 
HETATM    4 CL   UNL     1       5.577  27.850  55.737  1.00  0.00    -0.082 Cl
HETATM    5  C   UNL     1       4.900  30.313  56.664  1.00  0.00     0.056 A 
HETATM    6  C   UNL     1       3.713  30.290  55.743  1.00  0.00     0.072 C 
HETATM    7  N   UNL     1       5.040  31.444  57.399  1.00  0.00    -0.227 NA
HETATM    8  C   UNL     1       6.118  31.537  58.213  1.00  0.00     0.186 A 
HETATM    9  C   UNL     1       7.047  30.513  58.383  1.00  0.00     0.092 A 
ENDROOT
BRANCH   8  10
HETATM   10  O   UNL     1       6.265  32.700  58.958  1.00  0.00    -0.291 OA
BRANCH  10  11
HETATM   11  C   UNL     1       5.225  33.028  59.794  1.00  0.00     0.078 A 
HETATM   12  C   UNL     1       5.110  32.325  60.995  1.00  0.00     0.040 A 
HETATM   13  C   UNL     1       4.099  32.662  61.896  1.00  0.00     0.045 A 
HETATM   14  C   UNL     1       3.230  33.705  61.594  1.00  0.00     0.116 A 
HETATM   15  F   UNL     1       2.263  34.029  62.461  1.00  0.00    -0.206 F 
HETATM   16  C   UNL     1       3.356  34.426  60.409  1.00  0.00     0.045 A 
HETATM   17  C   UNL     1       4.365  34.092  59.505  1.00  0.00     0.040 A 
ENDBRANCH  10  11
ENDBRANCH   8  10
BRANCH   9  18
HETATM   18  C   UNL     1       8.223  30.714  59.265  1.00  0.00     0.256 C 
HETATM   19  N   UNL     1       8.039  30.452  60.605  1.00  0.00    -0.353 N 
HETATM   20  H   UNL     1       7.094  30.379  60.959  1.00  0.00     0.163 HD
HETATM   21  O   UNL     1       9.287  31.087  58.784  1.00  0.00    -0.267 OA
BRANCH  19  22
HETATM   22  C   UNL     1       9.078  30.772  61.552  1.00  0.00     0.149 C 
BRANCH  22  23
HETATM   23  C   UNL     1       8.811  32.079  62.238  1.00  0.00    -0.018 C 
HETATM   24  C   UNL     1       7.986  32.325  63.267  1.00  0.00     0.008 C 
ENDBRANCH  22  23
ENDBRANCH  19  22
ENDBRANCH   9  18
TORSDOF 5
ENDMDL
MODEL 10
REMARK VINA RESULT:      -6.9      2.797      5.026
REMARK  5 active torsions:
REMARK  status: ('A' for Active; 'I' for Inactive)
REMARK    1  A    between atoms: C_8  and  O_9 
REMARK    2  A    between atoms: O_9  and  C_10 
REMARK    3  A    between atoms: C_17  and  C_18 
REMARK       I    between atoms: C_18  and  N_19 
REMARK    4  A    between atoms: N_19  and  C_20 
REMARK    5  A    between atoms: C_20  and  C_21 
ROOT
HETATM    1  C   UNL     1       5.887  30.483  57.805  1.00  0.00     0.051 C 
HETATM    2  C   UNL     1       6.955  29.836  56.960  1.00  0.00    -0.018 A 
HETATM    3  C   UNL     1       8.318  29.920  57.308  1.00  0.00     0.065 A 
HETATM    4 CL   UNL     1       8.825  30.797  58.715  1.00  0.00    -0.082 Cl
HETATM    5  C   UNL     1       9.275  29.294  56.497  1.00  0.00     0.056 A 
HETATM    6  C   UNL     1      10.742  29.329  56.818  1.00  0.00     0.072 C 
HETATM    7  N   UNL     1       8.946  28.623  55.365  1.00  0.00    -0.227 NA
HETATM    8  C   UNL     1       7.642  28.597  55.003  1.00  0.00     0.186 A 
HETATM    9  C   UNL     1       6.620  29.163  55.763  1.00  0.00     0.092 A 
ENDROOT
BRANCH   8  10
HETATM   10  O   UNL     1       7.309  27.918  53.839  1.00  0.00    -0.291 OA
BRANCH  10  11
HETATM   11  C   UNL     1       7.405  26.548  53.879  1.00  0.00     0.078 A 
HETATM   12  C   UNL     1       6.965  25.899  55.034  1.00  0.00     0.040 A 
HETATM   13  C   UNL     1       6.997  24.505  55.096  1.00  0.00     0.045 A 
HETATM   14  C   UNL     1       7.450  23.781  53.999  1.00  0.00     0.116 A 
HETATM   15  F   UNL     1       7.477  22.443  54.059  1.00  0.00    -0.206 F 
HETATM   16  C   UNL     1       7.868  24.421  52.835  1.00  0.00     0.045 A 
HETATM   17  C   UNL     1       7.838  25.815  52.770  1.00  0.00     0.040 A 
ENDBRANCH  10  11
ENDBRANCH   8  10
BRANCH   9  18
HETATM   18  C   UNL     1       5.220  29.125  55.273  1.00  0.00     0.256 C 
HETATM   19  N   UNL     1       4.904  29.987  54.245  1.00  0.00    -0.353 N 
HETATM   20  H   UNL     1       5.537  30.750  54.041  1.00  0.00     0.163 HD
HETATM   21  O   UNL     1       4.420  28.348  55.779  1.00  0.00    -0.267 OA
BRANCH  19  22
HETATM   22  C   UNL     1       3.536  30.129  53.816  1.00  0.00     0.149 C 
BRANCH  22  23
HETATM   23  C   UNL     1       2.951  31.433  54.271  1.00  0.00    -0.018 C 
HETATM   24  C   UNL     1       2.398  31.727  55.457  1.00  0.00     0.008 C 
ENDBRANCH  22  23
ENDBRANCH  19  22
ENDBRANCH   9  18
TORSDOF 5
ENDMDL
