MODEL 1
REMARK VINA RESULT:      -9.9      0.000      0.000
REMARK  6 active torsions:
REMARK  status: ('A' for Active; 'I' for Inactive)
REMARK    1  A    between atoms: C_3  and  C_4 
REMARK    2  A    between atoms: C_9  and  N_10 
REMARK       I    between atoms: N_10  and  C_11 
REMARK       I    between atoms: C_11  and  N_12 
REMARK    3  A    between atoms: N_12  and  C_13 
REMARK    4  A    between atoms: C_13  and  C_14 
REMARK    5  A    between atoms: C_14  and  C_15 
REMARK    6  A    between atoms: N_17  and  C_18 
ROOT
HETATM    1  N   UNL     1       8.694  30.628  59.469  1.00  0.00    -0.309 N 
HETATM    2  C   UNL     1       9.579  31.198  58.600  1.00  0.00     0.320 C 
HETATM    3  N   UNL     1       9.894  30.477  57.490  1.00  0.00    -0.343 N 
HETATM    4  O   UNL     1      10.105  32.302  58.713  1.00  0.00    -0.247 OA
HETATM    5  H   UNL     1       8.379  29.701  59.250  1.00  0.00     0.170 HD
HETATM    6  H   UNL     1      10.519  31.004  56.889  1.00  0.00     0.164 HD
ENDROOT
BRANCH   3   7
HETATM    7  C   UNL     1       9.461  29.172  57.008  1.00  0.00     0.129 C 
BRANCH   7   8
HETATM    8  C   UNL     1       8.094  29.237  56.318  1.00  0.00     0.061 C 
BRANCH   8   9
HETATM    9  C   UNL     1       7.818  28.066  55.439  1.00  0.00    -0.020 A 
HETATM   10  C   UNL     1       7.985  26.726  55.722  1.00  0.00     0.127 A 
HETATM   11  N   UNL     1       7.626  26.008  54.600  1.00  0.00    -0.245 N 
HETATM   12  N   UNL     1       7.220  26.843  53.606  1.00  0.00    -0.180 NA
HETATM   13  C   UNL     1       7.344  28.068  54.113  1.00  0.00     0.148 A 
BRANCH  11  14
HETATM   14  C   UNL     1       7.658  24.598  54.410  1.00  0.00     0.058 A 
HETATM   15  C   UNL     1       7.485  23.715  55.485  1.00  0.00     0.031 A 
HETATM   16  C   UNL     1       7.534  22.334  55.270  1.00  0.00     0.002 A 
HETATM   17  C   UNL     1       7.754  21.828  53.991  1.00  0.00     0.000 A 
HETATM   18  C   UNL     1       7.924  22.700  52.918  1.00  0.00     0.002 A 
HETATM   19  C   UNL     1       7.875  24.081  53.124  1.00  0.00     0.031 A 
ENDBRANCH  11  14
ENDBRANCH   8   9
ENDBRANCH   7   8
ENDBRANCH   3   7
BRANCH   1  20
HETATM   20  C   UNL     1       8.164  31.183  60.653  1.00  0.00     0.036 A 
HETATM   21  C   UNL     1       8.696  30.971  61.922  1.00  0.00     0.030 A 
HETATM   22  C   UNL     1       8.109  31.563  63.047  1.00  0.00     0.018 A 
HETATM   23  C   UNL     1       6.987  32.393  62.918  1.00  0.00     0.015 A 
HETATM   24  C   UNL     1       6.443  32.630  61.641  1.00  0.00    -0.046 A 
HETATM   25  C   UNL     1       5.244  33.511  61.422  1.00  0.00     0.049 C 
HETATM   26  C   UNL     1       7.035  32.005  60.525  1.00  0.00     0.037 A 
BRANCH  23  27
HETATM   27  C   UNL     1       6.387  32.992  64.148  1.00  0.00     0.156 C 
HETATM   28  C   UNL     1       7.231  33.932  64.970  1.00  0.00     0.097 C 
HETATM   29  O   UNL     1       5.243  32.706  64.489  1.00  0.00    -0.293 OA
ENDBRANCH  23  27
ENDBRANCH   1  20
TORSDOF 6
ENDMDL
MODEL 2
REMARK VINA RESULT:      -9.8      3.135      5.094
REMARK  6 active torsions:
REMARK  status: ('A' for Active; 'I' for Inactive)
REMARK    1  A    between atoms: C_3  and  C_4 
REMARK    2  A    between atoms: C_9  and  N_10 
REMARK       I    between atoms: N_10  and  C_11 
REMARK       I    between atoms: C_11  and  N_12 
REMARK    3  A    between atoms: N_12  and  C_13 
REMARK    4  A    between atoms: C_13  and  C_14 
REMARK    5  A    between atoms: C_14  and  C_15 
REMARK    6  A    between atoms: N_17  and  C_18 
ROOT
HETATM    1  N   UNL     1       5.972  28.726  55.436  1.00  0.00    -0.309 N 
HETATM    2  C   UNL     1       5.268  27.569  55.608  1.00  0.00     0.320 C 
HETATM    3  N   UNL     1       4.611  27.086  54.519  1.00  0.00    -0.343 N 
HETATM    4  O   UNL     1       5.182  26.914  56.643  1.00  0.00    -0.247 OA
HETATM    5  H   UNL     1       5.913  29.160  54.533  1.00  0.00     0.170 HD
HETATM    6  H   UNL     1       4.160  26.205  54.737  1.00  0.00     0.164 HD
ENDROOT
BRANCH   3   7
HETATM    7  C   UNL     1       4.503  27.560  53.145  1.00  0.00     0.129 C 
BRANCH   7   8
HETATM    8  C   UNL     1       4.888  26.477  52.130  1.00  0.00     0.061 C 
BRANCH   8   9
HETATM    9  C   UNL     1       5.993  25.594  52.596  1.00  0.00    -0.020 A 
HETATM   10  C   UNL     1       5.919  24.283  53.022  1.00  0.00     0.127 A 
HETATM   11  N   UNL     1       7.189  23.883  53.381  1.00  0.00    -0.245 N 
HETATM   12  N   UNL     1       8.083  24.889  53.187  1.00  0.00    -0.180 NA
HETATM   13  C   UNL     1       7.360  25.907  52.725  1.00  0.00     0.148 A 
BRANCH  11  14
HETATM   14  C   UNL     1       7.600  22.624  53.904  1.00  0.00     0.058 A 
HETATM   15  C   UNL     1       8.023  21.589  53.059  1.00  0.00     0.031 A 
HETATM   16  C   UNL     1       8.408  20.358  53.600  1.00  0.00     0.002 A 
HETATM   17  C   UNL     1       8.376  20.154  54.977  1.00  0.00     0.000 A 
HETATM   18  C   UNL     1       7.960  21.179  55.823  1.00  0.00     0.002 A 
HETATM   19  C   UNL     1       7.574  22.412  55.291  1.00  0.00     0.031 A 
ENDBRANCH  11  14
ENDBRANCH   8   9
ENDBRANCH   7   8
ENDBRANCH   3   7
BRANCH   1  20
HETATM   20  C   UNL     1       6.775  29.399  56.380  1.00  0.00     0.036 A 
HETATM   21  C   UNL     1       6.277  30.226  57.384  1.00  0.00     0.030 A 
HETATM   22  C   UNL     1       7.145  30.854  58.284  1.00  0.00     0.018 A 
HETATM   23  C   UNL     1       8.530  30.653  58.203  1.00  0.00     0.015 A 
HETATM   24  C   UNL     1       9.052  29.812  57.203  1.00  0.00    -0.046 A 
HETATM   25  C   UNL     1      10.525  29.543  57.057  1.00  0.00     0.049 C 
HETATM   26  C   UNL     1       8.161  29.206  56.293  1.00  0.00     0.037 A 
BRANCH  23  27
HETATM   27  C   UNL     1       9.419  31.357  59.177  1.00  0.00     0.156 C 
HETATM   28  C   UNL     1       9.418  30.892  60.611  1.00  0.00     0.097 C 
HETATM   29  O   UNL     1      10.114  32.303  58.819  1.00  0.00    -0.293 OA
ENDBRANCH  23  27
ENDBRANCH   1  20
TORSDOF 6
ENDMDL
MODEL 3
REMARK VINA RESULT:      -9.5      3.137     10.880
REMARK  6 active torsions:
REMARK  status: ('A' for Active; 'I' for Inactive)
REMARK    1  A    between atoms: C_3  and  C_4 
REMARK    2  A    between atoms: C_9  and  N_10 
REMARK       I    between atoms: N_10  and  C_11 
REMARK       I    between atoms: C_11  and  N_12 
REMARK    3  A    between atoms: N_12  and  C_13 
REMARK    4  A    between atoms: C_13  and  C_14 
REMARK    5  A    between atoms: C_14  and  C_15 
REMARK    6  A    between atoms: N_17  and  C_18 
ROOT
HETATM    1  N   UNL     1       7.898  26.967  57.250  1.00  0.00    -0.309 N 
HETATM    2  C   UNL     1       6.747  27.683  57.409  1.00  0.00     0.320 C 
HETATM    3  N   UNL     1       6.875  28.941  57.911  1.00  0.00    -0.343 N 
HETATM    4  O   UNL     1       5.611  27.311  57.129  1.00  0.00    -0.247 OA
HETATM    5  H   UNL     1       8.748  27.402  57.561  1.00  0.00     0.170 HD
HETATM    6  H   UNL     1       5.974  29.404  57.947  1.00  0.00     0.164 HD
ENDROOT
BRANCH   3   7
HETATM    7  C   UNL     1       8.034  29.722  58.325  1.00  0.00     0.129 C 
BRANCH   7   8
HETATM    8  C   UNL     1       7.649  31.145  58.746  1.00  0.00     0.061 C 
BRANCH   8   9
HETATM    9  C   UNL     1       7.702  31.361  60.220  1.00  0.00    -0.020 A 
HETATM   10  C   UNL     1       6.854  32.117  61.004  1.00  0.00     0.127 A 
HETATM   11  N   UNL     1       7.305  32.043  62.305  1.00  0.00    -0.245 N 
HETATM   12  N   UNL     1       8.408  31.253  62.388  1.00  0.00    -0.180 NA
HETATM   13  C   UNL     1       8.641  30.856  61.139  1.00  0.00     0.148 A 
BRANCH  11  14
HETATM   14  C   UNL     1       6.768  32.681  63.459  1.00  0.00     0.058 A 
HETATM   15  C   UNL     1       7.604  33.236  64.438  1.00  0.00     0.031 A 
HETATM   16  C   UNL     1       7.049  33.845  65.568  1.00  0.00     0.002 A 
HETATM   17  C   UNL     1       5.667  33.905  65.728  1.00  0.00     0.000 A 
HETATM   18  C   UNL     1       4.830  33.358  64.757  1.00  0.00     0.002 A 
HETATM   19  C   UNL     1       5.376  32.749  63.625  1.00  0.00     0.031 A 
ENDBRANCH  11  14
ENDBRANCH   8   9
ENDBRANCH   7   8
ENDBRANCH   3   7
BRANCH   1  20
HETATM   20  C   UNL     1       8.045  25.674  56.704  1.00  0.00     0.036 A 
HETATM   21  C   UNL     1       8.611  24.598  57.383  1.00  0.00     0.030 A 
HETATM   22  C   UNL     1       8.716  23.345  56.767  1.00  0.00     0.018 A 
HETATM   23  C   UNL     1       8.240  23.144  55.464  1.00  0.00     0.015 A 
HETATM   24  C   UNL     1       7.654  24.217  54.766  1.00  0.00    -0.046 A 
HETATM   25  C   UNL     1       7.117  24.078  53.368  1.00  0.00     0.049 C 
HETATM   26  C   UNL     1       7.579  25.476  55.397  1.00  0.00     0.037 A 
BRANCH  23  27
HETATM   27  C   UNL     1       8.387  21.793  54.843  1.00  0.00     0.156 C 
HETATM   28  C   UNL     1       7.688  20.627  55.494  1.00  0.00     0.097 C 
HETATM   29  O   UNL     1       9.078  21.637  53.840  1.00  0.00    -0.293 OA
ENDBRANCH  23  27
ENDBRANCH   1  20
TORSDOF 6
ENDMDL
MODEL 4
REMARK VINA RESULT:      -9.4      3.144     10.424
REMARK  6 active torsions:
REMARK  status: ('A' for Active; 'I' for Inactive)
REMARK    1  A    between atoms: C_3  and  C_4 
REMARK    2  A    between atoms: C_9  and  N_10 
REMARK       I    between atoms: N_10  and  C_11 
REMARK       I    between atoms: C_11  and  N_12 
REMARK    3  A    between atoms: N_12  and  C_13 
REMARK    4  A    between atoms: C_13  and  C_14 
REMARK    5  A    between atoms: C_14  and  C_15 
REMARK    6  A    between atoms: N_17  and  C_18 
ROOT
HETATM    1  N   UNL     1       7.729  26.594  56.290  1.00  0.00    -0.309 N 
HETATM    2  C   UNL     1       6.653  27.321  56.710  1.00  0.00     0.320 C 
HETATM    3  N   UNL     1       6.812  28.671  56.763  1.00  0.00    -0.343 N 
HETATM    4  O   UNL     1       5.552  26.879  57.027  1.00  0.00    -0.247 OA
HETATM    5  H   UNL     1       8.573  27.104  56.099  1.00  0.00     0.170 HD
HETATM    6  H   UNL     1       5.946  29.121  57.040  1.00  0.00     0.164 HD
ENDROOT
BRANCH   3   7
HETATM    7  C   UNL     1       7.935  29.543  56.444  1.00  0.00     0.129 C 
BRANCH   7   8
HETATM    8  C   UNL     1       9.059  29.438  57.482  1.00  0.00     0.061 C 
BRANCH   8   9
HETATM    9  C   UNL     1       9.021  30.517  58.508  1.00  0.00    -0.020 A 
HETATM   10  C   UNL     1       8.177  30.635  59.594  1.00  0.00     0.127 A 
HETATM   11  N   UNL     1       8.492  31.807  60.249  1.00  0.00    -0.245 N 
HETATM   12  N   UNL     1       9.521  32.443  59.627  1.00  0.00    -0.180 NA
HETATM   13  C   UNL     1       9.825  31.670  58.587  1.00  0.00     0.148 A 
BRANCH  11  14
HETATM   14  C   UNL     1       7.875  32.362  61.405  1.00  0.00     0.058 A 
HETATM   15  C   UNL     1       6.660  33.056  61.319  1.00  0.00     0.031 A 
HETATM   16  C   UNL     1       6.083  33.602  62.470  1.00  0.00     0.002 A 
HETATM   17  C   UNL     1       6.709  33.460  63.706  1.00  0.00     0.000 A 
HETATM   18  C   UNL     1       7.915  32.769  63.800  1.00  0.00     0.002 A 
HETATM   19  C   UNL     1       8.497  32.219  62.654  1.00  0.00     0.031 A 
ENDBRANCH  11  14
ENDBRANCH   8   9
ENDBRANCH   7   8
ENDBRANCH   3   7
BRANCH   1  20
HETATM   20  C   UNL     1       7.809  25.199  56.095  1.00  0.00     0.036 A 
HETATM   21  C   UNL     1       8.185  24.291  57.082  1.00  0.00     0.030 A 
HETATM   22  C   UNL     1       8.234  22.920  56.805  1.00  0.00     0.018 A 
HETATM   23  C   UNL     1       7.892  22.431  55.536  1.00  0.00     0.015 A 
HETATM   24  C   UNL     1       7.498  23.333  54.529  1.00  0.00    -0.046 A 
HETATM   25  C   UNL     1       7.113  22.884  53.146  1.00  0.00     0.049 C 
HETATM   26  C   UNL     1       7.477  24.711  54.823  1.00  0.00     0.037 A 
BRANCH  23  27
HETATM   27  C   UNL     1       7.974  20.961  55.283  1.00  0.00     0.156 C 
HETATM   28  C   UNL     1       8.920  20.471  54.216  1.00  0.00     0.097 C 
HETATM   29  O   UNL     1       7.269  20.177  55.912  1.00  0.00    -0.293 OA
ENDBRANCH  23  27
ENDBRANCH   1  20
TORSDOF 6
ENDMDL
MODEL 5
REMARK VINA RESULT:      -9.4      1.543      2.137
REMARK  6 active torsions:
REMARK  status: ('A' for Active; 'I' for Inactive)
REMARK    1  A    between atoms: C_3  and  C_4 
REMARK    2  A    between atoms: C_9  and  N_10 
REMARK       I    between atoms: N_10  and  C_11 
REMARK       I    between atoms: C_11  and  N_12 
REMARK    3  A    between atoms: N_12  and  C_13 
REMARK    4  A    between atoms: C_13  and  C_14 
REMARK    5  A    between atoms: C_14  and  C_15 
REMARK    6  A    between atoms: N_17  and  C_18 
ROOT
HETATM    1  N   UNL     1       7.396  31.117  59.979  1.00  0.00    -0.309 N 
HETATM    2  C   UNL     1       8.440  31.304  59.120  1.00  0.00     0.320 C 
HETATM    3  N   UNL     1       8.757  30.259  58.308  1.00  0.00    -0.343 N 
HETATM    4  O   UNL     1       9.110  32.325  58.996  1.00  0.00    -0.247 OA
HETATM    5  H   UNL     1       6.971  30.207  59.982  1.00  0.00     0.170 HD
HETATM    6  H   UNL     1       9.511  30.512  57.679  1.00  0.00     0.164 HD
ENDROOT
BRANCH   3   7
HETATM    7  C   UNL     1       8.186  28.928  58.149  1.00  0.00     0.129 C 
BRANCH   7   8
HETATM    8  C   UNL     1       6.880  28.952  57.346  1.00  0.00     0.061 C 
BRANCH   8   9
HETATM    9  C   UNL     1       6.568  27.655  56.683  1.00  0.00    -0.020 A 
HETATM   10  C   UNL     1       7.442  26.765  56.091  1.00  0.00     0.127 A 
HETATM   11  N   UNL     1       6.701  25.717  55.588  1.00  0.00    -0.245 N 
HETATM   12  N   UNL     1       5.378  25.894  55.849  1.00  0.00    -0.180 NA
HETATM   13  C   UNL     1       5.308  27.055  56.496  1.00  0.00     0.148 A 
BRANCH  11  14
HETATM   14  C   UNL     1       7.162  24.577  54.870  1.00  0.00     0.058 A 
HETATM   15  C   UNL     1       7.275  23.325  55.490  1.00  0.00     0.031 A 
HETATM   16  C   UNL     1       7.744  22.225  54.764  1.00  0.00     0.002 A 
HETATM   17  C   UNL     1       8.100  22.366  53.425  1.00  0.00     0.000 A 
HETATM   18  C   UNL     1       7.988  23.607  52.802  1.00  0.00     0.002 A 
HETATM   19  C   UNL     1       7.519  24.710  53.520  1.00  0.00     0.031 A 
ENDBRANCH  11  14
ENDBRANCH   8   9
ENDBRANCH   7   8
ENDBRANCH   3   7
BRANCH   1  20
HETATM   20  C   UNL     1       6.837  32.050  60.877  1.00  0.00     0.036 A 
HETATM   21  C   UNL     1       5.741  32.858  60.585  1.00  0.00     0.030 A 
HETATM   22  C   UNL     1       5.246  33.757  61.537  1.00  0.00     0.018 A 
HETATM   23  C   UNL     1       5.832  33.851  62.807  1.00  0.00     0.015 A 
HETATM   24  C   UNL     1       6.933  33.034  63.125  1.00  0.00    -0.046 A 
HETATM   25  C   UNL     1       7.611  33.075  64.467  1.00  0.00     0.049 C 
HETATM   26  C   UNL     1       7.429  32.152  62.144  1.00  0.00     0.037 A 
BRANCH  23  27
HETATM   27  C   UNL     1       5.279  34.835  63.786  1.00  0.00     0.156 C 
HETATM   28  C   UNL     1       4.136  34.401  64.668  1.00  0.00     0.097 C 
HETATM   29  O   UNL     1       5.730  35.975  63.850  1.00  0.00    -0.293 OA
ENDBRANCH  23  27
ENDBRANCH   1  20
TORSDOF 6
ENDMDL
MODEL 6
REMARK VINA RESULT:      -9.4      3.363     11.117
REMARK  6 active torsions:
REMARK  status: ('A' for Active; 'I' for Inactive)
REMARK    1  A    between atoms: C_3  and  C_4 
REMARK    2  A    between atoms: C_9  and  N_10 
REMARK       I    between atoms: N_10  and  C_11 
REMARK       I    between atoms: C_11  and  N_12 
REMARK    3  A    between atoms: N_12  and  C_13 
REMARK    4  A    between atoms: C_13  and  C_14 
REMARK    5  A    between atoms: C_14  and  C_15 
REMARK    6  A    between atoms: N_17  and  C_18 
ROOT
HETATM    1  N   UNL     1       7.913  25.744  56.474  1.00  0.00    -0.309 N 
HETATM    2  C   UNL     1       6.816  26.260  57.101  1.00  0.00     0.320 C 
HETATM    3  N   UNL     1       6.943  27.510  57.624  1.00  0.00    -0.343 N 
HETATM    4  O   UNL     1       5.722  25.716  57.224  1.00  0.00    -0.247 OA
HETATM    5  H   UNL     1       8.746  26.304  56.489  1.00  0.00     0.170 HD
HETATM    6  H   UNL     1       6.064  27.819  58.024  1.00  0.00     0.164 HD
ENDROOT
BRANCH   3   7
HETATM    7  C   UNL     1       8.049  28.458  57.650  1.00  0.00     0.129 C 
BRANCH   7   8
HETATM    8  C   UNL     1       7.563  29.908  57.759  1.00  0.00     0.061 C 
BRANCH   8   9
HETATM    9  C   UNL     1       7.904  30.550  59.060  1.00  0.00    -0.020 A 
HETATM   10  C   UNL     1       7.097  31.326  59.868  1.00  0.00     0.127 A 
HETATM   11  N   UNL     1       7.846  31.723  60.956  1.00  0.00    -0.245 N 
HETATM   12  N   UNL     1       9.106  31.216  60.883  1.00  0.00    -0.180 NA
HETATM   13  C   UNL     1       9.133  30.524  59.746  1.00  0.00     0.148 A 
BRANCH  11  14
HETATM   14  C   UNL     1       7.449  32.555  62.040  1.00  0.00     0.058 A 
HETATM   15  C   UNL     1       8.011  32.405  63.316  1.00  0.00     0.031 A 
HETATM   16  C   UNL     1       7.592  33.228  64.366  1.00  0.00     0.002 A 
HETATM   17  C   UNL     1       6.618  34.200  64.152  1.00  0.00     0.000 A 
HETATM   18  C   UNL     1       6.058  34.358  62.886  1.00  0.00     0.002 A 
HETATM   19  C   UNL     1       6.472  33.540  61.832  1.00  0.00     0.031 A 
ENDBRANCH  11  14
ENDBRANCH   8   9
ENDBRANCH   7   8
ENDBRANCH   3   7
BRANCH   1  20
HETATM   20  C   UNL     1       8.027  24.507  55.807  1.00  0.00     0.036 A 
HETATM   21  C   UNL     1       8.037  24.362  54.422  1.00  0.00     0.030 A 
HETATM   22  C   UNL     1       8.157  23.094  53.841  1.00  0.00     0.018 A 
HETATM   23  C   UNL     1       8.285  21.948  54.638  1.00  0.00     0.015 A 
HETATM   24  C   UNL     1       8.288  22.075  56.040  1.00  0.00    -0.046 A 
HETATM   25  C   UNL     1       8.427  20.894  56.960  1.00  0.00     0.049 C 
HETATM   26  C   UNL     1       8.144  23.359  56.605  1.00  0.00     0.037 A 
BRANCH  23  27
HETATM   27  C   UNL     1       8.396  20.615  53.973  1.00  0.00     0.156 C 
HETATM   28  C   UNL     1       7.775  20.442  52.610  1.00  0.00     0.097 C 
HETATM   29  O   UNL     1       8.958  19.680  54.535  1.00  0.00    -0.293 OA
ENDBRANCH  23  27
ENDBRANCH   1  20
TORSDOF 6
ENDMDL
MODEL 7
REMARK VINA RESULT:      -9.1      3.032     10.548
REMARK  6 active torsions:
REMARK  status: ('A' for Active; 'I' for Inactive)
REMARK    1  A    between atoms: C_3  and  C_4 
REMARK    2  A    between atoms: C_9  and  N_10 
REMARK       I    between atoms: N_10  and  C_11 
REMARK       I    between atoms: C_11  and  N_12 
REMARK    3  A    between atoms: N_12  and  C_13 
REMARK    4  A    between atoms: C_13  and  C_14 
REMARK    5  A    between atoms: C_14  and  C_15 
REMARK    6  A    between atoms: N_17  and  C_18 
ROOT
HETATM    1  N   UNL     1       6.798  27.100  54.991  1.00  0.00    -0.309 N 
HETATM    2  C   UNL     1       7.341  28.303  54.642  1.00  0.00     0.320 C 
HETATM    3  N   UNL     1       6.753  29.413  55.166  1.00  0.00    -0.343 N 
HETATM    4  O   UNL     1       8.315  28.482  53.917  1.00  0.00    -0.247 OA
HETATM    5  H   UNL     1       5.977  27.125  55.567  1.00  0.00     0.170 HD
HETATM    6  H   UNL     1       7.255  30.248  54.886  1.00  0.00     0.164 HD
ENDROOT
BRANCH   3   7
HETATM    7  C   UNL     1       5.622  29.595  56.067  1.00  0.00     0.129 C 
BRANCH   7   8
HETATM    8  C   UNL     1       5.581  31.007  56.662  1.00  0.00     0.061 C 
BRANCH   8   9
HETATM    9  C   UNL     1       6.307  31.125  57.958  1.00  0.00    -0.020 A 
HETATM   10  C   UNL     1       5.986  31.906  59.050  1.00  0.00     0.127 A 
HETATM   11  N   UNL     1       6.957  31.711  60.009  1.00  0.00    -0.245 N 
HETATM   12  N   UNL     1       7.887  30.817  59.577  1.00  0.00    -0.180 NA
HETATM   13  C   UNL     1       7.494  30.478  58.351  1.00  0.00     0.148 A 
BRANCH  11  14
HETATM   14  C   UNL     1       7.064  32.322  61.290  1.00  0.00     0.058 A 
HETATM   15  C   UNL     1       7.986  31.862  62.241  1.00  0.00     0.031 A 
HETATM   16  C   UNL     1       8.060  32.474  63.496  1.00  0.00     0.002 A 
HETATM   17  C   UNL     1       7.223  33.542  63.809  1.00  0.00     0.000 A 
HETATM   18  C   UNL     1       6.307  34.007  62.868  1.00  0.00     0.002 A 
HETATM   19  C   UNL     1       6.227  33.402  61.611  1.00  0.00     0.031 A 
ENDBRANCH  11  14
ENDBRANCH   8   9
ENDBRANCH   7   8
ENDBRANCH   3   7
BRANCH   1  20
HETATM   20  C   UNL     1       7.247  25.812  54.633  1.00  0.00     0.036 A 
HETATM   21  C   UNL     1       7.396  25.371  53.320  1.00  0.00     0.030 A 
HETATM   22  C   UNL     1       7.852  24.075  53.052  1.00  0.00     0.018 A 
HETATM   23  C   UNL     1       8.183  23.201  54.096  1.00  0.00     0.015 A 
HETATM   24  C   UNL     1       8.051  23.632  55.430  1.00  0.00    -0.046 A 
HETATM   25  C   UNL     1       8.390  22.754  56.603  1.00  0.00     0.049 C 
HETATM   26  C   UNL     1       7.568  24.933  55.678  1.00  0.00     0.037 A 
BRANCH  23  27
HETATM   27  C   UNL     1       8.651  21.822  53.763  1.00  0.00     0.156 C 
HETATM   28  C   UNL     1       7.732  20.926  52.973  1.00  0.00     0.097 C 
HETATM   29  O   UNL     1       9.748  21.424  54.144  1.00  0.00    -0.293 OA
ENDBRANCH  23  27
ENDBRANCH   1  20
TORSDOF 6
ENDMDL
MODEL 8
REMARK VINA RESULT:      -9.0      3.282      9.963
REMARK  6 active torsions:
REMARK  status: ('A' for Active; 'I' for Inactive)
REMARK    1  A    between atoms: C_3  and  C_4 
REMARK    2  A    between atoms: C_9  and  N_10 
REMARK       I    between atoms: N_10  and  C_11 
REMARK       I    between atoms: C_11  and  N_12 
REMARK    3  A    between atoms: N_12  and  C_13 
REMARK    4  A    between atoms: C_13  and  C_14 
REMARK    5  A    between atoms: C_14  and  C_15 
REMARK    6  A    between atoms: N_17  and  C_18 
ROOT
HETATM    1  N   UNL     1       6.481  27.014  55.503  1.00  0.00    -0.309 N 
HETATM    2  C   UNL     1       6.989  28.086  54.828  1.00  0.00     0.320 C 
HETATM    3  N   UNL     1       6.330  29.268  54.973  1.00  0.00    -0.343 N 
HETATM    4  O   UNL     1       7.991  28.094  54.118  1.00  0.00    -0.247 OA
HETATM    5  H   UNL     1       5.631  27.165  56.016  1.00  0.00     0.170 HD
HETATM    6  H   UNL     1       6.811  30.007  54.473  1.00  0.00     0.164 HD
ENDROOT
BRANCH   3   7
HETATM    7  C   UNL     1       5.149  29.648  55.737  1.00  0.00     0.129 C 
BRANCH   7   8
HETATM    8  C   UNL     1       4.934  31.166  55.749  1.00  0.00     0.061 C 
BRANCH   8   9
HETATM    9  C   UNL     1       5.365  31.814  57.020  1.00  0.00    -0.020 A 
HETATM   10  C   UNL     1       6.258  31.343  57.960  1.00  0.00     0.127 A 
HETATM   11  N   UNL     1       6.324  32.269  58.981  1.00  0.00    -0.245 N 
HETATM   12  N   UNL     1       5.513  33.329  58.721  1.00  0.00    -0.180 NA
HETATM   13  C   UNL     1       4.940  33.046  57.554  1.00  0.00     0.148 A 
BRANCH  11  14
HETATM   14  C   UNL     1       7.090  32.204  60.179  1.00  0.00     0.058 A 
HETATM   15  C   UNL     1       8.486  32.081  60.144  1.00  0.00     0.031 A 
HETATM   16  C   UNL     1       9.211  32.006  61.337  1.00  0.00     0.002 A 
HETATM   17  C   UNL     1       8.554  32.054  62.564  1.00  0.00     0.000 A 
HETATM   18  C   UNL     1       7.167  32.179  62.607  1.00  0.00     0.002 A 
HETATM   19  C   UNL     1       6.435  32.255  61.419  1.00  0.00     0.031 A 
ENDBRANCH  11  14
ENDBRANCH   8   9
ENDBRANCH   7   8
ENDBRANCH   3   7
BRANCH   1  20
HETATM   20  C   UNL     1       7.001  25.705  55.565  1.00  0.00     0.036 A 
HETATM   21  C   UNL     1       7.456  25.098  56.733  1.00  0.00     0.030 A 
HETATM   22  C   UNL     1       7.955  23.790  56.707  1.00  0.00     0.018 A 
HETATM   23  C   UNL     1       7.993  23.060  55.511  1.00  0.00     0.015 A 
HETATM   24  C   UNL     1       7.527  23.653  54.322  1.00  0.00    -0.046 A 
HETATM   25  C   UNL     1       7.532  22.932  53.002  1.00  0.00     0.049 C 
HETATM   26  C   UNL     1       7.049  24.978  54.366  1.00  0.00     0.037 A 
BRANCH  23  27
HETATM   27  C   UNL     1       8.548  21.673  55.529  1.00  0.00     0.156 C 
HETATM   28  C   UNL     1       7.655  20.552  55.998  1.00  0.00     0.097 C 
HETATM   29  O   UNL     1       9.709  21.459  55.192  1.00  0.00    -0.293 OA
ENDBRANCH  23  27
ENDBRANCH   1  20
TORSDOF 6
ENDMDL
MODEL 9
REMARK VINA RESULT:      -8.8      6.802     10.421
REMARK  6 active torsions:
REMARK  status: ('A' for Active; 'I' for Inactive)
REMARK    1  A    between atoms: C_3  and  C_4 
REMARK    2  A    between atoms: C_9  and  N_10 
REMARK       I    between atoms: N_10  and  C_11 
REMARK       I    between atoms: C_11  and  N_12 
REMARK    3  A    between atoms: N_12  and  C_13 
REMARK    4  A    between atoms: C_13  and  C_14 
REMARK    5  A    between atoms: C_14  and  C_15 
REMARK    6  A    between atoms: N_17  and  C_18 
ROOT
HETATM    1  N   UNL     1       4.175  28.634  51.595  1.00  0.00    -0.309 N 
HETATM    2  C   UNL     1       5.423  29.186  51.623  1.00  0.00     0.320 C 
HETATM    3  N   UNL     1       6.128  29.040  52.778  1.00  0.00    -0.343 N 
HETATM    4  O   UNL     1       5.978  29.785  50.707  1.00  0.00    -0.247 OA
HETATM    5  H   UNL     1       3.851  28.205  52.443  1.00  0.00     0.170 HD
HETATM    6  H   UNL     1       7.054  29.442  52.683  1.00  0.00     0.164 HD
ENDROOT
BRANCH   3   7
HETATM    7  C   UNL     1       5.822  28.384  54.043  1.00  0.00     0.129 C 
BRANCH   7   8
HETATM    8  C   UNL     1       6.998  27.547  54.558  1.00  0.00     0.061 C 
BRANCH   8   9
HETATM    9  C   UNL     1       6.908  26.107  54.187  1.00  0.00    -0.020 A 
HETATM   10  C   UNL     1       7.603  25.041  54.722  1.00  0.00     0.127 A 
HETATM   11  N   UNL     1       7.212  23.902  54.050  1.00  0.00    -0.245 N 
HETATM   12  N   UNL     1       6.276  24.197  53.108  1.00  0.00    -0.180 NA
HETATM   13  C   UNL     1       6.107  25.515  53.192  1.00  0.00     0.148 A 
BRANCH  11  14
HETATM   14  C   UNL     1       7.675  22.569  54.234  1.00  0.00     0.058 A 
HETATM   15  C   UNL     1       7.787  22.009  55.514  1.00  0.00     0.031 A 
HETATM   16  C   UNL     1       8.258  20.701  55.666  1.00  0.00     0.002 A 
HETATM   17  C   UNL     1       8.617  19.948  54.551  1.00  0.00     0.000 A 
HETATM   18  C   UNL     1       8.506  20.497  53.275  1.00  0.00     0.002 A 
HETATM   19  C   UNL     1       8.035  21.803  53.115  1.00  0.00     0.031 A 
ENDBRANCH  11  14
ENDBRANCH   8   9
ENDBRANCH   7   8
ENDBRANCH   3   7
BRANCH   1  20
HETATM   20  C   UNL     1       3.270  28.595  50.513  1.00  0.00     0.036 A 
HETATM   21  C   UNL     1       2.163  29.430  50.390  1.00  0.00     0.030 A 
HETATM   22  C   UNL     1       1.316  29.328  49.280  1.00  0.00     0.018 A 
HETATM   23  C   UNL     1       1.572  28.397  48.265  1.00  0.00     0.015 A 
HETATM   24  C   UNL     1       2.694  27.552  48.366  1.00  0.00    -0.046 A 
HETATM   25  C   UNL     1       3.038  26.532  47.315  1.00  0.00     0.049 C 
HETATM   26  C   UNL     1       3.521  27.656  49.503  1.00  0.00     0.037 A 
BRANCH  23  27
HETATM   27  C   UNL     1       0.633  28.314  47.106  1.00  0.00     0.156 C 
HETATM   28  C   UNL     1       0.564  29.483  46.156  1.00  0.00     0.097 C 
HETATM   29  O   UNL     1      -0.081  27.327  46.948  1.00  0.00    -0.293 OA
ENDBRANCH  23  27
ENDBRANCH   1  20
TORSDOF 6
ENDMDL
MODEL 10
REMARK VINA RESULT:      -8.8      8.043     12.120
REMARK  6 active torsions:
REMARK  status: ('A' for Active; 'I' for Inactive)
REMARK    1  A    between atoms: C_3  and  C_4 
REMARK    2  A    between atoms: C_9  and  N_10 
REMARK       I    between atoms: N_10  and  C_11 
REMARK       I    between atoms: C_11  and  N_12 
REMARK    3  A    between atoms: N_12  and  C_13 
REMARK    4  A    between atoms: C_13  and  C_14 
REMARK    5  A    between atoms: C_14  and  C_15 
REMARK    6  A    between atoms: N_17  and  C_18 
ROOT
HETATM    1  N   UNL     1       3.129  27.146  48.801  1.00  0.00    -0.309 N 
HETATM    2  C   UNL     1       4.419  26.873  48.447  1.00  0.00     0.320 C 
HETATM    3  N   UNL     1       5.216  26.338  49.412  1.00  0.00    -0.343 N 
HETATM    4  O   UNL     1       4.926  27.046  47.343  1.00  0.00    -0.247 OA
HETATM    5  H   UNL     1       2.878  26.979  49.758  1.00  0.00     0.170 HD
HETATM    6  H   UNL     1       6.135  26.129  49.039  1.00  0.00     0.164 HD
ENDROOT
BRANCH   3   7
HETATM    7  C   UNL     1       4.970  25.972  50.801  1.00  0.00     0.129 C 
BRANCH   7   8
HETATM    8  C   UNL     1       5.928  26.682  51.763  1.00  0.00     0.061 C 
BRANCH   8   9
HETATM    9  C   UNL     1       6.558  25.766  52.755  1.00  0.00    -0.020 A 
HETATM   10  C   UNL     1       6.744  24.401  52.661  1.00  0.00     0.127 A 
HETATM   11  N   UNL     1       7.345  23.975  53.827  1.00  0.00    -0.245 N 
HETATM   12  N   UNL     1       7.565  25.024  54.665  1.00  0.00    -0.180 NA
HETATM   13  C   UNL     1       7.087  26.085  54.020  1.00  0.00     0.148 A 
BRANCH  11  14
HETATM   14  C   UNL     1       7.706  22.649  54.197  1.00  0.00     0.058 A 
HETATM   15  C   UNL     1       8.060  21.696  53.232  1.00  0.00     0.031 A 
HETATM   16  C   UNL     1       8.397  20.396  53.624  1.00  0.00     0.002 A 
HETATM   17  C   UNL     1       8.385  20.042  54.971  1.00  0.00     0.000 A 
HETATM   18  C   UNL     1       8.038  20.985  55.935  1.00  0.00     0.002 A 
HETATM   19  C   UNL     1       7.700  22.286  55.552  1.00  0.00     0.031 A 
ENDBRANCH  11  14
ENDBRANCH   8   9
ENDBRANCH   7   8
ENDBRANCH   3   7
BRANCH   1  20
HETATM   20  C   UNL     1       2.095  27.647  47.983  1.00  0.00     0.036 A 
HETATM   21  C   UNL     1       1.300  26.857  47.156  1.00  0.00     0.030 A 
HETATM   22  C   UNL     1       0.291  27.436  46.377  1.00  0.00     0.018 A 
HETATM   23  C   UNL     1       0.050  28.816  46.424  1.00  0.00     0.015 A 
HETATM   24  C   UNL     1       0.836  29.629  47.262  1.00  0.00    -0.046 A 
HETATM   25  C   UNL     1       0.635  31.116  47.370  1.00  0.00     0.049 C 
HETATM   26  C   UNL     1       1.862  29.029  48.021  1.00  0.00     0.037 A 
BRANCH  23  27
HETATM   27  C   UNL     1      -1.028  29.390  45.564  1.00  0.00     0.156 C 
HETATM   28  C   UNL     1      -2.429  29.451  46.118  1.00  0.00     0.097 C 
HETATM   29  O   UNL     1      -0.781  29.780  44.426  1.00  0.00    -0.293 OA
ENDBRANCH  23  27
ENDBRANCH   1  20
TORSDOF 6
ENDMDL
