MODEL 1
REMARK VINA RESULT:      -8.1      0.000      0.000
REMARK  4 active torsions:
REMARK  status: ('A' for Active; 'I' for Inactive)
REMARK    1  A    between atoms: C_6  and  C_7 
REMARK    2  A    between atoms: C_7  and  N_8 
REMARK    3  A    between atoms: N_8  and  C_9 
REMARK    4  A    between atoms: C_9  and  C_10 
ROOT
HETATM    1  C   UNL     1       7.103  27.002  57.386  1.00  0.00     0.327 C 
ENDROOT
BRANCH   1   2
HETATM    2  N   UNL     1       7.890  25.914  56.783  1.00  0.00     0.097 N 
HETATM    3  H   UNL     1       8.815  26.284  56.541  1.00  0.00     0.317 HD
BRANCH   2   4
HETATM    4  C   UNL     1       7.312  25.441  55.506  1.00  0.00     0.252 C 
HETATM    5  C   UNL     1       5.789  25.565  55.449  1.00  0.00     0.048 C 
BRANCH   4   6
HETATM    6  C   UNL     1       7.774  24.021  55.338  1.00  0.00     0.006 A 
HETATM    7  C   UNL     1       7.991  23.303  54.171  1.00  0.00     0.058 A 
HETATM    8  O   UNL     1       8.393  22.034  54.459  1.00  0.00    -0.320 OA
HETATM    9  C   UNL     1       7.888  23.624  52.732  1.00  0.00     0.077 C 
HETATM   10  C   UNL     1       8.450  21.922  55.811  1.00  0.00     0.050 A 
HETATM   11  C   UNL     1       8.881  20.615  56.349  1.00  0.00     0.076 C 
HETATM   12  C   UNL     1       8.078  23.109  56.397  1.00  0.00     0.044 A 
ENDBRANCH   4   6
ENDBRANCH   2   4
ENDBRANCH   1   2
BRANCH   1  13
HETATM   13  C   UNL     1       8.000  28.210  57.594  1.00  0.00     0.044 A 
HETATM   14  N   UNL     1       7.616  29.053  58.621  1.00  0.00    -0.338 N 
HETATM   15  H   UNL     1       6.789  28.814  59.170  1.00  0.00     0.168 HD
HETATM   16  C   UNL     1       8.322  30.116  58.908  1.00  0.00     0.158 A 
HETATM   17  N   UNL     1       9.410  30.424  58.236  1.00  0.00    -0.269 N 
HETATM   18  S   UNL     1       7.936  31.230  60.183  1.00  0.00    -0.064 SA
HETATM   19  C   UNL     1       9.912  29.650  57.169  1.00  0.00     0.255 A 
HETATM   20  C   UNL     1      10.013  31.579  58.693  1.00  0.00     0.109 A 
HETATM   21  O   UNL     1      10.923  29.962  56.569  1.00  0.00    -0.268 OA
HETATM   22  C   UNL     1       9.104  28.454  56.875  1.00  0.00     0.101 A 
HETATM   23  C   UNL     1       9.362  32.139  59.724  1.00  0.00     0.071 A 
ENDBRANCH   1  13
TORSDOF 4
ENDMDL
MODEL 2
REMARK VINA RESULT:      -7.8      5.597      7.228
REMARK  4 active torsions:
REMARK  status: ('A' for Active; 'I' for Inactive)
REMARK    1  A    between atoms: C_6  and  C_7 
REMARK    2  A    between atoms: C_7  and  N_8 
REMARK    3  A    between atoms: N_8  and  C_9 
REMARK    4  A    between atoms: C_9  and  C_10 
ROOT
HETATM    1  C   UNL     1       4.920  26.074  53.237  1.00  0.00     0.327 C 
ENDROOT
BRANCH   1   2
HETATM    2  N   UNL     1       5.592  24.786  52.996  1.00  0.00     0.097 N 
HETATM    3  H   UNL     1       5.209  24.098  53.653  1.00  0.00     0.317 HD
BRANCH   2   4
HETATM    4  C   UNL     1       7.040  24.842  53.290  1.00  0.00     0.252 C 
HETATM    5  C   UNL     1       7.913  24.832  52.033  1.00  0.00     0.048 C 
BRANCH   4   6
HETATM    6  C   UNL     1       7.330  23.676  54.192  1.00  0.00     0.006 A 
HETATM    7  C   UNL     1       7.282  23.608  55.577  1.00  0.00     0.058 A 
HETATM    8  O   UNL     1       7.633  22.364  56.006  1.00  0.00    -0.320 OA
HETATM    9  C   UNL     1       6.931  24.570  56.642  1.00  0.00     0.077 C 
HETATM   10  C   UNL     1       7.901  21.614  54.906  1.00  0.00     0.050 A 
HETATM   11  C   UNL     1       8.296  20.210  55.142  1.00  0.00     0.076 C 
HETATM   12  C   UNL     1       7.734  22.371  53.769  1.00  0.00     0.044 A 
ENDBRANCH   4   6
ENDBRANCH   2   4
ENDBRANCH   1   2
BRANCH   1  13
HETATM   13  C   UNL     1       5.042  26.940  51.995  1.00  0.00     0.044 A 
HETATM   14  N   UNL     1       4.622  26.340  50.821  1.00  0.00    -0.338 N 
HETATM   15  H   UNL     1       4.254  25.389  50.859  1.00  0.00     0.168 HD
HETATM   16  C   UNL     1       4.660  26.995  49.689  1.00  0.00     0.158 A 
HETATM   17  N   UNL     1       5.099  28.234  49.623  1.00  0.00    -0.269 N 
HETATM   18  S   UNL     1       4.146  26.342  48.165  1.00  0.00    -0.064 SA
HETATM   19  C   UNL     1       5.553  28.960  50.744  1.00  0.00     0.255 A 
HETATM   20  C   UNL     1       5.057  28.749  48.343  1.00  0.00     0.109 A 
HETATM   21  O   UNL     1       5.950  30.106  50.648  1.00  0.00    -0.268 OA
HETATM   22  C   UNL     1       5.488  28.203  52.005  1.00  0.00     0.101 A 
HETATM   23  C   UNL     1       4.578  27.879  47.442  1.00  0.00     0.071 A 
ENDBRANCH   1  13
TORSDOF 4
ENDMDL
MODEL 3
REMARK VINA RESULT:      -7.8      2.570      3.260
REMARK  4 active torsions:
REMARK  status: ('A' for Active; 'I' for Inactive)
REMARK    1  A    between atoms: C_6  and  C_7 
REMARK    2  A    between atoms: C_7  and  N_8 
REMARK    3  A    between atoms: N_8  and  C_9 
REMARK    4  A    between atoms: C_9  and  C_10 
ROOT
HETATM    1  C   UNL     1       6.807  27.485  53.164  1.00  0.00     0.327 C 
ENDROOT
BRANCH   1   2
HETATM    2  N   UNL     1       7.555  26.219  53.103  1.00  0.00     0.097 N 
HETATM    3  H   UNL     1       8.314  26.329  52.421  1.00  0.00     0.317 HD
BRANCH   2   4
HETATM    4  C   UNL     1       6.732  25.101  52.595  1.00  0.00     0.252 C 
HETATM    5  C   UNL     1       5.229  25.378  52.660  1.00  0.00     0.048 C 
BRANCH   4   6
HETATM    6  C   UNL     1       7.122  23.894  53.402  1.00  0.00     0.006 A 
HETATM    7  C   UNL     1       7.037  23.693  54.773  1.00  0.00     0.058 A 
HETATM    8  O   UNL     1       7.513  22.461  55.104  1.00  0.00    -0.320 OA
HETATM    9  C   UNL     1       6.547  24.508  55.903  1.00  0.00     0.077 C 
HETATM   10  C   UNL     1       7.898  21.850  53.954  1.00  0.00     0.050 A 
HETATM   11  C   UNL     1       8.440  20.481  54.081  1.00  0.00     0.076 C 
HETATM   12  C   UNL     1       7.683  22.686  52.883  1.00  0.00     0.044 A 
ENDBRANCH   4   6
ENDBRANCH   2   4
ENDBRANCH   1   2
BRANCH   1  13
HETATM   13  C   UNL     1       7.034  28.135  54.517  1.00  0.00     0.044 A 
HETATM   14  N   UNL     1       8.329  28.563  54.749  1.00  0.00    -0.338 N 
HETATM   15  H   UNL     1       9.028  28.435  54.017  1.00  0.00     0.168 HD
HETATM   16  C   UNL     1       8.642  29.156  55.873  1.00  0.00     0.158 A 
HETATM   17  N   UNL     1       7.749  29.363  56.816  1.00  0.00    -0.269 N 
HETATM   18  S   UNL     1      10.230  29.742  56.258  1.00  0.00    -0.064 SA
HETATM   19  C   UNL     1       6.396  28.979  56.706  1.00  0.00     0.255 A 
HETATM   20  C   UNL     1       8.275  30.004  57.920  1.00  0.00     0.109 A 
HETATM   21  O   UNL     1       5.595  29.187  57.597  1.00  0.00    -0.268 OA
HETATM   22  C   UNL     1       6.070  28.324  55.428  1.00  0.00     0.101 A 
HETATM   23  C   UNL     1       9.581  30.281  57.794  1.00  0.00     0.071 A 
ENDBRANCH   1  13
TORSDOF 4
ENDMDL
MODEL 4
REMARK VINA RESULT:      -7.7      2.402      3.046
REMARK  4 active torsions:
REMARK  status: ('A' for Active; 'I' for Inactive)
REMARK    1  A    between atoms: C_6  and  C_7 
REMARK    2  A    between atoms: C_7  and  N_8 
REMARK    3  A    between atoms: N_8  and  C_9 
REMARK    4  A    between atoms: C_9  and  C_10 
ROOT
HETATM    1  C   UNL     1       5.388  25.562  56.554  1.00  0.00     0.327 C 
ENDROOT
BRANCH   1   2
HETATM    2  N   UNL     1       5.424  25.473  55.085  1.00  0.00     0.097 N 
HETATM    3  H   UNL     1       5.142  24.524  54.815  1.00  0.00     0.317 HD
BRANCH   2   4
HETATM    4  C   UNL     1       6.789  25.644  54.542  1.00  0.00     0.252 C 
HETATM    5  C   UNL     1       6.818  26.375  53.199  1.00  0.00     0.048 C 
BRANCH   4   6
HETATM    6  C   UNL     1       7.379  24.264  54.451  1.00  0.00     0.006 A 
HETATM    7  C   UNL     1       8.207  23.606  55.348  1.00  0.00     0.058 A 
HETATM    8  O   UNL     1       8.531  22.369  54.879  1.00  0.00    -0.320 OA
HETATM    9  C   UNL     1       8.782  23.955  56.664  1.00  0.00     0.077 C 
HETATM   10  C   UNL     1       7.908  22.211  53.683  1.00  0.00     0.050 A 
HETATM   11  C   UNL     1       8.115  20.921  52.994  1.00  0.00     0.076 C 
HETATM   12  C   UNL     1       7.192  23.344  53.373  1.00  0.00     0.044 A 
ENDBRANCH   4   6
ENDBRANCH   2   4
ENDBRANCH   1   2
BRANCH   1  13
HETATM   13  C   UNL     1       5.844  26.946  56.981  1.00  0.00     0.044 A 
HETATM   14  N   UNL     1       4.879  27.932  56.893  1.00  0.00    -0.338 N 
HETATM   15  H   UNL     1       3.944  27.679  56.571  1.00  0.00     0.168 HD
HETATM   16  C   UNL     1       5.149  29.161  57.253  1.00  0.00     0.158 A 
HETATM   17  N   UNL     1       6.337  29.503  57.703  1.00  0.00    -0.269 N 
HETATM   18  S   UNL     1       4.008  30.469  57.194  1.00  0.00    -0.064 SA
HETATM   19  C   UNL     1       7.407  28.596  57.845  1.00  0.00     0.255 A 
HETATM   20  C   UNL     1       6.419  30.842  58.032  1.00  0.00     0.109 A 
HETATM   21  O   UNL     1       8.493  28.945  58.267  1.00  0.00    -0.268 OA
HETATM   22  C   UNL     1       7.072  27.219  57.443  1.00  0.00     0.101 A 
HETATM   23  C   UNL     1       5.273  31.506  57.823  1.00  0.00     0.071 A 
ENDBRANCH   1  13
TORSDOF 4
ENDMDL
MODEL 5
REMARK VINA RESULT:      -7.5      5.962      7.982
REMARK  4 active torsions:
REMARK  status: ('A' for Active; 'I' for Inactive)
REMARK    1  A    between atoms: C_6  and  C_7 
REMARK    2  A    between atoms: C_7  and  N_8 
REMARK    3  A    between atoms: N_8  and  C_9 
REMARK    4  A    between atoms: C_9  and  C_10 
ROOT
HETATM    1  C   UNL     1       5.116  25.555  51.280  1.00  0.00     0.327 C 
ENDROOT
BRANCH   1   2
HETATM    2  N   UNL     1       6.546  25.637  51.620  1.00  0.00     0.097 N 
HETATM    3  H   UNL     1       7.001  24.775  51.300  1.00  0.00     0.317 HD
BRANCH   2   4
HETATM    4  C   UNL     1       6.777  25.684  53.079  1.00  0.00     0.252 C 
HETATM    5  C   UNL     1       7.821  26.722  53.495  1.00  0.00     0.048 C 
BRANCH   4   6
HETATM    6  C   UNL     1       7.169  24.290  53.486  1.00  0.00     0.006 A 
HETATM    7  C   UNL     1       7.160  23.711  54.746  1.00  0.00     0.058 A 
HETATM    8  O   UNL     1       7.607  22.427  54.684  1.00  0.00    -0.320 OA
HETATM    9  C   UNL     1       6.770  24.182  56.092  1.00  0.00     0.077 C 
HETATM   10  C   UNL     1       7.898  22.159  53.385  1.00  0.00     0.050 A 
HETATM   11  C   UNL     1       8.395  20.800  53.084  1.00  0.00     0.076 C 
HETATM   12  C   UNL     1       7.651  23.268  52.610  1.00  0.00     0.044 A 
ENDBRANCH   4   6
ENDBRANCH   2   4
ENDBRANCH   1   2
BRANCH   1  13
HETATM   13  C   UNL     1       4.823  26.496  50.125  1.00  0.00     0.044 A 
HETATM   14  N   UNL     1       5.229  27.804  50.320  1.00  0.00    -0.338 N 
HETATM   15  H   UNL     1       5.699  28.049  51.192  1.00  0.00     0.168 HD
HETATM   16  C   UNL     1       5.048  28.703  49.387  1.00  0.00     0.158 A 
HETATM   17  N   UNL     1       4.475  28.403  48.241  1.00  0.00    -0.269 N 
HETATM   18  S   UNL     1       5.530  30.365  49.525  1.00  0.00    -0.064 SA
HETATM   19  C   UNL     1       4.018  27.109  47.914  1.00  0.00     0.255 A 
HETATM   20  C   UNL     1       4.379  29.486  47.390  1.00  0.00     0.109 A 
HETATM   21  O   UNL     1       3.495  26.864  46.844  1.00  0.00    -0.268 OA
HETATM   22  C   UNL     1       4.245  26.116  48.978  1.00  0.00     0.101 A 
HETATM   23  C   UNL     1       4.891  30.611  47.912  1.00  0.00     0.071 A 
ENDBRANCH   1  13
TORSDOF 4
ENDMDL
MODEL 6
REMARK VINA RESULT:      -7.5      3.974      9.269
REMARK  4 active torsions:
REMARK  status: ('A' for Active; 'I' for Inactive)
REMARK    1  A    between atoms: C_6  and  C_7 
REMARK    2  A    between atoms: C_7  and  N_8 
REMARK    3  A    between atoms: N_8  and  C_9 
REMARK    4  A    between atoms: C_9  and  C_10 
ROOT
HETATM    1  C   UNL     1       6.761  31.769  59.305  1.00  0.00     0.327 C 
ENDROOT
BRANCH   1   2
HETATM    2  N   UNL     1       7.025  31.512  60.730  1.00  0.00     0.097 N 
HETATM    3  H   UNL     1       6.159  31.685  61.252  1.00  0.00     0.317 HD
BRANCH   2   4
HETATM    4  C   UNL     1       8.017  32.450  61.298  1.00  0.00     0.252 C 
HETATM    5  C   UNL     1       9.359  31.789  61.621  1.00  0.00     0.048 C 
BRANCH   4   6
HETATM    6  C   UNL     1       7.374  33.053  62.515  1.00  0.00     0.006 A 
HETATM    7  C   UNL     1       6.252  33.865  62.600  1.00  0.00     0.058 A 
HETATM    8  O   UNL     1       6.010  34.211  63.894  1.00  0.00    -0.320 OA
HETATM    9  C   UNL     1       5.296  34.405  61.611  1.00  0.00     0.077 C 
HETATM   10  C   UNL     1       6.963  33.618  64.659  1.00  0.00     0.050 A 
HETATM   11  C   UNL     1       6.883  33.852  66.116  1.00  0.00     0.076 C 
HETATM   12  C   UNL     1       7.825  32.900  63.863  1.00  0.00     0.044 A 
ENDBRANCH   4   6
ENDBRANCH   2   4
ENDBRANCH   1   2
BRANCH   1  13
HETATM   13  C   UNL     1       7.213  30.571  58.489  1.00  0.00     0.044 A 
HETATM   14  N   UNL     1       6.194  29.745  58.051  1.00  0.00    -0.338 N 
HETATM   15  H   UNL     1       5.230  29.989  58.281  1.00  0.00     0.168 HD
HETATM   16  C   UNL     1       6.458  28.691  57.321  1.00  0.00     0.158 A 
HETATM   17  N   UNL     1       7.691  28.377  56.984  1.00  0.00    -0.269 N 
HETATM   18  S   UNL     1       5.255  27.599  56.711  1.00  0.00    -0.064 SA
HETATM   19  C   UNL     1       8.819  29.135  57.363  1.00  0.00     0.255 A 
HETATM   20  C   UNL     1       7.760  27.235  56.213  1.00  0.00     0.109 A 
HETATM   21  O   UNL     1       9.945  28.818  57.031  1.00  0.00    -0.268 OA
HETATM   22  C   UNL     1       8.490  30.320  58.172  1.00  0.00     0.101 A 
HETATM   23  C   UNL     1       6.558  26.690  55.971  1.00  0.00     0.071 A 
ENDBRANCH   1  13
TORSDOF 4
ENDMDL
MODEL 7
REMARK VINA RESULT:      -7.3      4.946     10.015
REMARK  4 active torsions:
REMARK  status: ('A' for Active; 'I' for Inactive)
REMARK    1  A    between atoms: C_6  and  C_7 
REMARK    2  A    between atoms: C_7  and  N_8 
REMARK    3  A    between atoms: N_8  and  C_9 
REMARK    4  A    between atoms: C_9  and  C_10 
ROOT
HETATM    1  C   UNL     1       6.039  32.383  60.444  1.00  0.00     0.327 C 
ENDROOT
BRANCH   1   2
HETATM    2  N   UNL     1       6.160  32.037  61.869  1.00  0.00     0.097 N 
HETATM    3  H   UNL     1       5.220  32.041  62.280  1.00  0.00     0.317 HD
BRANCH   2   4
HETATM    4  C   UNL     1       6.923  33.048  62.632  1.00  0.00     0.252 C 
HETATM    5  C   UNL     1       8.099  32.458  63.412  1.00  0.00     0.048 C 
BRANCH   4   6
HETATM    6  C   UNL     1       5.930  33.731  63.531  1.00  0.00     0.006 A 
HETATM    7  C   UNL     1       5.068  34.780  63.245  1.00  0.00     0.058 A 
HETATM    8  O   UNL     1       4.342  35.115  64.348  1.00  0.00    -0.320 OA
HETATM    9  C   UNL     1       4.780  35.574  62.032  1.00  0.00     0.077 C 
HETATM   10  C   UNL     1       4.718  34.280  65.351  1.00  0.00     0.050 A 
HETATM   11  C   UNL     1       4.040  34.461  66.651  1.00  0.00     0.076 C 
HETATM   12  C   UNL     1       5.691  33.416  64.905  1.00  0.00     0.044 A 
ENDBRANCH   4   6
ENDBRANCH   2   4
ENDBRANCH   1   2
BRANCH   1  13
HETATM   13  C   UNL     1       7.177  31.734  59.675  1.00  0.00     0.044 A 
HETATM   14  N   UNL     1       6.864  30.529  59.074  1.00  0.00    -0.338 N 
HETATM   15  H   UNL     1       5.915  30.164  59.167  1.00  0.00     0.168 HD
HETATM   16  C   UNL     1       7.758  29.885  58.368  1.00  0.00     0.158 A 
HETATM   17  N   UNL     1       8.977  30.353  58.206  1.00  0.00    -0.269 N 
HETATM   18  S   UNL     1       7.465  28.375  57.564  1.00  0.00    -0.064 SA
HETATM   19  C   UNL     1       9.425  31.570  58.762  1.00  0.00     0.255 A 
HETATM   20  C   UNL     1       9.767  29.532  57.427  1.00  0.00     0.109 A 
HETATM   21  O   UNL     1      10.558  31.975  58.591  1.00  0.00    -0.268 OA
HETATM   22  C   UNL     1       8.395  32.277  59.542  1.00  0.00     0.101 A 
HETATM   23  C   UNL     1       9.124  28.435  57.001  1.00  0.00     0.071 A 
ENDBRANCH   1  13
TORSDOF 4
ENDMDL
MODEL 8
REMARK VINA RESULT:      -7.3      2.246      2.578
REMARK  4 active torsions:
REMARK  status: ('A' for Active; 'I' for Inactive)
REMARK    1  A    between atoms: C_6  and  C_7 
REMARK    2  A    between atoms: C_7  and  N_8 
REMARK    3  A    between atoms: N_8  and  C_9 
REMARK    4  A    between atoms: C_9  and  C_10 
ROOT
HETATM    1  C   UNL     1       7.530  27.878  55.427  1.00  0.00     0.327 C 
ENDROOT
BRANCH   1   2
HETATM    2  N   UNL     1       7.528  26.517  55.988  1.00  0.00     0.097 N 
HETATM    3  H   UNL     1       8.273  25.982  55.530  1.00  0.00     0.317 HD
BRANCH   2   4
HETATM    4  C   UNL     1       6.279  25.786  55.687  1.00  0.00     0.252 C 
HETATM    5  C   UNL     1       5.575  25.251  56.935  1.00  0.00     0.048 C 
BRANCH   4   6
HETATM    6  C   UNL     1       6.657  24.686  54.734  1.00  0.00     0.006 A 
HETATM    7  C   UNL     1       6.159  24.417  53.467  1.00  0.00     0.058 A 
HETATM    8  O   UNL     1       6.761  23.315  52.942  1.00  0.00    -0.320 OA
HETATM    9  C   UNL     1       5.153  25.063  52.599  1.00  0.00     0.077 C 
HETATM   10  C   UNL     1       7.661  22.868  53.857  1.00  0.00     0.050 A 
HETATM   11  C   UNL     1       8.445  21.672  53.484  1.00  0.00     0.076 C 
HETATM   12  C   UNL     1       7.633  23.670  54.974  1.00  0.00     0.044 A 
ENDBRANCH   4   6
ENDBRANCH   2   4
ENDBRANCH   1   2
BRANCH   1  13
HETATM   13  C   UNL     1       7.432  28.885  56.560  1.00  0.00     0.044 A 
HETATM   14  N   UNL     1       6.459  29.854  56.398  1.00  0.00    -0.338 N 
HETATM   15  H   UNL     1       5.874  29.829  55.562  1.00  0.00     0.168 HD
HETATM   16  C   UNL     1       6.266  30.764  57.318  1.00  0.00     0.158 A 
HETATM   17  N   UNL     1       6.986  30.795  58.419  1.00  0.00    -0.269 N 
HETATM   18  S   UNL     1       5.067  32.015  57.219  1.00  0.00    -0.064 SA
HETATM   19  C   UNL     1       8.006  29.865  58.709  1.00  0.00     0.255 A 
HETATM   20  C   UNL     1       6.628  31.827  59.264  1.00  0.00     0.109 A 
HETATM   21  O   UNL     1       8.651  29.921  59.739  1.00  0.00    -0.268 OA
HETATM   22  C   UNL     1       8.192  28.846  57.662  1.00  0.00     0.101 A 
HETATM   23  C   UNL     1       5.625  32.576  58.783  1.00  0.00     0.071 A 
ENDBRANCH   1  13
TORSDOF 4
ENDMDL
MODEL 9
REMARK VINA RESULT:      -7.2      4.969      6.421
REMARK  4 active torsions:
REMARK  status: ('A' for Active; 'I' for Inactive)
REMARK    1  A    between atoms: C_6  and  C_7 
REMARK    2  A    between atoms: C_7  and  N_8 
REMARK    3  A    between atoms: N_8  and  C_9 
REMARK    4  A    between atoms: C_9  and  C_10 
ROOT
HETATM    1  C   UNL     1       5.508  26.708  55.037  1.00  0.00     0.327 C 
ENDROOT
BRANCH   1   2
HETATM    2  N   UNL     1       5.499  25.256  54.796  1.00  0.00     0.097 N 
HETATM    3  H   UNL     1       4.643  24.869  55.208  1.00  0.00     0.317 HD
BRANCH   2   4
HETATM    4  C   UNL     1       6.611  24.564  55.482  1.00  0.00     0.252 C 
HETATM    5  C   UNL     1       7.631  25.522  56.099  1.00  0.00     0.048 C 
BRANCH   4   6
HETATM    6  C   UNL     1       7.232  23.654  54.460  1.00  0.00     0.006 A 
HETATM    7  C   UNL     1       7.769  23.968  53.220  1.00  0.00     0.058 A 
HETATM    8  O   UNL     1       8.217  22.844  52.595  1.00  0.00    -0.320 OA
HETATM    9  C   UNL     1       7.956  25.227  52.469  1.00  0.00     0.077 C 
HETATM   10  C   UNL     1       7.985  21.796  53.427  1.00  0.00     0.050 A 
HETATM   11  C   UNL     1       8.410  20.464  52.948  1.00  0.00     0.076 C 
HETATM   12  C   UNL     1       7.380  22.237  54.581  1.00  0.00     0.044 A 
ENDBRANCH   4   6
ENDBRANCH   2   4
ENDBRANCH   1   2
BRANCH   1  13
HETATM   13  C   UNL     1       4.918  27.418  53.831  1.00  0.00     0.044 A 
HETATM   14  N   UNL     1       5.110  26.774  52.622  1.00  0.00    -0.338 N 
HETATM   15  H   UNL     1       5.608  25.883  52.613  1.00  0.00     0.168 HD
HETATM   16  C   UNL     1       4.630  27.279  51.515  1.00  0.00     0.158 A 
HETATM   17  N   UNL     1       3.956  28.409  51.508  1.00  0.00    -0.269 N 
HETATM   18  S   UNL     1       4.804  26.546  49.951  1.00  0.00    -0.064 SA
HETATM   19  C   UNL     1       3.687  29.163  52.669  1.00  0.00     0.255 A 
HETATM   20  C   UNL     1       3.531  28.771  50.245  1.00  0.00     0.109 A 
HETATM   21  O   UNL     1       3.058  30.203  52.628  1.00  0.00    -0.268 OA
HETATM   22  C   UNL     1       4.230  28.565  53.901  1.00  0.00     0.101 A 
HETATM   23  C   UNL     1       3.895  27.895  49.297  1.00  0.00     0.071 A 
ENDBRANCH   1  13
TORSDOF 4
ENDMDL
MODEL 10
REMARK VINA RESULT:      -7.1      2.890      7.349
REMARK  4 active torsions:
REMARK  status: ('A' for Active; 'I' for Inactive)
REMARK    1  A    between atoms: C_6  and  C_7 
REMARK    2  A    between atoms: C_7  and  N_8 
REMARK    3  A    between atoms: N_8  and  C_9 
REMARK    4  A    between atoms: C_9  and  C_10 
ROOT
HETATM    1  C   UNL     1       5.750  26.285  56.336  1.00  0.00     0.327 C 
ENDROOT
BRANCH   1   2
HETATM    2  N   UNL     1       6.589  27.010  57.304  1.00  0.00     0.097 N 
HETATM    3  H   UNL     1       6.362  26.667  58.243  1.00  0.00     0.317 HD
BRANCH   2   4
HETATM    4  C   UNL     1       6.294  28.458  57.334  1.00  0.00     0.252 C 
HETATM    5  C   UNL     1       5.538  28.947  56.097  1.00  0.00     0.048 C 
BRANCH   4   6
HETATM    6  C   UNL     1       7.616  29.152  57.502  1.00  0.00     0.006 A 
HETATM    7  C   UNL     1       7.906  30.334  58.169  1.00  0.00     0.058 A 
HETATM    8  O   UNL     1       9.233  30.624  58.071  1.00  0.00    -0.320 OA
HETATM    9  C   UNL     1       7.101  31.302  58.943  1.00  0.00     0.077 C 
HETATM   10  C   UNL     1       9.815  29.630  57.352  1.00  0.00     0.050 A 
HETATM   11  C   UNL     1      11.272  29.738  57.132  1.00  0.00     0.076 C 
HETATM   12  C   UNL     1       8.868  28.705  56.976  1.00  0.00     0.044 A 
ENDBRANCH   4   6
ENDBRANCH   2   4
ENDBRANCH   1   2
BRANCH   1  13
HETATM   13  C   UNL     1       6.617  25.318  55.549  1.00  0.00     0.044 A 
HETATM   14  N   UNL     1       7.034  24.203  56.252  1.00  0.00    -0.338 N 
HETATM   15  H   UNL     1       6.733  24.091  57.221  1.00  0.00     0.168 HD
HETATM   16  C   UNL     1       7.769  23.288  55.674  1.00  0.00     0.158 A 
HETATM   17  N   UNL     1       8.140  23.394  54.416  1.00  0.00    -0.269 N 
HETATM   18  S   UNL     1       8.334  21.847  56.461  1.00  0.00    -0.064 SA
HETATM   19  C   UNL     1       7.782  24.478  53.587  1.00  0.00     0.255 A 
HETATM   20  C   UNL     1       8.907  22.328  53.992  1.00  0.00     0.109 A 
HETATM   21  O   UNL     1       8.139  24.544  52.427  1.00  0.00    -0.268 OA
HETATM   22  C   UNL     1       6.945  25.486  54.261  1.00  0.00     0.101 A 
HETATM   23  C   UNL     1       9.109  21.412  54.951  1.00  0.00     0.071 A 
ENDBRANCH   1  13
TORSDOF 4
ENDMDL
