MODEL 1
REMARK VINA RESULT:     -10.6      0.000      0.000
REMARK  5 active torsions:
REMARK  status: ('A' for Active; 'I' for Inactive)
REMARK    1  A    between atoms: C_2  and  C_3 
REMARK    2  A    between atoms: C_8  and  N_9 
REMARK       I    between atoms: N_9  and  C_10 
REMARK       I    between atoms: C_10  and  N_11 
REMARK    3  A    between atoms: N_11  and  C_12 
REMARK    4  A    between atoms: C_12  and  C_13 
REMARK    5  A    between atoms: C_13  and  C_14 
ROOT
HETATM    1  N   UNL     1       8.122  29.108  58.317  1.00  0.00    -0.305 N 
HETATM    2  C   UNL     1       7.743  28.435  57.182  1.00  0.00     0.320 C 
HETATM    3  N   UNL     1       6.930  27.361  57.488  1.00  0.00    -0.343 N 
HETATM    4  O   UNL     1       8.026  28.724  56.028  1.00  0.00    -0.247 OA
HETATM    5  H   UNL     1       7.675  28.819  59.171  1.00  0.00     0.171 HD
HETATM    6  H   UNL     1       7.037  26.929  58.394  1.00  0.00     0.164 HD
ENDROOT
BRANCH   3   7
HETATM    7  C   UNL     1       6.397  26.513  56.432  1.00  0.00     0.129 C 
BRANCH   7   8
HETATM    8  C   UNL     1       7.017  25.111  56.421  1.00  0.00     0.059 C 
BRANCH   8   9
HETATM    9  C   UNL     1       7.328  24.627  55.014  1.00  0.00    -0.045 A 
HETATM   10  C   UNL     1       7.587  23.258  54.716  1.00  0.00    -0.020 A 
HETATM   11  C   UNL     1       7.895  22.899  53.379  1.00  0.00    -0.025 A 
HETATM   12  C   UNL     1       7.553  22.219  55.677  1.00  0.00     0.013 A 
HETATM   13  C   UNL     1       8.154  21.557  53.051  1.00  0.00     0.012 A 
HETATM   14  C   UNL     1       7.937  23.883  52.381  1.00  0.00     0.012 A 
HETATM   15  C   UNL     1       8.115  20.559  54.022  1.00  0.00     0.001 A 
HETATM   16  C   UNL     1       7.814  20.889  55.335  1.00  0.00     0.001 A 
HETATM   17  C   UNL     1       7.679  25.218  52.682  1.00  0.00     0.001 A 
HETATM   18  C   UNL     1       7.378  25.588  53.988  1.00  0.00     0.008 A 
ENDBRANCH   8   9
ENDBRANCH   7   8
ENDBRANCH   3   7
BRANCH   1  19
HETATM   19  C   UNL     1       8.912  30.249  58.387  1.00  0.00     0.095 A 
HETATM   20  C   UNL     1       8.505  31.399  59.039  1.00  0.00     0.107 A 
HETATM   21  O   UNL     1       9.468  32.349  58.933  1.00  0.00    -0.215 OA
HETATM   22  N   UNL     1      10.534  31.849  58.226  1.00  0.00    -0.131 NA
HETATM   23  C   UNL     1      10.209  30.590  57.897  1.00  0.00     0.087 A 
HETATM   24  C   UNL     1      11.203  29.802  57.130  1.00  0.00     0.075 C 
BRANCH  20  25
HETATM   25  C   UNL     1       7.294  31.810  59.790  1.00  0.00     0.065 C 
HETATM   26  C   UNL     1       7.652  32.585  61.047  1.00  0.00     0.012 C 
ENDBRANCH  20  25
ENDBRANCH   1  19
TORSDOF 5
ENDMDL
MODEL 2
REMARK VINA RESULT:     -10.3      0.653      2.158
REMARK  5 active torsions:
REMARK  status: ('A' for Active; 'I' for Inactive)
REMARK    1  A    between atoms: C_2  and  C_3 
REMARK    2  A    between atoms: C_8  and  N_9 
REMARK       I    between atoms: N_9  and  C_10 
REMARK       I    between atoms: C_10  and  N_11 
REMARK    3  A    between atoms: N_11  and  C_12 
REMARK    4  A    between atoms: C_12  and  C_13 
REMARK    5  A    between atoms: C_13  and  C_14 
ROOT
HETATM    1  N   UNL     1       8.183  29.102  58.509  1.00  0.00    -0.305 N 
HETATM    2  C   UNL     1       7.456  28.615  57.450  1.00  0.00     0.320 C 
HETATM    3  N   UNL     1       7.132  27.286  57.638  1.00  0.00    -0.343 N 
HETATM    4  O   UNL     1       7.085  29.239  56.467  1.00  0.00    -0.247 OA
HETATM    5  H   UNL     1       8.271  28.488  59.302  1.00  0.00     0.171 HD
HETATM    6  H   UNL     1       7.747  26.725  58.210  1.00  0.00     0.164 HD
ENDROOT
BRANCH   3   7
HETATM    7  C   UNL     1       6.348  26.568  56.644  1.00  0.00     0.129 C 
BRANCH   7   8
HETATM    8  C   UNL     1       6.742  25.092  56.522  1.00  0.00     0.059 C 
BRANCH   8   9
HETATM    9  C   UNL     1       7.111  24.706  55.100  1.00  0.00    -0.045 A 
HETATM   10  C   UNL     1       7.460  23.374  54.734  1.00  0.00    -0.020 A 
HETATM   11  C   UNL     1       7.816  23.108  53.387  1.00  0.00    -0.025 A 
HETATM   12  C   UNL     1       7.470  22.283  55.636  1.00  0.00     0.013 A 
HETATM   13  C   UNL     1       8.164  21.805  52.993  1.00  0.00     0.012 A 
HETATM   14  C   UNL     1       7.817  24.147  52.446  1.00  0.00     0.012 A 
HETATM   15  C   UNL     1       8.167  20.754  53.908  1.00  0.00     0.001 A 
HETATM   16  C   UNL     1       7.820  20.993  55.229  1.00  0.00     0.001 A 
HETATM   17  C   UNL     1       7.471  25.446  52.812  1.00  0.00     0.001 A 
HETATM   18  C   UNL     1       7.122  25.724  54.128  1.00  0.00     0.008 A 
ENDBRANCH   8   9
ENDBRANCH   7   8
ENDBRANCH   3   7
BRANCH   1  19
HETATM   19  C   UNL     1       8.654  30.398  58.673  1.00  0.00     0.095 A 
HETATM   20  C   UNL     1       9.866  30.822  58.160  1.00  0.00     0.107 A 
HETATM   21  O   UNL     1      10.070  32.124  58.486  1.00  0.00    -0.215 OA
HETATM   22  N   UNL     1       8.998  32.594  59.205  1.00  0.00    -0.131 NA
HETATM   23  C   UNL     1       8.144  31.565  59.320  1.00  0.00     0.087 A 
HETATM   24  C   UNL     1       6.877  31.803  60.051  1.00  0.00     0.075 C 
BRANCH  20  25
HETATM   25  C   UNL     1      10.953  30.193  57.371  1.00  0.00     0.065 C 
HETATM   26  C   UNL     1      10.473  29.772  55.993  1.00  0.00     0.012 C 
ENDBRANCH  20  25
ENDBRANCH   1  19
TORSDOF 5
ENDMDL
MODEL 3
REMARK VINA RESULT:      -9.6      1.347      2.260
REMARK  5 active torsions:
REMARK  status: ('A' for Active; 'I' for Inactive)
REMARK    1  A    between atoms: C_2  and  C_3 
REMARK    2  A    between atoms: C_8  and  N_9 
REMARK       I    between atoms: N_9  and  C_10 
REMARK       I    between atoms: C_10  and  N_11 
REMARK    3  A    between atoms: N_11  and  C_12 
REMARK    4  A    between atoms: C_12  and  C_13 
REMARK    5  A    between atoms: C_13  and  C_14 
ROOT
HETATM    1  N   UNL     1       7.545  29.647  58.604  1.00  0.00    -0.305 N 
HETATM    2  C   UNL     1       6.990  29.198  57.431  1.00  0.00     0.320 C 
HETATM    3  N   UNL     1       6.129  28.142  57.658  1.00  0.00    -0.343 N 
HETATM    4  O   UNL     1       7.170  29.657  56.312  1.00  0.00    -0.247 OA
HETATM    5  H   UNL     1       7.170  29.248  59.449  1.00  0.00     0.171 HD
HETATM    6  H   UNL     1       6.297  27.560  58.465  1.00  0.00     0.164 HD
ENDROOT
BRANCH   3   7
HETATM    7  C   UNL     1       5.417  27.518  56.553  1.00  0.00     0.129 C 
BRANCH   7   8
HETATM    8  C   UNL     1       5.236  26.007  56.736  1.00  0.00     0.059 C 
BRANCH   8   9
HETATM    9  C   UNL     1       6.505  25.231  56.427  1.00  0.00    -0.045 A 
HETATM   10  C   UNL     1       6.777  24.692  55.136  1.00  0.00    -0.020 A 
HETATM   11  C   UNL     1       7.975  23.958  54.943  1.00  0.00    -0.025 A 
HETATM   12  C   UNL     1       5.922  24.847  54.018  1.00  0.00     0.013 A 
HETATM   13  C   UNL     1       8.274  23.415  53.681  1.00  0.00     0.012 A 
HETATM   14  C   UNL     1       8.865  23.777  56.011  1.00  0.00     0.012 A 
HETATM   15  C   UNL     1       7.409  23.584  52.603  1.00  0.00     0.001 A 
HETATM   16  C   UNL     1       6.234  24.300  52.770  1.00  0.00     0.001 A 
HETATM   17  C   UNL     1       8.592  24.310  57.269  1.00  0.00     0.001 A 
HETATM   18  C   UNL     1       7.421  25.030  57.476  1.00  0.00     0.008 A 
ENDBRANCH   8   9
ENDBRANCH   7   8
ENDBRANCH   3   7
BRANCH   1  19
HETATM   19  C   UNL     1       8.429  30.707  58.759  1.00  0.00     0.095 A 
HETATM   20  C   UNL     1       8.144  31.807  59.547  1.00  0.00     0.107 A 
HETATM   21  O   UNL     1       9.179  32.684  59.499  1.00  0.00    -0.215 OA
HETATM   22  N   UNL     1      10.172  32.182  58.694  1.00  0.00    -0.131 NA
HETATM   23  C   UNL     1       9.731  30.996  58.248  1.00  0.00     0.087 A 
HETATM   24  C   UNL     1      10.626  30.221  57.356  1.00  0.00     0.075 C 
BRANCH  20  25
HETATM   25  C   UNL     1       7.001  32.228  60.393  1.00  0.00     0.065 C 
HETATM   26  C   UNL     1       7.468  32.952  61.645  1.00  0.00     0.012 C 
ENDBRANCH  20  25
ENDBRANCH   1  19
TORSDOF 5
ENDMDL
MODEL 4
REMARK VINA RESULT:      -9.4      1.760      2.131
REMARK  5 active torsions:
REMARK  status: ('A' for Active; 'I' for Inactive)
REMARK    1  A    between atoms: C_2  and  C_3 
REMARK    2  A    between atoms: C_8  and  N_9 
REMARK       I    between atoms: N_9  and  C_10 
REMARK       I    between atoms: C_10  and  N_11 
REMARK    3  A    between atoms: N_11  and  C_12 
REMARK    4  A    between atoms: C_12  and  C_13 
REMARK    5  A    between atoms: C_13  and  C_14 
ROOT
HETATM    1  N   UNL     1       7.374  29.165  57.769  1.00  0.00    -0.305 N 
HETATM    2  C   UNL     1       6.494  28.149  57.487  1.00  0.00     0.320 C 
HETATM    3  N   UNL     1       7.161  26.967  57.235  1.00  0.00    -0.343 N 
HETATM    4  O   UNL     1       5.273  28.217  57.482  1.00  0.00    -0.247 OA
HETATM    5  H   UNL     1       8.339  28.896  57.874  1.00  0.00     0.171 HD
HETATM    6  H   UNL     1       8.100  27.023  56.867  1.00  0.00     0.164 HD
ENDROOT
BRANCH   3   7
HETATM    7  C   UNL     1       6.423  25.752  56.927  1.00  0.00     0.129 C 
BRANCH   7   8
HETATM    8  C   UNL     1       7.326  24.522  56.785  1.00  0.00     0.059 C 
BRANCH   8   9
HETATM    9  C   UNL     1       7.504  24.098  55.337  1.00  0.00    -0.045 A 
HETATM   10  C   UNL     1       7.808  22.756  54.965  1.00  0.00    -0.020 A 
HETATM   11  C   UNL     1       7.983  22.453  53.590  1.00  0.00    -0.025 A 
HETATM   12  C   UNL     1       7.944  21.691  55.887  1.00  0.00     0.013 A 
HETATM   13  C   UNL     1       8.283  21.140  53.189  1.00  0.00     0.012 A 
HETATM   14  C   UNL     1       7.854  23.466  52.629  1.00  0.00     0.012 A 
HETATM   15  C   UNL     1       8.412  20.115  54.124  1.00  0.00     0.001 A 
HETATM   16  C   UNL     1       8.243  20.390  55.473  1.00  0.00     0.001 A 
HETATM   17  C   UNL     1       7.553  24.773  53.002  1.00  0.00     0.001 A 
HETATM   18  C   UNL     1       7.381  25.088  54.345  1.00  0.00     0.008 A 
ENDBRANCH   8   9
ENDBRANCH   7   8
ENDBRANCH   3   7
BRANCH   1  19
HETATM   19  C   UNL     1       7.058  30.477  58.097  1.00  0.00     0.095 A 
HETATM   20  C   UNL     1       7.629  31.136  59.171  1.00  0.00     0.107 A 
HETATM   21  O   UNL     1       7.125  32.393  59.257  1.00  0.00    -0.215 OA
HETATM   22  N   UNL     1       6.224  32.600  58.240  1.00  0.00    -0.131 NA
HETATM   23  C   UNL     1       6.181  31.456  57.539  1.00  0.00     0.087 A 
HETATM   24  C   UNL     1       5.284  31.407  56.361  1.00  0.00     0.075 C 
BRANCH  20  25
HETATM   25  C   UNL     1       8.625  30.785  60.212  1.00  0.00     0.065 C 
HETATM   26  C   UNL     1       9.473  31.983  60.602  1.00  0.00     0.012 C 
ENDBRANCH  20  25
ENDBRANCH   1  19
TORSDOF 5
ENDMDL
MODEL 5
REMARK VINA RESULT:      -9.3      1.827      2.205
REMARK  5 active torsions:
REMARK  status: ('A' for Active; 'I' for Inactive)
REMARK    1  A    between atoms: C_2  and  C_3 
REMARK    2  A    between atoms: C_8  and  N_9 
REMARK       I    between atoms: N_9  and  C_10 
REMARK       I    between atoms: C_10  and  N_11 
REMARK    3  A    between atoms: N_11  and  C_12 
REMARK    4  A    between atoms: C_12  and  C_13 
REMARK    5  A    between atoms: C_13  and  C_14 
ROOT
HETATM    1  N   UNL     1       6.672  28.916  58.111  1.00  0.00    -0.305 N 
HETATM    2  C   UNL     1       7.603  28.041  57.608  1.00  0.00     0.320 C 
HETATM    3  N   UNL     1       7.066  26.779  57.447  1.00  0.00    -0.343 N 
HETATM    4  O   UNL     1       8.756  28.298  57.293  1.00  0.00    -0.247 OA
HETATM    5  H   UNL     1       5.729  28.568  58.173  1.00  0.00     0.171 HD
HETATM    6  H   UNL     1       6.301  26.510  58.049  1.00  0.00     0.164 HD
ENDROOT
BRANCH   3   7
HETATM    7  C   UNL     1       7.873  25.694  56.911  1.00  0.00     0.129 C 
BRANCH   7   8
HETATM    8  C   UNL     1       7.049  24.447  56.568  1.00  0.00     0.059 C 
BRANCH   8   9
HETATM    9  C   UNL     1       7.345  23.924  55.173  1.00  0.00    -0.045 A 
HETATM   10  C   UNL     1       7.788  22.591  54.934  1.00  0.00    -0.020 A 
HETATM   11  C   UNL     1       8.066  22.194  53.601  1.00  0.00    -0.025 A 
HETATM   12  C   UNL     1       7.966  21.622  55.951  1.00  0.00     0.013 A 
HETATM   13  C   UNL     1       8.503  20.885  53.331  1.00  0.00     0.012 A 
HETATM   14  C   UNL     1       7.901  23.107  52.550  1.00  0.00     0.012 A 
HETATM   15  C   UNL     1       8.670  19.958  54.356  1.00  0.00     0.001 A 
HETATM   16  C   UNL     1       8.402  20.325  55.666  1.00  0.00     0.001 A 
HETATM   17  C   UNL     1       7.465  24.407  52.793  1.00  0.00     0.001 A 
HETATM   18  C   UNL     1       7.190  24.813  54.094  1.00  0.00     0.008 A 
ENDBRANCH   8   9
ENDBRANCH   7   8
ENDBRANCH   3   7
BRANCH   1  19
HETATM   19  C   UNL     1       6.852  30.268  58.373  1.00  0.00     0.095 A 
HETATM   20  C   UNL     1       6.099  31.253  57.759  1.00  0.00     0.107 A 
HETATM   21  O   UNL     1       6.502  32.474  58.194  1.00  0.00    -0.215 OA
HETATM   22  N   UNL     1       7.514  32.326  59.111  1.00  0.00    -0.131 NA
HETATM   23  C   UNL     1       7.728  31.007  59.225  1.00  0.00     0.087 A 
HETATM   24  C   UNL     1       8.776  30.560  60.173  1.00  0.00     0.075 C 
BRANCH  20  25
HETATM   25  C   UNL     1       5.000  31.271  56.764  1.00  0.00     0.065 C 
HETATM   26  C   UNL     1       3.656  30.977  57.410  1.00  0.00     0.012 C 
ENDBRANCH  20  25
ENDBRANCH   1  19
TORSDOF 5
ENDMDL
MODEL 6
REMARK VINA RESULT:      -9.3      1.067      2.899
REMARK  5 active torsions:
REMARK  status: ('A' for Active; 'I' for Inactive)
REMARK    1  A    between atoms: C_2  and  C_3 
REMARK    2  A    between atoms: C_8  and  N_9 
REMARK       I    between atoms: N_9  and  C_10 
REMARK       I    between atoms: C_10  and  N_11 
REMARK    3  A    between atoms: N_11  and  C_12 
REMARK    4  A    between atoms: C_12  and  C_13 
REMARK    5  A    between atoms: C_13  and  C_14 
ROOT
HETATM    1  N   UNL     1       8.140  29.245  58.531  1.00  0.00    -0.305 N 
HETATM    2  C   UNL     1       7.283  28.881  57.521  1.00  0.00     0.320 C 
HETATM    3  N   UNL     1       6.934  27.548  57.619  1.00  0.00    -0.343 N 
HETATM    4  O   UNL     1       6.829  29.606  56.647  1.00  0.00    -0.247 OA
HETATM    5  H   UNL     1       8.292  28.555  59.249  1.00  0.00     0.171 HD
HETATM    6  H   UNL     1       7.588  26.919  58.063  1.00  0.00     0.164 HD
ENDROOT
BRANCH   3   7
HETATM    7  C   UNL     1       6.021  26.950  56.657  1.00  0.00     0.129 C 
BRANCH   7   8
HETATM    8  C   UNL     1       6.740  26.332  55.453  1.00  0.00     0.059 C 
BRANCH   8   9
HETATM    9  C   UNL     1       7.388  24.999  55.787  1.00  0.00    -0.045 A 
HETATM   10  C   UNL     1       7.576  23.975  54.814  1.00  0.00    -0.020 A 
HETATM   11  C   UNL     1       8.167  22.751  55.220  1.00  0.00    -0.025 A 
HETATM   12  C   UNL     1       7.212  24.101  53.452  1.00  0.00     0.013 A 
HETATM   13  C   UNL     1       8.367  21.720  54.285  1.00  0.00     0.012 A 
HETATM   14  C   UNL     1       8.555  22.569  56.555  1.00  0.00     0.012 A 
HETATM   15  C   UNL     1       7.994  21.877  52.952  1.00  0.00     0.001 A 
HETATM   16  C   UNL     1       7.417  23.067  52.535  1.00  0.00     0.001 A 
HETATM   17  C   UNL     1       8.371  23.578  57.497  1.00  0.00     0.001 A 
HETATM   18  C   UNL     1       7.791  24.783  57.117  1.00  0.00     0.008 A 
ENDBRANCH   8   9
ENDBRANCH   7   8
ENDBRANCH   3   7
BRANCH   1  19
HETATM   19  C   UNL     1       8.672  30.507  58.761  1.00  0.00     0.095 A 
HETATM   20  C   UNL     1       9.900  30.900  58.263  1.00  0.00     0.107 A 
HETATM   21  O   UNL     1      10.167  32.172  58.657  1.00  0.00    -0.215 OA
HETATM   22  N   UNL     1       9.122  32.652  59.408  1.00  0.00    -0.131 NA
HETATM   23  C   UNL     1       8.220  31.660  59.473  1.00  0.00     0.087 A 
HETATM   24  C   UNL     1       6.970  31.917  60.225  1.00  0.00     0.075 C 
BRANCH  20  25
HETATM   25  C   UNL     1      10.953  30.264  57.435  1.00  0.00     0.065 C 
HETATM   26  C   UNL     1      10.414  29.831  56.082  1.00  0.00     0.012 C 
ENDBRANCH  20  25
ENDBRANCH   1  19
TORSDOF 5
ENDMDL
MODEL 7
REMARK VINA RESULT:      -8.8      2.704      8.816
REMARK  5 active torsions:
REMARK  status: ('A' for Active; 'I' for Inactive)
REMARK    1  A    between atoms: C_2  and  C_3 
REMARK    2  A    between atoms: C_8  and  N_9 
REMARK       I    between atoms: N_9  and  C_10 
REMARK       I    between atoms: C_10  and  N_11 
REMARK    3  A    between atoms: N_11  and  C_12 
REMARK    4  A    between atoms: C_12  and  C_13 
REMARK    5  A    between atoms: C_13  and  C_14 
ROOT
HETATM    1  N   UNL     1       6.976  23.900  55.571  1.00  0.00    -0.305 N 
HETATM    2  C   UNL     1       7.694  24.728  56.398  1.00  0.00     0.320 C 
HETATM    3  N   UNL     1       6.894  25.724  56.924  1.00  0.00    -0.343 N 
HETATM    4  O   UNL     1       8.875  24.624  56.696  1.00  0.00    -0.247 OA
HETATM    5  H   UNL     1       5.980  24.047  55.558  1.00  0.00     0.171 HD
HETATM    6  H   UNL     1       6.089  26.016  56.388  1.00  0.00     0.164 HD
ENDROOT
BRANCH   3   7
HETATM    7  C   UNL     1       7.446  26.709  57.841  1.00  0.00     0.129 C 
BRANCH   7   8
HETATM    8  C   UNL     1       7.229  28.152  57.372  1.00  0.00     0.059 C 
BRANCH   8   9
HETATM    9  C   UNL     1       8.489  28.994  57.489  1.00  0.00    -0.045 A 
HETATM   10  C   UNL     1       8.592  30.095  58.388  1.00  0.00    -0.020 A 
HETATM   11  C   UNL     1       9.797  30.843  58.414  1.00  0.00    -0.025 A 
HETATM   12  C   UNL     1       7.561  30.493  59.273  1.00  0.00     0.013 A 
HETATM   13  C   UNL     1       9.932  31.933  59.290  1.00  0.00     0.012 A 
HETATM   14  C   UNL     1      10.857  30.492  57.565  1.00  0.00     0.012 A 
HETATM   15  C   UNL     1       8.896  32.300  60.146  1.00  0.00     0.001 A 
HETATM   16  C   UNL     1       7.711  31.580  60.138  1.00  0.00     0.001 A 
HETATM   17  C   UNL     1      10.747  29.412  56.692  1.00  0.00     0.001 A 
HETATM   18  C   UNL     1       9.573  28.670  56.653  1.00  0.00     0.008 A 
ENDBRANCH   8   9
ENDBRANCH   7   8
ENDBRANCH   3   7
BRANCH   1  19
HETATM   19  C   UNL     1       7.446  22.781  54.896  1.00  0.00     0.095 A 
HETATM   20  C   UNL     1       7.515  22.717  53.516  1.00  0.00     0.107 A 
HETATM   21  O   UNL     1       7.998  21.506  53.138  1.00  0.00    -0.215 OA
HETATM   22  N   UNL     1       8.272  20.750  54.252  1.00  0.00    -0.131 NA
HETATM   23  C   UNL     1       7.946  21.509  55.310  1.00  0.00     0.087 A 
HETATM   24  C   UNL     1       8.156  20.933  56.659  1.00  0.00     0.075 C 
BRANCH  20  25
HETATM   25  C   UNL     1       7.184  23.638  52.402  1.00  0.00     0.065 C 
HETATM   26  C   UNL     1       8.089  24.859  52.397  1.00  0.00     0.012 C 
ENDBRANCH  20  25
ENDBRANCH   1  19
TORSDOF 5
ENDMDL
MODEL 8
REMARK VINA RESULT:      -8.6      4.272      5.624
REMARK  5 active torsions:
REMARK  status: ('A' for Active; 'I' for Inactive)
REMARK    1  A    between atoms: C_2  and  C_3 
REMARK    2  A    between atoms: C_8  and  N_9 
REMARK       I    between atoms: N_9  and  C_10 
REMARK       I    between atoms: C_10  and  N_11 
REMARK    3  A    between atoms: N_11  and  C_12 
REMARK    4  A    between atoms: C_12  and  C_13 
REMARK    5  A    between atoms: C_13  and  C_14 
ROOT
HETATM    1  N   UNL     1       3.691  27.653  53.429  1.00  0.00    -0.305 N 
HETATM    2  C   UNL     1       4.543  26.828  52.737  1.00  0.00     0.320 C 
HETATM    3  N   UNL     1       4.435  25.521  53.171  1.00  0.00    -0.343 N 
HETATM    4  O   UNL     1       5.291  27.146  51.823  1.00  0.00    -0.247 OA
HETATM    5  H   UNL     1       3.040  27.195  54.046  1.00  0.00     0.171 HD
HETATM    6  H   UNL     1       4.141  25.362  54.124  1.00  0.00     0.164 HD
ENDROOT
BRANCH   3   7
HETATM    7  C   UNL     1       5.238  24.471  52.564  1.00  0.00     0.129 C 
BRANCH   7   8
HETATM    8  C   UNL     1       6.743  24.671  52.773  1.00  0.00     0.059 C 
BRANCH   8   9
HETATM    9  C   UNL     1       7.238  24.036  54.061  1.00  0.00    -0.045 A 
HETATM   10  C   UNL     1       7.724  22.697  54.116  1.00  0.00    -0.020 A 
HETATM   11  C   UNL     1       8.142  22.175  55.367  1.00  0.00    -0.025 A 
HETATM   12  C   UNL     1       7.823  21.845  52.990  1.00  0.00     0.013 A 
HETATM   13  C   UNL     1       8.628  20.859  55.456  1.00  0.00     0.012 A 
HETATM   14  C   UNL     1       8.074  22.974  56.517  1.00  0.00     0.012 A 
HETATM   15  C   UNL     1       8.710  20.046  54.328  1.00  0.00     0.001 A 
HETATM   16  C   UNL     1       8.308  20.538  53.095  1.00  0.00     0.001 A 
HETATM   17  C   UNL     1       7.600  24.283  56.453  1.00  0.00     0.001 A 
HETATM   18  C   UNL     1       7.184  24.809  55.235  1.00  0.00     0.008 A 
ENDBRANCH   8   9
ENDBRANCH   7   8
ENDBRANCH   3   7
BRANCH   1  19
HETATM   19  C   UNL     1       3.512  29.017  53.241  1.00  0.00     0.095 A 
HETATM   20  C   UNL     1       3.802  29.950  54.220  1.00  0.00     0.107 A 
HETATM   21  O   UNL     1       3.517  31.196  53.764  1.00  0.00    -0.215 OA
HETATM   22  N   UNL     1       3.049  31.119  52.474  1.00  0.00    -0.131 NA
HETATM   23  C   UNL     1       3.046  29.816  52.153  1.00  0.00     0.087 A 
HETATM   24  C   UNL     1       2.591  29.446  50.792  1.00  0.00     0.075 C 
BRANCH  20  25
HETATM   25  C   UNL     1       4.325  29.892  55.607  1.00  0.00     0.065 C 
HETATM   26  C   UNL     1       5.797  29.519  55.634  1.00  0.00     0.012 C 
ENDBRANCH  20  25
ENDBRANCH   1  19
TORSDOF 5
ENDMDL
MODEL 9
REMARK VINA RESULT:      -8.3      3.762      5.319
REMARK  5 active torsions:
REMARK  status: ('A' for Active; 'I' for Inactive)
REMARK    1  A    between atoms: C_2  and  C_3 
REMARK    2  A    between atoms: C_8  and  N_9 
REMARK       I    between atoms: N_9  and  C_10 
REMARK       I    between atoms: C_10  and  N_11 
REMARK    3  A    between atoms: N_11  and  C_12 
REMARK    4  A    between atoms: C_12  and  C_13 
REMARK    5  A    between atoms: C_13  and  C_14 
ROOT
HETATM    1  N   UNL     1       6.091  28.299  55.739  1.00  0.00    -0.305 N 
HETATM    2  C   UNL     1       6.093  26.999  56.184  1.00  0.00     0.320 C 
HETATM    3  N   UNL     1       7.118  26.782  57.084  1.00  0.00    -0.343 N 
HETATM    4  O   UNL     1       5.297  26.121  55.886  1.00  0.00    -0.247 OA
HETATM    5  H   UNL     1       6.729  28.924  56.204  1.00  0.00     0.171 HD
HETATM    6  H   UNL     1       7.945  27.357  57.008  1.00  0.00     0.164 HD
ENDROOT
BRANCH   3   7
HETATM    7  C   UNL     1       7.300  25.474  57.696  1.00  0.00     0.129 C 
BRANCH   7   8
HETATM    8  C   UNL     1       8.611  24.796  57.281  1.00  0.00     0.059 C 
BRANCH   8   9
HETATM    9  C   UNL     1       8.377  23.505  56.516  1.00  0.00    -0.045 A 
HETATM   10  C   UNL     1       8.144  23.481  55.110  1.00  0.00    -0.020 A 
HETATM   11  C   UNL     1       7.909  22.232  54.480  1.00  0.00    -0.025 A 
HETATM   12  C   UNL     1       8.137  24.634  54.289  1.00  0.00     0.013 A 
HETATM   13  C   UNL     1       7.677  22.172  53.095  1.00  0.00     0.012 A 
HETATM   14  C   UNL     1       7.911  21.053  55.240  1.00  0.00     0.012 A 
HETATM   15  C   UNL     1       7.674  23.328  52.317  1.00  0.00     0.001 A 
HETATM   16  C   UNL     1       7.904  24.559  52.913  1.00  0.00     0.001 A 
HETATM   17  C   UNL     1       8.143  21.087  56.613  1.00  0.00     0.001 A 
HETATM   18  C   UNL     1       8.372  22.303  57.246  1.00  0.00     0.008 A 
ENDBRANCH   8   9
ENDBRANCH   7   8
ENDBRANCH   3   7
BRANCH   1  19
HETATM   19  C   UNL     1       5.191  28.877  54.854  1.00  0.00     0.095 A 
HETATM   20  C   UNL     1       5.231  28.644  53.491  1.00  0.00     0.107 A 
HETATM   21  O   UNL     1       4.246  29.348  52.878  1.00  0.00    -0.215 OA
HETATM   22  N   UNL     1       3.526  30.049  53.815  1.00  0.00    -0.131 NA
HETATM   23  C   UNL     1       4.086  29.770  55.003  1.00  0.00     0.087 A 
HETATM   24  C   UNL     1       3.489  30.394  56.207  1.00  0.00     0.075 C 
BRANCH  20  25
HETATM   25  C   UNL     1       6.082  27.834  52.587  1.00  0.00     0.065 C 
HETATM   26  C   UNL     1       5.253  26.883  51.740  1.00  0.00     0.012 C 
ENDBRANCH  20  25
ENDBRANCH   1  19
TORSDOF 5
ENDMDL
MODEL 10
REMARK VINA RESULT:      -8.3      4.234      5.902
REMARK  5 active torsions:
REMARK  status: ('A' for Active; 'I' for Inactive)
REMARK    1  A    between atoms: C_2  and  C_3 
REMARK    2  A    between atoms: C_8  and  N_9 
REMARK       I    between atoms: N_9  and  C_10 
REMARK       I    between atoms: C_10  and  N_11 
REMARK    3  A    between atoms: N_11  and  C_12 
REMARK    4  A    between atoms: C_12  and  C_13 
REMARK    5  A    between atoms: C_13  and  C_14 
ROOT
HETATM    1  N   UNL     1       3.707  27.656  53.426  1.00  0.00    -0.305 N 
HETATM    2  C   UNL     1       4.539  26.859  52.678  1.00  0.00     0.320 C 
HETATM    3  N   UNL     1       4.434  25.535  53.057  1.00  0.00    -0.343 N 
HETATM    4  O   UNL     1       5.267  27.214  51.762  1.00  0.00    -0.247 OA
HETATM    5  H   UNL     1       3.068  27.174  54.037  1.00  0.00     0.171 HD
HETATM    6  H   UNL     1       4.162  25.336  54.009  1.00  0.00     0.164 HD
ENDROOT
BRANCH   3   7
HETATM    7  C   UNL     1       5.218  24.509  52.386  1.00  0.00     0.129 C 
BRANCH   7   8
HETATM    8  C   UNL     1       6.723  24.799  52.402  1.00  0.00     0.059 C 
BRANCH   8   9
HETATM    9  C   UNL     1       7.463  23.961  53.431  1.00  0.00    -0.045 A 
HETATM   10  C   UNL     1       7.756  24.442  54.740  1.00  0.00    -0.020 A 
HETATM   11  C   UNL     1       8.475  23.601  55.629  1.00  0.00    -0.025 A 
HETATM   12  C   UNL     1       7.369  25.716  55.220  1.00  0.00     0.013 A 
HETATM   13  C   UNL     1       8.779  24.045  56.927  1.00  0.00     0.012 A 
HETATM   14  C   UNL     1       8.879  22.325  55.212  1.00  0.00     0.012 A 
HETATM   15  C   UNL     1       8.385  25.306  57.367  1.00  0.00     0.001 A 
HETATM   16  C   UNL     1       7.680  26.142  56.514  1.00  0.00     0.001 A 
HETATM   17  C   UNL     1       8.584  21.863  53.932  1.00  0.00     0.001 A 
HETATM   18  C   UNL     1       7.883  22.675  53.047  1.00  0.00     0.008 A 
ENDBRANCH   8   9
ENDBRANCH   7   8
ENDBRANCH   3   7
BRANCH   1  19
HETATM   19  C   UNL     1       3.530  29.028  53.301  1.00  0.00     0.095 A 
HETATM   20  C   UNL     1       3.846  29.915  54.314  1.00  0.00     0.107 A 
HETATM   21  O   UNL     1       3.558  31.181  53.919  1.00  0.00    -0.215 OA
HETATM   22  N   UNL     1       3.060  31.163  52.638  1.00  0.00    -0.131 NA
HETATM   23  C   UNL     1       3.043  29.876  52.261  1.00  0.00     0.087 A 
HETATM   24  C   UNL     1       2.556  29.567  50.895  1.00  0.00     0.075 C 
BRANCH  20  25
HETATM   25  C   UNL     1       4.401  29.795  55.684  1.00  0.00     0.065 C 
HETATM   26  C   UNL     1       5.874  29.424  55.661  1.00  0.00     0.012 C 
ENDBRANCH  20  25
ENDBRANCH   1  19
TORSDOF 5
ENDMDL
