MODEL 1
REMARK VINA RESULT:      -8.7      0.000      0.000
REMARK  6 active torsions:
REMARK  status: ('A' for Active; 'I' for Inactive)
REMARK    1  A    between atoms: C_2  and  C_3 
REMARK    2  A    between atoms: C_3  and  N_4 
REMARK       I    between atoms: N_4  and  C_5 
REMARK    3  A    between atoms: C_5  and  C_6 
REMARK    4  A    between atoms: C_11  and  C_12 
REMARK    5  A    between atoms: C_15  and  O_16 
REMARK    6  A    between atoms: C_21  and  C_22 
ROOT
HETATM    1  C   UNL     1       5.367  27.135  51.837  1.00  0.00     0.170 A 
HETATM    2  N   UNL     1       6.374  26.329  52.256  1.00  0.00    -0.163 NA
HETATM    3  N   UNL     1       6.106  26.125  53.557  1.00  0.00    -0.238 N 
HETATM    4  C   UNL     1       5.037  26.847  54.017  1.00  0.00     0.145 A 
HETATM    5  N   UNL     1       4.727  26.876  55.341  1.00  0.00    -0.365 N 
HETATM    6  C   UNL     1       5.707  26.436  56.334  1.00  0.00     0.118 C 
HETATM    7  C   UNL     1       6.380  25.158  55.805  1.00  0.00     0.066 C 
HETATM    8  C   UNL     1       7.011  25.378  54.416  1.00  0.00     0.221 C 
HETATM    9  C   UNL     1       4.500  27.469  52.913  1.00  0.00     0.115 A 
HETATM   10 CL   UNL     1       3.145  28.490  52.887  1.00  0.00    -0.077 Cl
HETATM   11  H   UNL     1       4.061  27.572  55.677  1.00  0.00     0.162 HD
ENDROOT
BRANCH   6  12
HETATM   12  C   UNL     1       6.704  27.517  56.733  1.00  0.00    -0.035 A 
HETATM   13  C   UNL     1       8.095  27.337  56.698  1.00  0.00     0.012 A 
HETATM   14  C   UNL     1       8.964  28.359  57.091  1.00  0.00     0.037 A 
HETATM   15  C   UNL     1       8.473  29.591  57.520  1.00  0.00     0.068 A 
HETATM   16  C   UNL     1       7.096  29.794  57.546  1.00  0.00     0.037 A 
HETATM   17  C   UNL     1       6.223  28.771  57.152  1.00  0.00     0.012 A 
BRANCH  15  18
HETATM   18  O   UNL     1       9.432  30.495  57.877  1.00  0.00    -0.356 OA
HETATM   19  C   UNL     1      10.759  30.235  57.438  1.00  0.00     0.210 C 
ENDBRANCH  15  18
ENDBRANCH   6  12
BRANCH   8  20
HETATM   20  C   UNL     1       7.376  24.040  53.810  1.00  0.00     0.409 C 
HETATM   21  F   UNL     1       8.494  24.081  53.054  1.00  0.00    -0.169 F 
HETATM   22  F   UNL     1       7.624  23.141  54.801  1.00  0.00    -0.169 F 
HETATM   23  F   UNL     1       6.378  23.523  53.060  1.00  0.00    -0.169 F 
ENDBRANCH   8  20
BRANCH   1  24
HETATM   24  C   UNL     1       5.306  27.592  50.439  1.00  0.00     0.273 C 
HETATM   25  N   UNL     1       4.815  26.628  49.583  1.00  0.00    -0.356 N 
HETATM   26  H   UNL     1       4.610  25.728  50.012  1.00  0.00     0.162 HD
HETATM   27  O   UNL     1       5.678  28.698  50.064  1.00  0.00    -0.266 OA
BRANCH  25  28
HETATM   28  C   UNL     1       4.824  26.770  48.147  1.00  0.00     0.122 C 
BRANCH  28  29
HETATM   29  C   UNL     1       3.503  26.342  47.509  1.00  0.00     0.015 C 
HETATM   30  C   UNL     1       3.052  24.961  47.963  1.00  0.00     0.006 C 
ENDBRANCH  28  29
ENDBRANCH  25  28
ENDBRANCH   1  24
TORSDOF 6
ENDMDL
MODEL 2
REMARK VINA RESULT:      -8.0      6.681     10.627
REMARK  6 active torsions:
REMARK  status: ('A' for Active; 'I' for Inactive)
REMARK    1  A    between atoms: C_2  and  C_3 
REMARK    2  A    between atoms: C_3  and  N_4 
REMARK       I    between atoms: N_4  and  C_5 
REMARK    3  A    between atoms: C_5  and  C_6 
REMARK    4  A    between atoms: C_11  and  C_12 
REMARK    5  A    between atoms: C_15  and  O_16 
REMARK    6  A    between atoms: C_21  and  C_22 
ROOT
HETATM    1  C   UNL     1       5.491  32.556  61.707  1.00  0.00     0.170 A 
HETATM    2  N   UNL     1       6.490  31.698  62.034  1.00  0.00    -0.163 NA
HETATM    3  N   UNL     1       7.213  31.597  60.906  1.00  0.00    -0.238 N 
HETATM    4  C   UNL     1       6.667  32.265  59.841  1.00  0.00     0.145 A 
HETATM    5  N   UNL     1       7.187  32.139  58.592  1.00  0.00    -0.365 N 
HETATM    6  C   UNL     1       8.106  31.042  58.286  1.00  0.00     0.118 C 
HETATM    7  C   UNL     1       9.083  30.896  59.464  1.00  0.00     0.066 C 
HETATM    8  C   UNL     1       8.341  30.686  60.800  1.00  0.00     0.221 C 
HETATM    9  C   UNL     1       5.579  32.943  60.342  1.00  0.00     0.115 A 
HETATM   10 CL   UNL     1       4.526  33.949  59.470  1.00  0.00    -0.077 Cl
HETATM   11  H   UNL     1       6.648  32.479  57.795  1.00  0.00     0.162 HD
ENDROOT
BRANCH   6  12
HETATM   12  C   UNL     1       7.404  29.738  57.924  1.00  0.00    -0.035 A 
HETATM   13  C   UNL     1       8.040  28.487  57.943  1.00  0.00     0.012 A 
HETATM   14  C   UNL     1       7.352  27.323  57.586  1.00  0.00     0.037 A 
HETATM   15  C   UNL     1       6.011  27.372  57.210  1.00  0.00     0.068 A 
HETATM   16  C   UNL     1       5.358  28.602  57.201  1.00  0.00     0.037 A 
HETATM   17  C   UNL     1       6.046  29.768  57.559  1.00  0.00     0.012 A 
BRANCH  15  18
HETATM   18  O   UNL     1       5.466  26.163  56.883  1.00  0.00    -0.356 OA
HETATM   19  C   UNL     1       6.350  25.051  56.824  1.00  0.00     0.210 C 
ENDBRANCH  15  18
ENDBRANCH   6  12
BRANCH   8  20
HETATM   20  C   UNL     1       9.310  30.861  61.948  1.00  0.00     0.409 C 
HETATM   21  F   UNL     1       9.959  32.044  61.926  1.00  0.00    -0.169 F 
HETATM   22  F   UNL     1       8.633  30.824  63.128  1.00  0.00    -0.169 F 
HETATM   23  F   UNL     1      10.232  29.874  62.001  1.00  0.00    -0.169 F 
ENDBRANCH   8  20
BRANCH   1  24
HETATM   24  C   UNL     1       4.469  32.927  62.698  1.00  0.00     0.273 C 
HETATM   25  N   UNL     1       4.954  33.769  63.677  1.00  0.00    -0.356 N 
HETATM   26  H   UNL     1       5.948  33.981  63.616  1.00  0.00     0.162 HD
HETATM   27  O   UNL     1       3.315  32.512  62.679  1.00  0.00    -0.266 OA
BRANCH  25  28
HETATM   28  C   UNL     1       4.198  34.130  64.852  1.00  0.00     0.122 C 
BRANCH  28  29
HETATM   29  C   UNL     1       5.007  33.971  66.138  1.00  0.00     0.015 C 
HETATM   30  C   UNL     1       6.500  33.826  65.880  1.00  0.00     0.006 C 
ENDBRANCH  28  29
ENDBRANCH  25  28
ENDBRANCH   1  24
TORSDOF 6
ENDMDL
MODEL 3
REMARK VINA RESULT:      -8.0      1.318      1.911
REMARK  6 active torsions:
REMARK  status: ('A' for Active; 'I' for Inactive)
REMARK    1  A    between atoms: C_2  and  C_3 
REMARK    2  A    between atoms: C_3  and  N_4 
REMARK       I    between atoms: N_4  and  C_5 
REMARK    3  A    between atoms: C_5  and  C_6 
REMARK    4  A    between atoms: C_11  and  C_12 
REMARK    5  A    between atoms: C_15  and  O_16 
REMARK    6  A    between atoms: C_21  and  C_22 
ROOT
HETATM    1  C   UNL     1       5.320  27.151  51.865  1.00  0.00     0.170 A 
HETATM    2  N   UNL     1       6.303  26.318  52.287  1.00  0.00    -0.163 NA
HETATM    3  N   UNL     1       6.039  26.139  53.593  1.00  0.00    -0.238 N 
HETATM    4  C   UNL     1       4.996  26.900  54.052  1.00  0.00     0.145 A 
HETATM    5  N   UNL     1       4.697  26.955  55.377  1.00  0.00    -0.365 N 
HETATM    6  C   UNL     1       5.670  26.496  56.368  1.00  0.00     0.118 C 
HETATM    7  C   UNL     1       6.298  25.191  55.851  1.00  0.00     0.066 C 
HETATM    8  C   UNL     1       6.925  25.374  54.455  1.00  0.00     0.221 C 
HETATM    9  C   UNL     1       4.472  27.526  52.944  1.00  0.00     0.115 A 
HETATM   10 CL   UNL     1       3.149  28.589  52.914  1.00  0.00    -0.077 Cl
HETATM   11  H   UNL     1       4.056  27.676  55.709  1.00  0.00     0.162 HD
ENDROOT
BRANCH   6  12
HETATM   12  C   UNL     1       6.703  27.550  56.747  1.00  0.00    -0.035 A 
HETATM   13  C   UNL     1       8.081  27.291  56.818  1.00  0.00     0.012 A 
HETATM   14  C   UNL     1       8.984  28.293  57.187  1.00  0.00     0.037 A 
HETATM   15  C   UNL     1       8.542  29.581  57.486  1.00  0.00     0.068 A 
HETATM   16  C   UNL     1       7.180  29.861  57.405  1.00  0.00     0.037 A 
HETATM   17  C   UNL     1       6.274  28.859  57.035  1.00  0.00     0.012 A 
BRANCH  15  18
HETATM   18  O   UNL     1       9.530  30.457  57.834  1.00  0.00    -0.356 OA
HETATM   19  C   UNL     1      10.836  30.186  57.341  1.00  0.00     0.210 C 
ENDBRANCH  15  18
ENDBRANCH   6  12
BRANCH   8  20
HETATM   20  C   UNL     1       7.244  24.018  53.864  1.00  0.00     0.409 C 
HETATM   21  F   UNL     1       7.354  23.042  54.789  1.00  0.00    -0.169 F 
HETATM   22  F   UNL     1       6.242  23.635  53.029  1.00  0.00    -0.169 F 
HETATM   23  F   UNL     1       8.377  24.030  53.126  1.00  0.00    -0.169 F 
ENDBRANCH   8  20
BRANCH   1  24
HETATM   24  C   UNL     1       5.263  27.592  50.463  1.00  0.00     0.273 C 
HETATM   25  N   UNL     1       5.573  28.928  50.309  1.00  0.00    -0.356 N 
HETATM   26  H   UNL     1       5.750  29.436  51.173  1.00  0.00     0.162 HD
HETATM   27  O   UNL     1       4.946  26.863  49.529  1.00  0.00    -0.266 OA
BRANCH  25  28
HETATM   28  C   UNL     1       5.417  29.635  49.061  1.00  0.00     0.122 C 
BRANCH  28  29
HETATM   29  C   UNL     1       4.800  31.020  49.248  1.00  0.00     0.015 C 
HETATM   30  C   UNL     1       3.481  30.978  50.007  1.00  0.00     0.006 C 
ENDBRANCH  28  29
ENDBRANCH  25  28
ENDBRANCH   1  24
TORSDOF 6
ENDMDL
MODEL 4
REMARK VINA RESULT:      -7.7      3.714      7.433
REMARK  6 active torsions:
REMARK  status: ('A' for Active; 'I' for Inactive)
REMARK    1  A    between atoms: C_2  and  C_3 
REMARK    2  A    between atoms: C_3  and  N_4 
REMARK       I    between atoms: N_4  and  C_5 
REMARK    3  A    between atoms: C_5  and  C_6 
REMARK    4  A    between atoms: C_11  and  C_12 
REMARK    5  A    between atoms: C_15  and  O_16 
REMARK    6  A    between atoms: C_21  and  C_22 
ROOT
HETATM    1  C   UNL     1       8.344  28.755  55.923  1.00  0.00     0.170 A 
HETATM    2  N   UNL     1       7.885  28.655  54.651  1.00  0.00    -0.163 NA
HETATM    3  N   UNL     1       6.935  27.707  54.724  1.00  0.00    -0.238 N 
HETATM    4  C   UNL     1       6.836  27.121  55.958  1.00  0.00     0.145 A 
HETATM    5  N   UNL     1       6.034  26.041  56.161  1.00  0.00    -0.365 N 
HETATM    6  C   UNL     1       5.535  25.274  55.020  1.00  0.00     0.118 C 
HETATM    7  C   UNL     1       5.101  26.267  53.929  1.00  0.00     0.066 C 
HETATM    8  C   UNL     1       6.246  27.222  53.538  1.00  0.00     0.221 C 
HETATM    9  C   UNL     1       7.698  27.817  56.774  1.00  0.00     0.115 A 
HETATM   10 CL   UNL     1       7.980  27.533  58.423  1.00  0.00    -0.077 Cl
HETATM   11  H   UNL     1       6.134  25.507  57.025  1.00  0.00     0.162 HD
ENDROOT
BRANCH   6  12
HETATM   12  C   UNL     1       6.514  24.219  54.515  1.00  0.00    -0.035 A 
HETATM   13  C   UNL     1       6.759  23.982  53.154  1.00  0.00     0.012 A 
HETATM   14  C   UNL     1       7.656  22.990  52.746  1.00  0.00     0.037 A 
HETATM   15  C   UNL     1       8.340  22.215  53.681  1.00  0.00     0.068 A 
HETATM   16  C   UNL     1       8.123  22.448  55.037  1.00  0.00     0.037 A 
HETATM   17  C   UNL     1       7.225  23.442  55.447  1.00  0.00     0.012 A 
BRANCH  15  18
HETATM   18  O   UNL     1       9.181  21.282  53.144  1.00  0.00    -0.356 OA
HETATM   19  C   UNL     1       8.669  19.965  52.989  1.00  0.00     0.210 C 
ENDBRANCH  15  18
ENDBRANCH   6  12
BRANCH   8  20
HETATM   20  C   UNL     1       5.692  28.361  52.710  1.00  0.00     0.409 C 
HETATM   21  F   UNL     1       6.582  28.864  51.828  1.00  0.00    -0.169 F 
HETATM   22  F   UNL     1       4.638  27.921  51.972  1.00  0.00    -0.169 F 
HETATM   23  F   UNL     1       5.233  29.377  53.472  1.00  0.00    -0.169 F 
ENDBRANCH   8  20
BRANCH   1  24
HETATM   24  C   UNL     1       9.415  29.707  56.259  1.00  0.00     0.273 C 
HETATM   25  N   UNL     1       9.326  30.178  57.553  1.00  0.00    -0.356 N 
HETATM   26  H   UNL     1       8.520  29.850  58.081  1.00  0.00     0.162 HD
HETATM   27  O   UNL     1      10.279  30.071  55.469  1.00  0.00    -0.266 OA
BRANCH  25  28
HETATM   28  C   UNL     1      10.150  31.248  58.061  1.00  0.00     0.122 C 
BRANCH  28  29
HETATM   29  C   UNL     1       9.644  31.790  59.397  1.00  0.00     0.015 C 
HETATM   30  C   UNL     1       9.016  30.712  60.269  1.00  0.00     0.006 C 
ENDBRANCH  28  29
ENDBRANCH  25  28
ENDBRANCH   1  24
TORSDOF 6
ENDMDL
MODEL 5
REMARK VINA RESULT:      -7.6      9.010     11.861
REMARK  6 active torsions:
REMARK  status: ('A' for Active; 'I' for Inactive)
REMARK    1  A    between atoms: C_2  and  C_3 
REMARK    2  A    between atoms: C_3  and  N_4 
REMARK       I    between atoms: N_4  and  C_5 
REMARK    3  A    between atoms: C_5  and  C_6 
REMARK    4  A    between atoms: C_11  and  C_12 
REMARK    5  A    between atoms: C_15  and  O_16 
REMARK    6  A    between atoms: C_21  and  C_22 
ROOT
HETATM    1  C   UNL     1       6.134  32.858  60.392  1.00  0.00     0.170 A 
HETATM    2  N   UNL     1       6.897  33.139  61.478  1.00  0.00    -0.163 NA
HETATM    3  N   UNL     1       6.130  33.967  62.207  1.00  0.00    -0.238 N 
HETATM    4  C   UNL     1       4.955  34.314  61.592  1.00  0.00     0.145 A 
HETATM    5  N   UNL     1       4.137  35.261  62.123  1.00  0.00    -0.365 N 
HETATM    6  C   UNL     1       4.639  36.169  63.155  1.00  0.00     0.118 C 
HETATM    7  C   UNL     1       5.485  35.349  64.142  1.00  0.00     0.066 C 
HETATM    8  C   UNL     1       6.620  34.588  63.427  1.00  0.00     0.221 C 
HETATM    9  C   UNL     1       4.902  33.567  60.438  1.00  0.00     0.115 A 
HETATM   10 CL   UNL     1       3.659  33.579  59.282  1.00  0.00    -0.077 Cl
HETATM   11  H   UNL     1       3.383  35.640  61.550  1.00  0.00     0.162 HD
ENDROOT
BRANCH   6  12
HETATM   12  C   UNL     1       5.375  37.382  62.598  1.00  0.00    -0.035 A 
HETATM   13  C   UNL     1       5.332  37.759  61.246  1.00  0.00     0.012 A 
HETATM   14  C   UNL     1       6.040  38.873  60.786  1.00  0.00     0.037 A 
HETATM   15  C   UNL     1       6.802  39.647  61.659  1.00  0.00     0.068 A 
HETATM   16  C   UNL     1       6.844  39.299  63.007  1.00  0.00     0.037 A 
HETATM   17  C   UNL     1       6.135  38.183  63.470  1.00  0.00     0.012 A 
BRANCH  15  18
HETATM   18  O   UNL     1       7.444  40.702  61.075  1.00  0.00    -0.356 OA
HETATM   19  C   UNL     1       6.631  41.762  60.588  1.00  0.00     0.210 C 
ENDBRANCH  15  18
ENDBRANCH   6  12
BRANCH   8  20
HETATM   20  C   UNL     1       7.217  33.568  64.372  1.00  0.00     0.409 C 
HETATM   21  F   UNL     1       8.432  33.125  63.984  1.00  0.00    -0.169 F 
HETATM   22  F   UNL     1       7.393  34.128  65.598  1.00  0.00    -0.169 F 
HETATM   23  F   UNL     1       6.413  32.496  64.548  1.00  0.00    -0.169 F 
ENDBRANCH   8  20
BRANCH   1  24
HETATM   24  C   UNL     1       6.636  31.965  59.336  1.00  0.00     0.273 C 
HETATM   25  N   UNL     1       7.389  30.920  59.832  1.00  0.00    -0.356 N 
HETATM   26  H   UNL     1       7.537  30.931  60.839  1.00  0.00     0.162 HD
HETATM   27  O   UNL     1       6.436  32.141  58.139  1.00  0.00    -0.266 OA
BRANCH  25  28
HETATM   28  C   UNL     1       8.133  30.016  58.990  1.00  0.00     0.122 C 
BRANCH  28  29
HETATM   29  C   UNL     1       9.503  30.571  58.603  1.00  0.00     0.015 C 
HETATM   30  C   UNL     1      10.108  29.859  57.402  1.00  0.00     0.006 C 
ENDBRANCH  28  29
ENDBRANCH  25  28
ENDBRANCH   1  24
TORSDOF 6
ENDMDL
MODEL 6
REMARK VINA RESULT:      -7.3      5.025      7.303
REMARK  6 active torsions:
REMARK  status: ('A' for Active; 'I' for Inactive)
REMARK    1  A    between atoms: C_2  and  C_3 
REMARK    2  A    between atoms: C_3  and  N_4 
REMARK       I    between atoms: N_4  and  C_5 
REMARK    3  A    between atoms: C_5  and  C_6 
REMARK    4  A    between atoms: C_11  and  C_12 
REMARK    5  A    between atoms: C_15  and  O_16 
REMARK    6  A    between atoms: C_21  and  C_22 
ROOT
HETATM    1  C   UNL     1       6.700  28.232  57.502  1.00  0.00     0.170 A 
HETATM    2  N   UNL     1       5.407  28.643  57.473  1.00  0.00    -0.163 NA
HETATM    3  N   UNL     1       5.488  29.978  57.601  1.00  0.00    -0.238 N 
HETATM    4  C   UNL     1       6.762  30.433  57.816  1.00  0.00     0.145 A 
HETATM    5  N   UNL     1       7.000  31.737  58.120  1.00  0.00    -0.365 N 
HETATM    6  C   UNL     1       5.904  32.600  58.561  1.00  0.00     0.118 C 
HETATM    7  C   UNL     1       4.679  32.303  57.680  1.00  0.00     0.066 C 
HETATM    8  C   UNL     1       4.300  30.809  57.713  1.00  0.00     0.221 C 
HETATM    9  C   UNL     1       7.579  29.332  57.702  1.00  0.00     0.115 A 
HETATM   10 CL   UNL     1       9.268  29.304  57.863  1.00  0.00    -0.077 Cl
HETATM   11  H   UNL     1       7.921  32.003  58.470  1.00  0.00     0.162 HD
ENDROOT
BRANCH   6  12
HETATM   12  C   UNL     1       5.607  32.500  60.053  1.00  0.00    -0.035 A 
HETATM   13  C   UNL     1       4.333  32.708  60.603  1.00  0.00     0.012 A 
HETATM   14  C   UNL     1       4.121  32.619  61.982  1.00  0.00     0.037 A 
HETATM   15  C   UNL     1       5.168  32.311  62.849  1.00  0.00     0.068 A 
HETATM   16  C   UNL     1       6.436  32.085  62.320  1.00  0.00     0.037 A 
HETATM   17  C   UNL     1       6.650  32.173  60.938  1.00  0.00     0.012 A 
BRANCH  15  18
HETATM   18  O   UNL     1       4.820  32.261  64.169  1.00  0.00    -0.356 OA
HETATM   19  C   UNL     1       4.895  33.476  64.903  1.00  0.00     0.210 C 
ENDBRANCH  15  18
ENDBRANCH   6  12
BRANCH   8  20
HETATM   20  C   UNL     1       3.308  30.515  56.609  1.00  0.00     0.409 C 
HETATM   21  F   UNL     1       3.879  30.004  55.497  1.00  0.00    -0.169 F 
HETATM   22  F   UNL     1       2.411  29.586  57.034  1.00  0.00    -0.169 F 
HETATM   23  F   UNL     1       2.594  31.606  56.253  1.00  0.00    -0.169 F 
ENDBRANCH   8  20
BRANCH   1  24
HETATM   24  C   UNL     1       7.034  26.804  57.389  1.00  0.00     0.273 C 
HETATM   25  N   UNL     1       6.406  26.191  56.324  1.00  0.00    -0.356 N 
HETATM   26  H   UNL     1       5.768  26.782  55.796  1.00  0.00     0.162 HD
HETATM   27  O   UNL     1       7.767  26.209  58.171  1.00  0.00    -0.266 OA
BRANCH  25  28
HETATM   28  C   UNL     1       6.433  24.764  56.108  1.00  0.00     0.122 C 
BRANCH  28  29
HETATM   29  C   UNL     1       7.206  24.380  54.847  1.00  0.00     0.015 C 
HETATM   30  C   UNL     1       6.325  24.346  53.606  1.00  0.00     0.006 C 
ENDBRANCH  28  29
ENDBRANCH  25  28
ENDBRANCH   1  24
TORSDOF 6
ENDMDL
MODEL 7
REMARK VINA RESULT:      -7.3     10.178     13.208
REMARK  6 active torsions:
REMARK  status: ('A' for Active; 'I' for Inactive)
REMARK    1  A    between atoms: C_2  and  C_3 
REMARK    2  A    between atoms: C_3  and  N_4 
REMARK       I    between atoms: N_4  and  C_5 
REMARK    3  A    between atoms: C_5  and  C_6 
REMARK    4  A    between atoms: C_11  and  C_12 
REMARK    5  A    between atoms: C_15  and  O_16 
REMARK    6  A    between atoms: C_21  and  C_22 
ROOT
HETATM    1  C   UNL     1       6.858  33.004  62.494  1.00  0.00     0.170 A 
HETATM    2  N   UNL     1       6.901  33.463  63.770  1.00  0.00    -0.163 NA
HETATM    3  N   UNL     1       5.907  34.365  63.824  1.00  0.00    -0.238 N 
HETATM    4  C   UNL     1       5.297  34.584  62.617  1.00  0.00     0.145 A 
HETATM    5  N   UNL     1       4.377  35.574  62.464  1.00  0.00    -0.365 N 
HETATM    6  C   UNL     1       4.271  36.637  63.463  1.00  0.00     0.118 C 
HETATM    7  C   UNL     1       4.375  35.994  64.857  1.00  0.00     0.066 C 
HETATM    8  C   UNL     1       5.670  35.171  65.011  1.00  0.00     0.221 C 
HETATM    9  C   UNL     1       5.853  33.676  61.745  1.00  0.00     0.115 A 
HETATM   10 CL   UNL     1       5.467  33.483  60.104  1.00  0.00    -0.077 Cl
HETATM   11  H   UNL     1       4.094  35.843  61.521  1.00  0.00     0.162 HD
ENDROOT
BRANCH   6  12
HETATM   12  C   UNL     1       5.260  37.777  63.254  1.00  0.00    -0.035 A 
HETATM   13  C   UNL     1       5.681  38.634  64.283  1.00  0.00     0.012 A 
HETATM   14  C   UNL     1       6.580  39.675  64.031  1.00  0.00     0.037 A 
HETATM   15  C   UNL     1       7.091  39.885  62.752  1.00  0.00     0.068 A 
HETATM   16  C   UNL     1       6.699  39.035  61.721  1.00  0.00     0.037 A 
HETATM   17  C   UNL     1       5.799  37.991  61.972  1.00  0.00     0.012 A 
BRANCH  15  18
HETATM   18  O   UNL     1       7.955  40.938  62.648  1.00  0.00    -0.356 OA
HETATM   19  C   UNL     1       7.656  42.095  63.417  1.00  0.00     0.210 C 
ENDBRANCH  15  18
ENDBRANCH   6  12
BRANCH   8  20
HETATM   20  C   UNL     1       5.579  34.317  66.256  1.00  0.00     0.409 C 
HETATM   21  F   UNL     1       6.773  33.834  66.663  1.00  0.00    -0.169 F 
HETATM   22  F   UNL     1       5.102  35.062  67.289  1.00  0.00    -0.169 F 
HETATM   23  F   UNL     1       4.731  33.276  66.108  1.00  0.00    -0.169 F 
ENDBRANCH   8  20
BRANCH   1  24
HETATM   24  C   UNL     1       7.811  31.982  62.033  1.00  0.00     0.273 C 
HETATM   25  N   UNL     1       8.542  32.389  60.936  1.00  0.00    -0.356 N 
HETATM   26  H   UNL     1       8.298  33.304  60.565  1.00  0.00     0.162 HD
HETATM   27  O   UNL     1       7.928  30.875  62.547  1.00  0.00    -0.266 OA
BRANCH  25  28
HETATM   28  C   UNL     1       9.410  31.505  60.196  1.00  0.00     0.122 C 
BRANCH  28  29
HETATM   29  C   UNL     1       8.851  31.157  58.817  1.00  0.00     0.015 C 
HETATM   30  C   UNL     1       8.109  29.828  58.803  1.00  0.00     0.006 C 
ENDBRANCH  28  29
ENDBRANCH  25  28
ENDBRANCH   1  24
TORSDOF 6
ENDMDL
MODEL 8
REMARK VINA RESULT:      -7.3      2.648      3.195
REMARK  6 active torsions:
REMARK  status: ('A' for Active; 'I' for Inactive)
REMARK    1  A    between atoms: C_2  and  C_3 
REMARK    2  A    between atoms: C_3  and  N_4 
REMARK       I    between atoms: N_4  and  C_5 
REMARK    3  A    between atoms: C_5  and  C_6 
REMARK    4  A    between atoms: C_11  and  C_12 
REMARK    5  A    between atoms: C_15  and  O_16 
REMARK    6  A    between atoms: C_21  and  C_22 
ROOT
HETATM    1  C   UNL     1       4.248  29.507  52.863  1.00  0.00     0.170 A 
HETATM    2  N   UNL     1       5.031  28.399  52.853  1.00  0.00    -0.163 NA
HETATM    3  N   UNL     1       4.991  27.963  54.124  1.00  0.00    -0.238 N 
HETATM    4  C   UNL     1       4.306  28.796  54.969  1.00  0.00     0.145 A 
HETATM    5  N   UNL     1       4.301  28.583  56.312  1.00  0.00    -0.365 N 
HETATM    6  C   UNL     1       5.287  27.688  56.917  1.00  0.00     0.118 C 
HETATM    7  C   UNL     1       5.422  26.448  56.017  1.00  0.00     0.066 C 
HETATM    8  C   UNL     1       5.787  26.831  54.569  1.00  0.00     0.221 C 
HETATM    9  C   UNL     1       3.764  29.778  54.172  1.00  0.00     0.115 A 
HETATM   10 CL   UNL     1       2.802  31.079  54.683  1.00  0.00    -0.077 Cl
HETATM   11  H   UNL     1       3.959  29.321  56.928  1.00  0.00     0.162 HD
ENDROOT
BRANCH   6  12
HETATM   12  C   UNL     1       6.622  28.360  57.216  1.00  0.00    -0.035 A 
HETATM   13  C   UNL     1       7.864  27.773  56.928  1.00  0.00     0.012 A 
HETATM   14  C   UNL     1       9.060  28.428  57.238  1.00  0.00     0.037 A 
HETATM   15  C   UNL     1       9.052  29.687  57.835  1.00  0.00     0.068 A 
HETATM   16  C   UNL     1       7.829  30.293  58.114  1.00  0.00     0.037 A 
HETATM   17  C   UNL     1       6.630  29.638  57.803  1.00  0.00     0.012 A 
BRANCH  15  18
HETATM   18  O   UNL     1      10.289  30.208  58.086  1.00  0.00    -0.356 OA
HETATM   19  C   UNL     1      11.343  29.813  57.219  1.00  0.00     0.210 C 
ENDBRANCH  15  18
ENDBRANCH   6  12
BRANCH   8  20
HETATM   20  C   UNL     1       5.602  25.630  53.668  1.00  0.00     0.409 C 
HETATM   21  F   UNL     1       6.386  25.657  52.570  1.00  0.00    -0.169 F 
HETATM   22  F   UNL     1       5.934  24.496  54.341  1.00  0.00    -0.169 F 
HETATM   23  F   UNL     1       4.320  25.478  53.267  1.00  0.00    -0.169 F 
ENDBRANCH   8  20
BRANCH   1  24
HETATM   24  C   UNL     1       4.038  30.285  51.632  1.00  0.00     0.273 C 
HETATM   25  N   UNL     1       5.086  31.139  51.353  1.00  0.00    -0.356 N 
HETATM   26  H   UNL     1       5.831  31.154  52.047  1.00  0.00     0.162 HD
HETATM   27  O   UNL     1       3.029  30.211  50.939  1.00  0.00    -0.266 OA
BRANCH  25  28
HETATM   28  C   UNL     1       5.040  32.129  50.305  1.00  0.00     0.122 C 
BRANCH  28  29
HETATM   29  C   UNL     1       6.140  31.930  49.264  1.00  0.00     0.015 C 
HETATM   30  C   UNL     1       6.574  33.234  48.610  1.00  0.00     0.006 C 
ENDBRANCH  28  29
ENDBRANCH  25  28
ENDBRANCH   1  24
TORSDOF 6
ENDMDL
MODEL 9
REMARK VINA RESULT:      -7.0      2.658      3.083
REMARK  6 active torsions:
REMARK  status: ('A' for Active; 'I' for Inactive)
REMARK    1  A    between atoms: C_2  and  C_3 
REMARK    2  A    between atoms: C_3  and  N_4 
REMARK       I    between atoms: N_4  and  C_5 
REMARK    3  A    between atoms: C_5  and  C_6 
REMARK    4  A    between atoms: C_11  and  C_12 
REMARK    5  A    between atoms: C_15  and  O_16 
REMARK    6  A    between atoms: C_21  and  C_22 
ROOT
HETATM    1  C   UNL     1       4.072  29.810  53.158  1.00  0.00     0.170 A 
HETATM    2  N   UNL     1       4.875  28.726  53.012  1.00  0.00    -0.163 NA
HETATM    3  N   UNL     1       4.906  28.180  54.240  1.00  0.00    -0.238 N 
HETATM    4  C   UNL     1       4.248  28.918  55.188  1.00  0.00     0.145 A 
HETATM    5  N   UNL     1       4.314  28.588  56.505  1.00  0.00    -0.365 N 
HETATM    6  C   UNL     1       5.346  27.667  56.980  1.00  0.00     0.118 C 
HETATM    7  C   UNL     1       5.461  26.515  55.968  1.00  0.00     0.066 C 
HETATM    8  C   UNL     1       5.746  27.032  54.544  1.00  0.00     0.221 C 
HETATM    9  C   UNL     1       3.648  29.953  54.507  1.00  0.00     0.115 A 
HETATM   10 CL   UNL     1       2.688  31.181  55.178  1.00  0.00    -0.077 Cl
HETATM   11  H   UNL     1       3.988  29.261  57.200  1.00  0.00     0.162 HD
ENDROOT
BRANCH   6  12
HETATM   12  C   UNL     1       6.681  28.342  57.274  1.00  0.00    -0.035 A 
HETATM   13  C   UNL     1       6.793  29.598  57.889  1.00  0.00     0.012 A 
HETATM   14  C   UNL     1       8.044  30.178  58.120  1.00  0.00     0.037 A 
HETATM   15  C   UNL     1       9.217  29.520  57.755  1.00  0.00     0.068 A 
HETATM   16  C   UNL     1       9.127  28.265  57.158  1.00  0.00     0.037 A 
HETATM   17  C   UNL     1       7.874  27.682  56.926  1.00  0.00     0.012 A 
BRANCH  15  18
HETATM   18  O   UNL     1      10.366  30.203  58.036  1.00  0.00    -0.356 OA
HETATM   19  C   UNL     1      10.231  31.570  58.400  1.00  0.00     0.210 C 
ENDBRANCH  15  18
ENDBRANCH   6  12
BRANCH   8  20
HETATM   20  C   UNL     1       5.539  25.910  53.550  1.00  0.00     0.409 C 
HETATM   21  F   UNL     1       6.302  26.028  52.442  1.00  0.00    -0.169 F 
HETATM   22  F   UNL     1       5.881  24.724  54.119  1.00  0.00    -0.169 F 
HETATM   23  F   UNL     1       4.250  25.795  53.162  1.00  0.00    -0.169 F 
ENDBRANCH   8  20
BRANCH   1  24
HETATM   24  C   UNL     1       3.786  30.688  52.012  1.00  0.00     0.273 C 
HETATM   25  N   UNL     1       2.442  30.746  51.705  1.00  0.00    -0.356 N 
HETATM   26  H   UNL     1       1.841  30.148  52.268  1.00  0.00     0.162 HD
HETATM   27  O   UNL     1       4.648  31.284  51.375  1.00  0.00    -0.266 OA
BRANCH  25  28
HETATM   28  C   UNL     1       1.931  31.395  50.522  1.00  0.00     0.122 C 
BRANCH  28  29
HETATM   29  C   UNL     1       0.926  30.526  49.767  1.00  0.00     0.015 C 
HETATM   30  C   UNL     1       1.505  29.177  49.361  1.00  0.00     0.006 C 
ENDBRANCH  28  29
ENDBRANCH  25  28
ENDBRANCH   1  24
TORSDOF 6
ENDMDL
MODEL 10
REMARK VINA RESULT:      -6.9      9.528     12.267
REMARK  6 active torsions:
REMARK  status: ('A' for Active; 'I' for Inactive)
REMARK    1  A    between atoms: C_2  and  C_3 
REMARK    2  A    between atoms: C_3  and  N_4 
REMARK       I    between atoms: N_4  and  C_5 
REMARK    3  A    between atoms: C_5  and  C_6 
REMARK    4  A    between atoms: C_11  and  C_12 
REMARK    5  A    between atoms: C_15  and  O_16 
REMARK    6  A    between atoms: C_21  and  C_22 
ROOT
HETATM    1  C   UNL     1       3.991  33.166  61.157  1.00  0.00     0.170 A 
HETATM    2  N   UNL     1       5.100  33.263  61.932  1.00  0.00    -0.163 NA
HETATM    3  N   UNL     1       4.820  34.273  62.774  1.00  0.00    -0.238 N 
HETATM    4  C   UNL     1       3.629  34.896  62.507  1.00  0.00     0.145 A 
HETATM    5  N   UNL     1       3.269  36.031  63.164  1.00  0.00    -0.365 N 
HETATM    6  C   UNL     1       4.269  36.800  63.905  1.00  0.00     0.118 C 
HETATM    7  C   UNL     1       5.163  35.809  64.669  1.00  0.00     0.066 C 
HETATM    8  C   UNL     1       5.801  34.771  63.725  1.00  0.00     0.221 C 
HETATM    9  C   UNL     1       3.041  34.167  61.500  1.00  0.00     0.115 A 
HETATM   10 CL   UNL     1       1.538  34.474  60.774  1.00  0.00    -0.077 Cl
HETATM   11  H   UNL     1       2.485  36.579  62.809  1.00  0.00     0.162 HD
ENDROOT
BRANCH   6  12
HETATM   12  C   UNL     1       5.058  37.774  63.038  1.00  0.00    -0.035 A 
HETATM   13  C   UNL     1       6.117  38.557  63.524  1.00  0.00     0.012 A 
HETATM   14  C   UNL     1       6.797  39.447  62.687  1.00  0.00     0.037 A 
HETATM   15  C   UNL     1       6.449  39.575  61.344  1.00  0.00     0.068 A 
HETATM   16  C   UNL     1       5.412  38.794  60.839  1.00  0.00     0.037 A 
HETATM   17  C   UNL     1       4.730  37.901  61.676  1.00  0.00     0.012 A 
BRANCH  15  18
HETATM   18  O   UNL     1       7.193  40.483  60.645  1.00  0.00    -0.356 OA
HETATM   19  C   UNL     1       7.112  41.840  61.060  1.00  0.00     0.210 C 
ENDBRANCH  15  18
ENDBRANCH   6  12
BRANCH   8  20
HETATM   20  C   UNL     1       6.405  33.649  64.542  1.00  0.00     0.409 C 
HETATM   21  F   UNL     1       6.856  34.049  65.750  1.00  0.00    -0.169 F 
HETATM   22  F   UNL     1       5.461  32.701  64.786  1.00  0.00    -0.169 F 
HETATM   23  F   UNL     1       7.418  33.029  63.898  1.00  0.00    -0.169 F 
ENDBRANCH   8  20
BRANCH   1  24
HETATM   24  C   UNL     1       3.910  32.155  60.091  1.00  0.00     0.273 C 
HETATM   25  N   UNL     1       5.114  31.960  59.446  1.00  0.00    -0.356 N 
HETATM   26  H   UNL     1       5.874  32.563  59.752  1.00  0.00     0.162 HD
HETATM   27  O   UNL     1       2.879  31.567  59.784  1.00  0.00    -0.266 OA
BRANCH  25  28
HETATM   28  C   UNL     1       5.249  31.155  58.257  1.00  0.00     0.122 C 
BRANCH  28  29
HETATM   29  C   UNL     1       6.666  30.612  58.077  1.00  0.00     0.015 C 
HETATM   30  C   UNL     1       7.701  31.395  58.873  1.00  0.00     0.006 C 
ENDBRANCH  28  29
ENDBRANCH  25  28
ENDBRANCH   1  24
TORSDOF 6
ENDMDL
