MODEL 1
REMARK VINA RESULT:     -11.0      0.000      0.000
REMARK  8 active torsions:
REMARK  status: ('A' for Active; 'I' for Inactive)
REMARK    1  A    between atoms: C_3  and  N_4 
REMARK       I    between atoms: N_4  and  C_5 
REMARK    2  A    between atoms: C_5  and  C_6 
REMARK    3  A    between atoms: C_6  and  S_7 
REMARK    4  A    between atoms: S_7  and  C_8 
REMARK    5  A    between atoms: N_9  and  C_10 
REMARK    6  A    between atoms: C_10  and  C_11 
REMARK       I    between atoms: C_11  and  N_12 
REMARK    7  A    between atoms: N_12  and  C_13 
REMARK    8  A    between atoms: C_20  and  C_21 
ROOT
HETATM    1  C   UNL     1       8.055  28.511  56.585  1.00  0.00     0.169 A 
HETATM    2  N   UNL     1       7.412  27.359  56.193  1.00  0.00    -0.315 N 
HETATM    3  C   UNL     1       7.343  27.387  54.808  1.00  0.00     0.065 A 
HETATM    4  C   UNL     1       8.073  28.511  54.458  1.00  0.00     0.150 A 
HETATM    5  N   UNL     1       8.530  29.180  55.561  1.00  0.00    -0.234 NA
ENDROOT
BRANCH   1   6
HETATM    6  S   UNL     1       8.158  29.031  58.233  1.00  0.00    -0.083 SA
BRANCH   6   7
HETATM    7  C   UNL     1       7.318  30.634  58.170  1.00  0.00     0.185 C 
BRANCH   7   8
HETATM    8  C   UNL     1       7.731  31.545  59.316  1.00  0.00     0.231 C 
HETATM    9  N   UNL     1       6.949  31.386  60.446  1.00  0.00    -0.326 N 
HETATM   10  H   UNL     1       6.175  30.730  60.347  1.00  0.00     0.169 HD
HETATM   11  O   UNL     1       8.610  32.389  59.153  1.00  0.00    -0.272 OA
BRANCH   9  12
HETATM   12  C   UNL     1       6.937  32.196  61.604  1.00  0.00     0.046 A 
HETATM   13  C   UNL     1       7.907  31.907  62.598  1.00  0.00    -0.035 A 
HETATM   14  C   UNL     1       8.893  30.776  62.454  1.00  0.00     0.050 C 
HETATM   15  C   UNL     1       7.937  32.660  63.783  1.00  0.00     0.009 A 
HETATM   16  C   UNL     1       7.025  33.686  63.992  1.00  0.00     0.001 A 
HETATM   17  C   UNL     1       6.094  33.993  63.005  1.00  0.00     0.009 A 
HETATM   18  C   UNL     1       6.055  33.279  61.791  1.00  0.00    -0.035 A 
HETATM   19  C   UNL     1       5.096  33.782  60.746  1.00  0.00     0.050 C 
ENDBRANCH   9  12
ENDBRANCH   7   8
ENDBRANCH   6   7
ENDBRANCH   1   6
BRANCH   2  20
HETATM   20  C   UNL     1       7.013  26.264  57.065  1.00  0.00     0.234 C 
BRANCH  20  21
HETATM   21  C   UNL     1       7.936  25.072  57.190  1.00  0.00     0.236 C 
HETATM   22  N   UNL     1       7.836  24.056  56.275  1.00  0.00    -0.355 N 
HETATM   23  H   UNL     1       7.172  24.163  55.519  1.00  0.00     0.162 HD
HETATM   24  O   UNL     1       8.749  25.067  58.112  1.00  0.00    -0.272 OA
BRANCH  22  25
HETATM   25  C   UNL     1       8.777  22.942  56.110  1.00  0.00     0.084 C 
HETATM   26  C   UNL     1       8.302  21.666  56.816  1.00  0.00     0.025 C 
HETATM   27  C   UNL     1       7.421  20.771  55.956  1.00  0.00     0.002 C 
HETATM   28  C   UNL     1       8.114  20.420  54.647  1.00  0.00     0.000 C 
HETATM   29  C   UNL     1       8.514  21.658  53.854  1.00  0.00     0.002 C 
HETATM   30  C   UNL     1       9.282  22.694  54.678  1.00  0.00     0.025 C 
ENDBRANCH  22  25
ENDBRANCH  20  21
ENDBRANCH   2  20
BRANCH   3  31
HETATM   31  C   UNL     1       6.586  26.488  53.942  1.00  0.00    -0.008 A 
HETATM   32  C   UNL     1       7.204  25.473  53.204  1.00  0.00     0.017 A 
HETATM   33  C   UNL     1       6.444  24.631  52.388  1.00  0.00     0.043 A 
HETATM   34  C   UNL     1       5.070  24.817  52.296  1.00  0.00     0.116 A 
HETATM   35  F   UNL     1       4.345  24.011  51.511  1.00  0.00    -0.206 F 
HETATM   36  C   UNL     1       4.439  25.834  53.000  1.00  0.00     0.043 A 
HETATM   37  C   UNL     1       5.198  26.669  53.823  1.00  0.00     0.017 A 
ENDBRANCH   3  31
TORSDOF 8
ENDMDL
MODEL 2
REMARK VINA RESULT:     -10.4      2.247      4.576
REMARK  8 active torsions:
REMARK  status: ('A' for Active; 'I' for Inactive)
REMARK    1  A    between atoms: C_3  and  N_4 
REMARK       I    between atoms: N_4  and  C_5 
REMARK    2  A    between atoms: C_5  and  C_6 
REMARK    3  A    between atoms: C_6  and  S_7 
REMARK    4  A    between atoms: S_7  and  C_8 
REMARK    5  A    between atoms: N_9  and  C_10 
REMARK    6  A    between atoms: C_10  and  C_11 
REMARK       I    between atoms: C_11  and  N_12 
REMARK    7  A    between atoms: N_12  and  C_13 
REMARK    8  A    between atoms: C_20  and  C_21 
ROOT
HETATM    1  C   UNL     1       8.001  28.012  57.124  1.00  0.00     0.169 A 
HETATM    2  N   UNL     1       7.858  27.348  55.927  1.00  0.00    -0.315 N 
HETATM    3  C   UNL     1       7.629  26.013  56.230  1.00  0.00     0.065 A 
HETATM    4  C   UNL     1       7.526  25.996  57.611  1.00  0.00     0.150 A 
HETATM    5  N   UNL     1       7.729  27.238  58.149  1.00  0.00    -0.234 NA
ENDROOT
BRANCH   1   6
HETATM    6  S   UNL     1       8.539  29.653  57.245  1.00  0.00    -0.083 SA
BRANCH   6   7
HETATM    7  C   UNL     1       7.139  30.442  58.077  1.00  0.00     0.185 C 
BRANCH   7   8
HETATM    8  C   UNL     1       7.586  31.389  59.182  1.00  0.00     0.231 C 
HETATM    9  N   UNL     1       6.869  31.234  60.355  1.00  0.00    -0.326 N 
HETATM   10  H   UNL     1       6.110  30.554  60.310  1.00  0.00     0.169 HD
HETATM   11  O   UNL     1       8.431  32.252  58.955  1.00  0.00    -0.272 OA
BRANCH   9  12
HETATM   12  C   UNL     1       6.895  32.067  61.495  1.00  0.00     0.046 A 
HETATM   13  C   UNL     1       7.915  31.817  62.448  1.00  0.00    -0.035 A 
HETATM   14  C   UNL     1       8.915  30.701  62.281  1.00  0.00     0.050 C 
HETATM   15  C   UNL     1       7.986  32.596  63.615  1.00  0.00     0.009 A 
HETATM   16  C   UNL     1       7.066  33.609  63.845  1.00  0.00     0.001 A 
HETATM   17  C   UNL     1       6.084  33.878  62.896  1.00  0.00     0.009 A 
HETATM   18  C   UNL     1       6.003  33.138  61.701  1.00  0.00    -0.035 A 
HETATM   19  C   UNL     1       4.987  33.601  60.692  1.00  0.00     0.050 C 
ENDBRANCH   9  12
ENDBRANCH   7   8
ENDBRANCH   6   7
ENDBRANCH   1   6
BRANCH   2  20
HETATM   20  C   UNL     1       7.814  27.962  54.609  1.00  0.00     0.234 C 
BRANCH  20  21
HETATM   21  C   UNL     1       6.463  28.285  54.010  1.00  0.00     0.236 C 
HETATM   22  N   UNL     1       6.382  28.572  52.672  1.00  0.00    -0.355 N 
HETATM   23  H   UNL     1       7.229  28.514  52.122  1.00  0.00     0.162 HD
HETATM   24  O   UNL     1       5.484  28.271  54.755  1.00  0.00    -0.272 OA
BRANCH  22  25
HETATM   25  C   UNL     1       5.149  28.692  51.885  1.00  0.00     0.084 C 
HETATM   26  C   UNL     1       5.232  29.808  50.835  1.00  0.00     0.025 C 
HETATM   27  C   UNL     1       5.793  29.358  49.493  1.00  0.00     0.002 C 
HETATM   28  C   UNL     1       5.008  28.176  48.943  1.00  0.00     0.000 C 
HETATM   29  C   UNL     1       4.984  26.997  49.908  1.00  0.00     0.002 C 
HETATM   30  C   UNL     1       4.572  27.378  51.332  1.00  0.00     0.025 C 
ENDBRANCH  22  25
ENDBRANCH  20  21
ENDBRANCH   2  20
BRANCH   3  31
HETATM   31  C   UNL     1       7.609  24.887  55.303  1.00  0.00    -0.008 A 
HETATM   32  C   UNL     1       6.675  24.798  54.264  1.00  0.00     0.017 A 
HETATM   33  C   UNL     1       6.689  23.704  53.395  1.00  0.00     0.043 A 
HETATM   34  C   UNL     1       7.624  22.691  53.576  1.00  0.00     0.116 A 
HETATM   35  F   UNL     1       7.633  21.643  52.743  1.00  0.00    -0.206 F 
HETATM   36  C   UNL     1       8.544  22.748  54.614  1.00  0.00     0.043 A 
HETATM   37  C   UNL     1       8.535  23.846  55.477  1.00  0.00     0.017 A 
ENDBRANCH   3  31
TORSDOF 8
ENDMDL
MODEL 3
REMARK VINA RESULT:     -10.3      2.295      5.045
REMARK  8 active torsions:
REMARK  status: ('A' for Active; 'I' for Inactive)
REMARK    1  A    between atoms: C_3  and  N_4 
REMARK       I    between atoms: N_4  and  C_5 
REMARK    2  A    between atoms: C_5  and  C_6 
REMARK    3  A    between atoms: C_6  and  S_7 
REMARK    4  A    between atoms: S_7  and  C_8 
REMARK    5  A    between atoms: N_9  and  C_10 
REMARK    6  A    between atoms: C_10  and  C_11 
REMARK       I    between atoms: C_11  and  N_12 
REMARK    7  A    between atoms: N_12  and  C_13 
REMARK    8  A    between atoms: C_20  and  C_21 
ROOT
HETATM    1  C   UNL     1       7.570  26.521  57.299  1.00  0.00     0.169 A 
HETATM    2  N   UNL     1       7.134  25.760  56.239  1.00  0.00    -0.315 N 
HETATM    3  C   UNL     1       7.837  24.565  56.284  1.00  0.00     0.065 A 
HETATM    4  C   UNL     1       8.564  24.648  57.460  1.00  0.00     0.150 A 
HETATM    5  N   UNL     1       8.370  25.847  58.091  1.00  0.00    -0.234 NA
ENDROOT
BRANCH   1   6
HETATM    6  S   UNL     1       7.153  28.188  57.510  1.00  0.00    -0.083 SA
BRANCH   6   7
HETATM    7  C   UNL     1       8.768  28.995  57.372  1.00  0.00     0.185 C 
BRANCH   7   8
HETATM    8  C   UNL     1       8.939  30.115  58.389  1.00  0.00     0.231 C 
HETATM    9  N   UNL     1       7.984  30.093  59.389  1.00  0.00    -0.326 N 
HETATM   10  H   UNL     1       7.268  29.375  59.286  1.00  0.00     0.169 HD
HETATM   11  O   UNL     1       9.796  30.980  58.220  1.00  0.00    -0.272 OA
BRANCH   9  12
HETATM   12  C   UNL     1       7.740  31.084  60.366  1.00  0.00     0.046 A 
HETATM   13  C   UNL     1       6.671  31.982  60.115  1.00  0.00    -0.035 A 
HETATM   14  C   UNL     1       5.844  31.914  58.857  1.00  0.00     0.050 C 
HETATM   15  C   UNL     1       6.388  33.004  61.036  1.00  0.00     0.009 A 
HETATM   16  C   UNL     1       7.144  33.143  62.192  1.00  0.00     0.001 A 
HETATM   17  C   UNL     1       8.171  32.243  62.457  1.00  0.00     0.009 A 
HETATM   18  C   UNL     1       8.464  31.188  61.571  1.00  0.00    -0.035 A 
HETATM   19  C   UNL     1       9.506  30.200  62.022  1.00  0.00     0.050 C 
ENDBRANCH   9  12
ENDBRANCH   7   8
ENDBRANCH   6   7
ENDBRANCH   1   6
BRANCH   2  20
HETATM   20  C   UNL     1       6.043  26.096  55.337  1.00  0.00     0.234 C 
BRANCH  20  21
HETATM   21  C   UNL     1       6.338  26.995  54.155  1.00  0.00     0.236 C 
HETATM   22  N   UNL     1       5.301  27.405  53.358  1.00  0.00    -0.355 N 
HETATM   23  H   UNL     1       4.364  27.124  53.617  1.00  0.00     0.162 HD
HETATM   24  O   UNL     1       7.506  27.327  53.962  1.00  0.00    -0.272 OA
BRANCH  22  25
HETATM   25  C   UNL     1       5.364  28.436  52.317  1.00  0.00     0.084 C 
HETATM   26  C   UNL     1       5.575  27.842  50.918  1.00  0.00     0.025 C 
HETATM   27  C   UNL     1       4.284  27.490  50.192  1.00  0.00     0.002 C 
HETATM   28  C   UNL     1       3.354  28.692  50.119  1.00  0.00     0.000 C 
HETATM   29  C   UNL     1       3.028  29.258  51.495  1.00  0.00     0.002 C 
HETATM   30  C   UNL     1       4.263  29.509  52.363  1.00  0.00     0.025 C 
ENDBRANCH  22  25
ENDBRANCH  20  21
ENDBRANCH   2  20
BRANCH   3  31
HETATM   31  C   UNL     1       7.869  23.518  55.268  1.00  0.00    -0.008 A 
HETATM   32  C   UNL     1       8.007  23.811  53.906  1.00  0.00     0.017 A 
HETATM   33  C   UNL     1       8.035  22.780  52.963  1.00  0.00     0.043 A 
HETATM   34  C   UNL     1       7.907  21.460  53.379  1.00  0.00     0.116 A 
HETATM   35  F   UNL     1       7.932  20.475  52.473  1.00  0.00    -0.206 F 
HETATM   36  C   UNL     1       7.745  21.149  54.723  1.00  0.00     0.043 A 
HETATM   37  C   UNL     1       7.725  22.179  55.666  1.00  0.00     0.017 A 
ENDBRANCH   3  31
TORSDOF 8
ENDMDL
MODEL 4
REMARK VINA RESULT:     -10.2      3.282      5.925
REMARK  8 active torsions:
REMARK  status: ('A' for Active; 'I' for Inactive)
REMARK    1  A    between atoms: C_3  and  N_4 
REMARK       I    between atoms: N_4  and  C_5 
REMARK    2  A    between atoms: C_5  and  C_6 
REMARK    3  A    between atoms: C_6  and  S_7 
REMARK    4  A    between atoms: S_7  and  C_8 
REMARK    5  A    between atoms: N_9  and  C_10 
REMARK    6  A    between atoms: C_10  and  C_11 
REMARK       I    between atoms: C_11  and  N_12 
REMARK    7  A    between atoms: N_12  and  C_13 
REMARK    8  A    between atoms: C_20  and  C_21 
ROOT
HETATM    1  C   UNL     1       5.581  26.540  55.222  1.00  0.00     0.169 A 
HETATM    2  N   UNL     1       5.715  25.424  54.427  1.00  0.00    -0.315 N 
HETATM    3  C   UNL     1       6.605  24.576  55.068  1.00  0.00     0.065 A 
HETATM    4  C   UNL     1       6.848  25.199  56.281  1.00  0.00     0.150 A 
HETATM    5  N   UNL     1       6.189  26.395  56.376  1.00  0.00    -0.234 NA
ENDROOT
BRANCH   1   6
HETATM    6  S   UNL     1       4.760  27.978  54.716  1.00  0.00    -0.083 SA
BRANCH   6   7
HETATM    7  C   UNL     1       4.548  28.855  56.286  1.00  0.00     0.185 C 
BRANCH   7   8
HETATM    8  C   UNL     1       5.671  29.849  56.545  1.00  0.00     0.231 C 
HETATM    9  N   UNL     1       6.472  29.497  57.617  1.00  0.00    -0.326 N 
HETATM   10  H   UNL     1       6.176  28.660  58.120  1.00  0.00     0.169 HD
HETATM   11  O   UNL     1       5.740  30.891  55.899  1.00  0.00    -0.272 OA
BRANCH   9  12
HETATM   12  C   UNL     1       7.469  30.280  58.240  1.00  0.00     0.046 A 
HETATM   13  C   UNL     1       8.817  29.920  57.987  1.00  0.00    -0.035 A 
HETATM   14  C   UNL     1       9.186  28.742  57.121  1.00  0.00     0.050 C 
HETATM   15  C   UNL     1       9.858  30.644  58.591  1.00  0.00     0.009 A 
HETATM   16  C   UNL     1       9.579  31.712  59.434  1.00  0.00     0.001 A 
HETATM   17  C   UNL     1       8.258  32.088  59.657  1.00  0.00     0.009 A 
HETATM   18  C   UNL     1       7.191  31.404  59.043  1.00  0.00    -0.035 A 
HETATM   19  C   UNL     1       5.816  31.979  59.251  1.00  0.00     0.050 C 
ENDBRANCH   9  12
ENDBRANCH   7   8
ENDBRANCH   6   7
ENDBRANCH   1   6
BRANCH   2  20
HETATM   20  C   UNL     1       4.955  25.139  53.219  1.00  0.00     0.234 C 
BRANCH  20  21
HETATM   21  C   UNL     1       5.357  25.832  51.936  1.00  0.00     0.236 C 
HETATM   22  N   UNL     1       4.437  25.943  50.925  1.00  0.00    -0.355 N 
HETATM   23  H   UNL     1       3.503  25.594  51.094  1.00  0.00     0.162 HD
HETATM   24  O   UNL     1       6.502  26.274  51.854  1.00  0.00    -0.272 OA
BRANCH  22  25
HETATM   25  C   UNL     1       4.575  26.760  49.715  1.00  0.00     0.084 C 
HETATM   26  C   UNL     1       4.313  25.957  48.434  1.00  0.00     0.025 C 
HETATM   27  C   UNL     1       2.854  25.940  48.000  1.00  0.00     0.002 C 
HETATM   28  C   UNL     1       2.312  27.354  47.853  1.00  0.00     0.000 C 
HETATM   29  C   UNL     1       2.454  28.165  49.136  1.00  0.00     0.002 C 
HETATM   30  C   UNL     1       3.862  28.122  49.736  1.00  0.00     0.025 C 
ENDBRANCH  22  25
ENDBRANCH  20  21
ENDBRANCH   2  20
BRANCH   3  31
HETATM   31  C   UNL     1       7.214  23.363  54.532  1.00  0.00    -0.008 A 
HETATM   32  C   UNL     1       7.554  23.240  53.180  1.00  0.00     0.017 A 
HETATM   33  C   UNL     1       8.138  22.062  52.704  1.00  0.00     0.043 A 
HETATM   34  C   UNL     1       8.364  21.003  53.576  1.00  0.00     0.116 A 
HETATM   35  F   UNL     1       8.921  19.876  53.116  1.00  0.00    -0.206 F 
HETATM   36  C   UNL     1       8.011  21.096  54.915  1.00  0.00     0.043 A 
HETATM   37  C   UNL     1       7.436  22.275  55.392  1.00  0.00     0.017 A 
ENDBRANCH   3  31
TORSDOF 8
ENDMDL
MODEL 5
REMARK VINA RESULT:     -10.2      3.069      9.984
REMARK  8 active torsions:
REMARK  status: ('A' for Active; 'I' for Inactive)
REMARK    1  A    between atoms: C_3  and  N_4 
REMARK       I    between atoms: N_4  and  C_5 
REMARK    2  A    between atoms: C_5  and  C_6 
REMARK    3  A    between atoms: C_6  and  S_7 
REMARK    4  A    between atoms: S_7  and  C_8 
REMARK    5  A    between atoms: N_9  and  C_10 
REMARK    6  A    between atoms: C_10  and  C_11 
REMARK       I    between atoms: C_11  and  N_12 
REMARK    7  A    between atoms: N_12  and  C_13 
REMARK    8  A    between atoms: C_20  and  C_21 
ROOT
HETATM    1  C   UNL     1       6.231  28.682  55.275  1.00  0.00     0.169 A 
HETATM    2  N   UNL     1       6.129  29.233  56.532  1.00  0.00    -0.315 N 
HETATM    3  C   UNL     1       5.126  30.189  56.473  1.00  0.00     0.065 A 
HETATM    4  C   UNL     1       4.606  30.052  55.196  1.00  0.00     0.150 A 
HETATM    5  N   UNL     1       5.277  29.101  54.477  1.00  0.00    -0.234 NA
ENDROOT
BRANCH   1   6
HETATM    6  S   UNL     1       7.511  27.616  54.802  1.00  0.00    -0.083 SA
BRANCH   6   7
HETATM    7  C   UNL     1       7.531  26.431  56.172  1.00  0.00     0.185 C 
BRANCH   7   8
HETATM    8  C   UNL     1       7.083  25.043  55.738  1.00  0.00     0.231 C 
HETATM    9  N   UNL     1       8.137  24.208  55.412  1.00  0.00    -0.326 N 
HETATM   10  H   UNL     1       9.059  24.643  55.450  1.00  0.00     0.169 HD
HETATM   11  O   UNL     1       5.888  24.788  55.609  1.00  0.00    -0.272 OA
BRANCH   9  12
HETATM   12  C   UNL     1       8.070  22.938  54.797  1.00  0.00     0.046 A 
HETATM   13  C   UNL     1       7.996  22.916  53.380  1.00  0.00    -0.035 A 
HETATM   14  C   UNL     1       7.962  24.177  52.557  1.00  0.00     0.050 C 
HETATM   15  C   UNL     1       7.906  21.686  52.706  1.00  0.00     0.009 A 
HETATM   16  C   UNL     1       7.888  20.492  53.414  1.00  0.00     0.001 A 
HETATM   17  C   UNL     1       7.993  20.511  54.801  1.00  0.00     0.009 A 
HETATM   18  C   UNL     1       8.117  21.723  55.507  1.00  0.00    -0.035 A 
HETATM   19  C   UNL     1       8.356  21.615  56.990  1.00  0.00     0.050 C 
ENDBRANCH   9  12
ENDBRANCH   7   8
ENDBRANCH   6   7
ENDBRANCH   1   6
BRANCH   2  20
HETATM   20  C   UNL     1       6.843  28.790  57.719  1.00  0.00     0.234 C 
BRANCH  20  21
HETATM   21  C   UNL     1       7.947  29.668  58.265  1.00  0.00     0.236 C 
HETATM   22  N   UNL     1       7.694  30.445  59.366  1.00  0.00    -0.355 N 
HETATM   23  H   UNL     1       6.784  30.368  59.802  1.00  0.00     0.162 HD
HETATM   24  O   UNL     1       9.037  29.645  57.696  1.00  0.00    -0.272 OA
BRANCH  22  25
HETATM   25  C   UNL     1       8.689  31.182  60.153  1.00  0.00     0.084 C 
HETATM   26  C   UNL     1       8.288  32.645  60.380  1.00  0.00     0.025 C 
HETATM   27  C   UNL     1       7.445  32.872  61.627  1.00  0.00     0.002 C 
HETATM   28  C   UNL     1       8.140  32.320  62.863  1.00  0.00     0.000 C 
HETATM   29  C   UNL     1       8.468  30.837  62.730  1.00  0.00     0.002 C 
HETATM   30  C   UNL     1       9.191  30.483  61.428  1.00  0.00     0.025 C 
ENDBRANCH  22  25
ENDBRANCH  20  21
ENDBRANCH   2  20
BRANCH   3  31
HETATM   31  C   UNL     1       4.781  31.173  57.494  1.00  0.00    -0.008 A 
HETATM   32  C   UNL     1       5.395  32.430  57.551  1.00  0.00     0.017 A 
HETATM   33  C   UNL     1       5.035  33.346  58.543  1.00  0.00     0.043 A 
HETATM   34  C   UNL     1       4.078  32.998  59.488  1.00  0.00     0.116 A 
HETATM   35  F   UNL     1       3.738  33.877  60.439  1.00  0.00    -0.206 F 
HETATM   36  C   UNL     1       3.474  31.748  59.465  1.00  0.00     0.043 A 
HETATM   37  C   UNL     1       3.827  30.836  58.468  1.00  0.00     0.017 A 
ENDBRANCH   3  31
TORSDOF 8
ENDMDL
MODEL 6
REMARK VINA RESULT:     -10.0      3.015      5.273
REMARK  8 active torsions:
REMARK  status: ('A' for Active; 'I' for Inactive)
REMARK    1  A    between atoms: C_3  and  N_4 
REMARK       I    between atoms: N_4  and  C_5 
REMARK    2  A    between atoms: C_5  and  C_6 
REMARK    3  A    between atoms: C_6  and  S_7 
REMARK    4  A    between atoms: S_7  and  C_8 
REMARK    5  A    between atoms: N_9  and  C_10 
REMARK    6  A    between atoms: C_10  and  C_11 
REMARK       I    between atoms: C_11  and  N_12 
REMARK    7  A    between atoms: N_12  and  C_13 
REMARK    8  A    between atoms: C_20  and  C_21 
ROOT
HETATM    1  C   UNL     1       5.981  28.516  55.740  1.00  0.00     0.169 A 
HETATM    2  N   UNL     1       5.824  27.441  54.896  1.00  0.00    -0.315 N 
HETATM    3  C   UNL     1       6.754  26.487  55.281  1.00  0.00     0.065 A 
HETATM    4  C   UNL     1       7.326  27.018  56.425  1.00  0.00     0.150 A 
HETATM    5  N   UNL     1       6.821  28.257  56.714  1.00  0.00    -0.234 NA
ENDROOT
BRANCH   1   6
HETATM    6  S   UNL     1       5.204  30.044  55.492  1.00  0.00    -0.083 SA
BRANCH   6   7
HETATM    7  C   UNL     1       4.735  30.499  57.181  1.00  0.00     0.185 C 
BRANCH   7   8
HETATM    8  C   UNL     1       5.779  31.381  57.850  1.00  0.00     0.231 C 
HETATM    9  N   UNL     1       6.565  30.697  58.760  1.00  0.00    -0.326 N 
HETATM   10  H   UNL     1       6.310  29.720  58.903  1.00  0.00     0.169 HD
HETATM   11  O   UNL     1       5.799  32.591  57.637  1.00  0.00    -0.272 OA
BRANCH   9  12
HETATM   12  C   UNL     1       7.486  31.244  59.682  1.00  0.00     0.046 A 
HETATM   13  C   UNL     1       8.863  31.097  59.374  1.00  0.00    -0.035 A 
HETATM   14  C   UNL     1       9.339  30.372  58.142  1.00  0.00     0.050 C 
HETATM   15  C   UNL     1       9.832  31.599  60.259  1.00  0.00     0.009 A 
HETATM   16  C   UNL     1       9.455  32.238  61.432  1.00  0.00     0.001 A 
HETATM   17  C   UNL     1       8.105  32.412  61.719  1.00  0.00     0.009 A 
HETATM   18  C   UNL     1       7.106  31.949  60.841  1.00  0.00    -0.035 A 
HETATM   19  C   UNL     1       5.686  32.308  61.188  1.00  0.00     0.050 C 
ENDBRANCH   9  12
ENDBRANCH   7   8
ENDBRANCH   6   7
ENDBRANCH   1   6
BRANCH   2  20
HETATM   20  C   UNL     1       4.784  27.289  53.890  1.00  0.00     0.234 C 
BRANCH  20  21
HETATM   21  C   UNL     1       5.088  27.715  52.470  1.00  0.00     0.236 C 
HETATM   22  N   UNL     1       4.240  27.327  51.465  1.00  0.00    -0.355 N 
HETATM   23  H   UNL     1       3.412  26.804  51.719  1.00  0.00     0.162 HD
HETATM   24  O   UNL     1       6.090  28.401  52.277  1.00  0.00    -0.272 OA
BRANCH  22  25
HETATM   25  C   UNL     1       4.253  27.820  50.083  1.00  0.00     0.084 C 
HETATM   26  C   UNL     1       4.665  26.735  49.080  1.00  0.00     0.025 C 
HETATM   27  C   UNL     1       3.503  25.906  48.549  1.00  0.00     0.002 C 
HETATM   28  C   UNL     1       2.428  26.799  47.947  1.00  0.00     0.000 C 
HETATM   29  C   UNL     1       1.908  27.831  48.940  1.00  0.00     0.002 C 
HETATM   30  C   UNL     1       3.016  28.620  49.642  1.00  0.00     0.025 C 
ENDBRANCH  22  25
ENDBRANCH  20  21
ENDBRANCH   2  20
BRANCH   3  31
HETATM   31  C   UNL     1       7.107  25.260  54.573  1.00  0.00    -0.008 A 
HETATM   32  C   UNL     1       6.948  23.997  55.154  1.00  0.00     0.017 A 
HETATM   33  C   UNL     1       7.296  22.845  54.443  1.00  0.00     0.043 A 
HETATM   34  C   UNL     1       7.820  22.958  53.160  1.00  0.00     0.116 A 
HETATM   35  F   UNL     1       8.154  21.853  52.482  1.00  0.00    -0.206 F 
HETATM   36  C   UNL     1       8.008  24.203  52.574  1.00  0.00     0.043 A 
HETATM   37  C   UNL     1       7.653  25.353  53.282  1.00  0.00     0.017 A 
ENDBRANCH   3  31
TORSDOF 8
ENDMDL
MODEL 7
REMARK VINA RESULT:      -9.9      2.904      4.483
REMARK  8 active torsions:
REMARK  status: ('A' for Active; 'I' for Inactive)
REMARK    1  A    between atoms: C_3  and  N_4 
REMARK       I    between atoms: N_4  and  C_5 
REMARK    2  A    between atoms: C_5  and  C_6 
REMARK    3  A    between atoms: C_6  and  S_7 
REMARK    4  A    between atoms: S_7  and  C_8 
REMARK    5  A    between atoms: N_9  and  C_10 
REMARK    6  A    between atoms: C_10  and  C_11 
REMARK       I    between atoms: C_11  and  N_12 
REMARK    7  A    between atoms: N_12  and  C_13 
REMARK    8  A    between atoms: C_20  and  C_21 
ROOT
HETATM    1  C   UNL     1       5.351  27.551  54.031  1.00  0.00     0.169 A 
HETATM    2  N   UNL     1       5.117  26.874  52.856  1.00  0.00    -0.315 N 
HETATM    3  C   UNL     1       4.825  27.828  51.892  1.00  0.00     0.065 A 
HETATM    4  C   UNL     1       5.032  29.034  52.540  1.00  0.00     0.150 A 
HETATM    5  N   UNL     1       5.383  28.851  53.850  1.00  0.00    -0.234 NA
ENDROOT
BRANCH   1   6
HETATM    6  S   UNL     1       5.517  26.768  55.566  1.00  0.00    -0.083 SA
BRANCH   6   7
HETATM    7  C   UNL     1       7.308  26.838  55.826  1.00  0.00     0.185 C 
BRANCH   7   8
HETATM    8  C   UNL     1       7.680  27.678  57.040  1.00  0.00     0.231 C 
HETATM    9  N   UNL     1       7.900  29.009  56.733  1.00  0.00    -0.326 N 
HETATM   10  H   UNL     1       7.840  29.238  55.741  1.00  0.00     0.169 HD
HETATM   11  O   UNL     1       7.854  27.146  58.133  1.00  0.00    -0.272 OA
BRANCH   9  12
HETATM   12  C   UNL     1       8.440  30.007  57.574  1.00  0.00     0.046 A 
HETATM   13  C   UNL     1       9.848  30.179  57.542  1.00  0.00    -0.035 A 
HETATM   14  C   UNL     1      10.742  29.327  56.678  1.00  0.00     0.050 C 
HETATM   15  C   UNL     1      10.452  31.140  58.370  1.00  0.00     0.009 A 
HETATM   16  C   UNL     1       9.684  31.924  59.220  1.00  0.00     0.001 A 
HETATM   17  C   UNL     1       8.300  31.780  59.228  1.00  0.00     0.009 A 
HETATM   18  C   UNL     1       7.658  30.848  58.390  1.00  0.00    -0.035 A 
HETATM   19  C   UNL     1       6.153  30.871  58.388  1.00  0.00     0.050 C 
ENDBRANCH   9  12
ENDBRANCH   7   8
ENDBRANCH   6   7
ENDBRANCH   1   6
BRANCH   2  20
HETATM   20  C   UNL     1       5.286  25.444  52.645  1.00  0.00     0.234 C 
BRANCH  20  21
HETATM   21  C   UNL     1       6.683  24.867  52.720  1.00  0.00     0.236 C 
HETATM   22  N   UNL     1       6.970  23.948  53.696  1.00  0.00    -0.355 N 
HETATM   23  H   UNL     1       6.219  23.656  54.307  1.00  0.00     0.162 HD
HETATM   24  O   UNL     1       7.508  25.246  51.890  1.00  0.00    -0.272 OA
BRANCH  22  25
HETATM   25  C   UNL     1       8.184  23.130  53.785  1.00  0.00     0.084 C 
HETATM   26  C   UNL     1       8.576  22.823  55.236  1.00  0.00     0.025 C 
HETATM   27  C   UNL     1       7.940  21.559  55.797  1.00  0.00     0.002 C 
HETATM   28  C   UNL     1       8.234  20.360  54.908  1.00  0.00     0.000 C 
HETATM   29  C   UNL     1       7.767  20.574  53.473  1.00  0.00     0.002 C 
HETATM   30  C   UNL     1       8.237  21.898  52.866  1.00  0.00     0.025 C 
ENDBRANCH  22  25
ENDBRANCH  20  21
ENDBRANCH   2  20
BRANCH   3  31
HETATM   31  C   UNL     1       4.320  27.595  50.543  1.00  0.00    -0.008 A 
HETATM   32  C   UNL     1       3.285  28.362  49.996  1.00  0.00     0.017 A 
HETATM   33  C   UNL     1       2.830  28.110  48.699  1.00  0.00     0.043 A 
HETATM   34  C   UNL     1       3.396  27.080  47.957  1.00  0.00     0.116 A 
HETATM   35  F   UNL     1       2.956  26.840  46.716  1.00  0.00    -0.206 F 
HETATM   36  C   UNL     1       4.407  26.291  48.489  1.00  0.00     0.043 A 
HETATM   37  C   UNL     1       4.868  26.549  49.782  1.00  0.00     0.017 A 
ENDBRANCH   3  31
TORSDOF 8
ENDMDL
MODEL 8
REMARK VINA RESULT:      -9.9      3.178     10.438
REMARK  8 active torsions:
REMARK  status: ('A' for Active; 'I' for Inactive)
REMARK    1  A    between atoms: C_3  and  N_4 
REMARK       I    between atoms: N_4  and  C_5 
REMARK    2  A    between atoms: C_5  and  C_6 
REMARK    3  A    between atoms: C_6  and  S_7 
REMARK    4  A    between atoms: S_7  and  C_8 
REMARK    5  A    between atoms: N_9  and  C_10 
REMARK    6  A    between atoms: C_10  and  C_11 
REMARK       I    between atoms: C_11  and  N_12 
REMARK    7  A    between atoms: N_12  and  C_13 
REMARK    8  A    between atoms: C_20  and  C_21 
ROOT
HETATM    1  C   UNL     1       6.258  29.425  57.347  1.00  0.00     0.169 A 
HETATM    2  N   UNL     1       6.350  30.665  57.936  1.00  0.00    -0.315 N 
HETATM    3  C   UNL     1       5.074  31.210  57.932  1.00  0.00     0.065 A 
HETATM    4  C   UNL     1       4.275  30.188  57.446  1.00  0.00     0.150 A 
HETATM    5  N   UNL     1       5.012  29.084  57.115  1.00  0.00    -0.234 NA
ENDROOT
BRANCH   1   6
HETATM    6  S   UNL     1       7.636  28.472  56.912  1.00  0.00    -0.083 SA
BRANCH   6   7
HETATM    7  C   UNL     1       7.187  27.905  55.252  1.00  0.00     0.185 C 
BRANCH   7   8
HETATM    8  C   UNL     1       6.851  26.421  55.222  1.00  0.00     0.231 C 
HETATM    9  N   UNL     1       7.929  25.626  54.879  1.00  0.00    -0.326 N 
HETATM   10  H   UNL     1       8.781  26.134  54.641  1.00  0.00     0.169 HD
HETATM   11  O   UNL     1       5.693  26.043  55.390  1.00  0.00    -0.272 OA
BRANCH   9  12
HETATM   12  C   UNL     1       7.919  24.246  54.576  1.00  0.00     0.046 A 
HETATM   13  C   UNL     1       7.871  23.893  53.203  1.00  0.00    -0.035 A 
HETATM   14  C   UNL     1       7.807  24.927  52.109  1.00  0.00     0.050 C 
HETATM   15  C   UNL     1       7.837  22.539  52.832  1.00  0.00     0.009 A 
HETATM   16  C   UNL     1       7.849  21.541  53.797  1.00  0.00     0.001 A 
HETATM   17  C   UNL     1       7.929  21.885  55.143  1.00  0.00     0.009 A 
HETATM   18  C   UNL     1       7.996  23.231  55.550  1.00  0.00    -0.035 A 
HETATM   19  C   UNL     1       8.213  23.480  57.018  1.00  0.00     0.050 C 
ENDBRANCH   9  12
ENDBRANCH   7   8
ENDBRANCH   6   7
ENDBRANCH   1   6
BRANCH   2  20
HETATM   20  C   UNL     1       7.536  31.226  58.566  1.00  0.00     0.234 C 
BRANCH  20  21
HETATM   21  C   UNL     1       7.771  30.944  60.034  1.00  0.00     0.236 C 
HETATM   22  N   UNL     1       7.000  31.589  60.965  1.00  0.00    -0.355 N 
HETATM   23  H   UNL     1       6.266  32.201  60.632  1.00  0.00     0.162 HD
HETATM   24  O   UNL     1       8.650  30.137  60.332  1.00  0.00    -0.272 OA
BRANCH  22  25
HETATM   25  C   UNL     1       6.937  31.284  62.399  1.00  0.00     0.084 C 
HETATM   26  C   UNL     1       8.111  31.890  63.178  1.00  0.00     0.025 C 
HETATM   27  C   UNL     1       7.857  33.303  63.684  1.00  0.00     0.002 C 
HETATM   28  C   UNL     1       6.586  33.362  64.519  1.00  0.00     0.000 C 
HETATM   29  C   UNL     1       5.366  32.867  63.752  1.00  0.00     0.002 C 
HETATM   30  C   UNL     1       5.575  31.509  63.077  1.00  0.00     0.025 C 
ENDBRANCH  22  25
ENDBRANCH  20  21
ENDBRANCH   2  20
BRANCH   3  31
HETATM   31  C   UNL     1       4.696  32.579  58.267  1.00  0.00    -0.008 A 
HETATM   32  C   UNL     1       4.150  32.914  59.512  1.00  0.00     0.017 A 
HETATM   33  C   UNL     1       3.803  34.237  59.797  1.00  0.00     0.043 A 
HETATM   34  C   UNL     1       3.984  35.221  58.831  1.00  0.00     0.116 A 
HETATM   35  F   UNL     1       3.648  36.487  59.107  1.00  0.00    -0.206 F 
HETATM   36  C   UNL     1       4.502  34.906  57.582  1.00  0.00     0.043 A 
HETATM   37  C   UNL     1       4.857  33.585  57.301  1.00  0.00     0.017 A 
ENDBRANCH   3  31
TORSDOF 8
ENDMDL
MODEL 9
REMARK VINA RESULT:      -9.7      2.927     10.226
REMARK  8 active torsions:
REMARK  status: ('A' for Active; 'I' for Inactive)
REMARK    1  A    between atoms: C_3  and  N_4 
REMARK       I    between atoms: N_4  and  C_5 
REMARK    2  A    between atoms: C_5  and  C_6 
REMARK    3  A    between atoms: C_6  and  S_7 
REMARK    4  A    between atoms: S_7  and  C_8 
REMARK    5  A    between atoms: N_9  and  C_10 
REMARK    6  A    between atoms: C_10  and  C_11 
REMARK       I    between atoms: C_11  and  N_12 
REMARK    7  A    between atoms: N_12  and  C_13 
REMARK    8  A    between atoms: C_20  and  C_21 
ROOT
HETATM    1  C   UNL     1       6.553  28.433  56.223  1.00  0.00     0.169 A 
HETATM    2  N   UNL     1       6.412  29.332  57.255  1.00  0.00    -0.315 N 
HETATM    3  C   UNL     1       5.253  30.053  57.007  1.00  0.00     0.065 A 
HETATM    4  C   UNL     1       4.707  29.437  55.893  1.00  0.00     0.150 A 
HETATM    5  N   UNL     1       5.504  28.422  55.435  1.00  0.00    -0.234 NA
ENDROOT
BRANCH   1   6
HETATM    6  S   UNL     1       7.980  27.484  55.974  1.00  0.00    -0.083 SA
BRANCH   6   7
HETATM    7  C   UNL     1       7.693  26.084  57.087  1.00  0.00     0.185 C 
BRANCH   7   8
HETATM    8  C   UNL     1       7.198  24.852  56.345  1.00  0.00     0.231 C 
HETATM    9  N   UNL     1       8.223  24.035  55.902  1.00  0.00    -0.326 N 
HETATM   10  H   UNL     1       9.163  24.388  56.079  1.00  0.00     0.169 HD
HETATM   11  O   UNL     1       6.001  24.710  56.105  1.00  0.00    -0.272 OA
BRANCH   9  12
HETATM   12  C   UNL     1       8.125  22.930  55.027  1.00  0.00     0.046 A 
HETATM   13  C   UNL     1       8.137  21.641  55.620  1.00  0.00    -0.035 A 
HETATM   14  C   UNL     1       8.274  21.442  57.108  1.00  0.00     0.050 C 
HETATM   15  C   UNL     1       8.063  20.498  54.807  1.00  0.00     0.009 A 
HETATM   16  C   UNL     1       7.979  20.618  53.426  1.00  0.00     0.001 A 
HETATM   17  C   UNL     1       7.934  21.881  52.845  1.00  0.00     0.009 A 
HETATM   18  C   UNL     1       7.974  23.048  53.631  1.00  0.00    -0.035 A 
HETATM   19  C   UNL     1       7.786  24.354  52.907  1.00  0.00     0.050 C 
ENDBRANCH   9  12
ENDBRANCH   7   8
ENDBRANCH   6   7
ENDBRANCH   1   6
BRANCH   2  20
HETATM   20  C   UNL     1       7.248  29.407  58.444  1.00  0.00     0.234 C 
BRANCH  20  21
HETATM   21  C   UNL     1       7.713  30.768  58.912  1.00  0.00     0.236 C 
HETATM   22  N   UNL     1       7.295  31.228  60.134  1.00  0.00    -0.355 N 
HETATM   23  H   UNL     1       6.721  30.616  60.700  1.00  0.00     0.162 HD
HETATM   24  O   UNL     1       8.457  31.409  58.172  1.00  0.00    -0.272 OA
BRANCH  22  25
HETATM   25  C   UNL     1       7.809  32.408  60.838  1.00  0.00     0.084 C 
HETATM   26  C   UNL     1       6.703  33.416  61.176  1.00  0.00     0.025 C 
HETATM   27  C   UNL     1       6.029  33.172  62.519  1.00  0.00     0.002 C 
HETATM   28  C   UNL     1       7.054  33.121  63.642  1.00  0.00     0.000 C 
HETATM   29  C   UNL     1       8.121  32.059  63.405  1.00  0.00     0.002 C 
HETATM   30  C   UNL     1       8.759  32.130  62.015  1.00  0.00     0.025 C 
ENDBRANCH  22  25
ENDBRANCH  20  21
ENDBRANCH   2  20
BRANCH   3  31
HETATM   31  C   UNL     1       4.785  31.244  57.708  1.00  0.00    -0.008 A 
HETATM   32  C   UNL     1       3.930  31.168  58.813  1.00  0.00     0.017 A 
HETATM   33  C   UNL     1       3.507  32.332  59.459  1.00  0.00     0.043 A 
HETATM   34  C   UNL     1       3.923  33.572  58.988  1.00  0.00     0.116 A 
HETATM   35  F   UNL     1       3.513  34.686  59.608  1.00  0.00    -0.206 F 
HETATM   36  C   UNL     1       4.751  33.672  57.879  1.00  0.00     0.043 A 
HETATM   37  C   UNL     1       5.181  32.508  57.239  1.00  0.00     0.017 A 
ENDBRANCH   3  31
TORSDOF 8
ENDMDL
MODEL 10
REMARK VINA RESULT:      -9.6      4.488      9.355
REMARK  8 active torsions:
REMARK  status: ('A' for Active; 'I' for Inactive)
REMARK    1  A    between atoms: C_3  and  N_4 
REMARK       I    between atoms: N_4  and  C_5 
REMARK    2  A    between atoms: C_5  and  C_6 
REMARK    3  A    between atoms: C_6  and  S_7 
REMARK    4  A    between atoms: S_7  and  C_8 
REMARK    5  A    between atoms: N_9  and  C_10 
REMARK    6  A    between atoms: C_10  and  C_11 
REMARK       I    between atoms: C_11  and  N_12 
REMARK    7  A    between atoms: N_12  and  C_13 
REMARK    8  A    between atoms: C_20  and  C_21 
ROOT
HETATM    1  C   UNL     1       4.966  27.363  53.500  1.00  0.00     0.169 A 
HETATM    2  N   UNL     1       5.744  27.266  54.632  1.00  0.00    -0.315 N 
HETATM    3  C   UNL     1       5.989  28.561  55.065  1.00  0.00     0.065 A 
HETATM    4  C   UNL     1       5.224  29.348  54.220  1.00  0.00     0.150 A 
HETATM    5  N   UNL     1       4.577  28.596  53.277  1.00  0.00    -0.234 NA
ENDROOT
BRANCH   1   6
HETATM    6  S   UNL     1       4.610  26.017  52.471  1.00  0.00    -0.083 SA
BRANCH   6   7
HETATM    7  C   UNL     1       5.641  26.372  51.026  1.00  0.00     0.185 C 
BRANCH   7   8
HETATM    8  C   UNL     1       4.923  27.249  50.009  1.00  0.00     0.231 C 
HETATM    9  N   UNL     1       3.589  26.920  49.852  1.00  0.00    -0.326 N 
HETATM   10  H   UNL     1       3.278  26.109  50.389  1.00  0.00     0.169 HD
HETATM   11  O   UNL     1       5.549  28.077  49.352  1.00  0.00    -0.272 OA
BRANCH   9  12
HETATM   12  C   UNL     1       2.695  27.397  48.868  1.00  0.00     0.046 A 
HETATM   13  C   UNL     1       2.407  26.524  47.787  1.00  0.00    -0.035 A 
HETATM   14  C   UNL     1       3.037  25.160  47.666  1.00  0.00     0.050 C 
HETATM   15  C   UNL     1       1.543  26.944  46.763  1.00  0.00     0.009 A 
HETATM   16  C   UNL     1       0.967  28.206  46.797  1.00  0.00     0.001 A 
HETATM   17  C   UNL     1       1.222  29.052  47.872  1.00  0.00     0.009 A 
HETATM   18  C   UNL     1       2.059  28.652  48.932  1.00  0.00    -0.035 A 
HETATM   19  C   UNL     1       2.158  29.594  50.102  1.00  0.00     0.050 C 
ENDBRANCH   9  12
ENDBRANCH   7   8
ENDBRANCH   6   7
ENDBRANCH   1   6
BRANCH   2  20
HETATM   20  C   UNL     1       6.112  26.035  55.313  1.00  0.00     0.234 C 
BRANCH  20  21
HETATM   21  C   UNL     1       7.341  25.291  54.841  1.00  0.00     0.236 C 
HETATM   22  N   UNL     1       7.649  24.085  55.416  1.00  0.00    -0.355 N 
HETATM   23  H   UNL     1       7.013  23.714  56.109  1.00  0.00     0.162 HD
HETATM   24  O   UNL     1       8.016  25.801  53.949  1.00  0.00    -0.272 OA
BRANCH  22  25
HETATM   25  C   UNL     1       8.660  23.133  54.943  1.00  0.00     0.084 C 
HETATM   26  C   UNL     1       8.807  21.924  55.876  1.00  0.00     0.025 C 
HETATM   27  C   UNL     1       7.872  20.769  55.547  1.00  0.00     0.002 C 
HETATM   28  C   UNL     1       8.031  20.335  54.097  1.00  0.00     0.000 C 
HETATM   29  C   UNL     1       7.791  21.480  53.121  1.00  0.00     0.002 C 
HETATM   30  C   UNL     1       8.581  22.748  53.456  1.00  0.00     0.025 C 
ENDBRANCH  22  25
ENDBRANCH  20  21
ENDBRANCH   2  20
BRANCH   3  31
HETATM   31  C   UNL     1       6.921  28.984  56.105  1.00  0.00    -0.008 A 
HETATM   32  C   UNL     1       8.305  28.836  55.967  1.00  0.00     0.017 A 
HETATM   33  C   UNL     1       9.165  29.256  56.985  1.00  0.00     0.043 A 
HETATM   34  C   UNL     1       8.640  29.806  58.148  1.00  0.00     0.116 A 
HETATM   35  F   UNL     1       9.466  30.204  59.123  1.00  0.00    -0.206 F 
HETATM   36  C   UNL     1       7.268  29.940  58.317  1.00  0.00     0.043 A 
HETATM   37  C   UNL     1       6.410  29.529  57.295  1.00  0.00     0.017 A 
ENDBRANCH   3  31
TORSDOF 8
ENDMDL
