MODEL 1
REMARK VINA RESULT:     -10.4      0.000      0.000
REMARK  2 active torsions:
REMARK  status: ('A' for Active; 'I' for Inactive)
REMARK    1  A    between atoms: N_8  and  N_9 
REMARK       I    between atoms: N_9  and  C_10 
REMARK    2  A    between atoms: C_10  and  C_11 
ROOT
HETATM    1  N   UNL     1       6.897  26.748  55.333  1.00  0.00    -0.242 N 
HETATM    2  C   UNL     1       6.185  25.836  54.572  1.00  0.00     0.273 C 
HETATM    3  O   UNL     1       5.068  26.040  54.099  1.00  0.00    -0.266 OA
HETATM    4  H   UNL     1       7.841  26.561  55.669  1.00  0.00     0.192 HD
ENDROOT
BRANCH   1   5
HETATM    5  N   UNL     1       6.363  27.988  55.548  1.00  0.00    -0.166 NA
HETATM    6  C   UNL     1       6.739  28.622  56.611  1.00  0.00     0.157 A 
HETATM    7  C   UNL     1       6.305  29.960  56.993  1.00  0.00     0.027 A 
HETATM    8  C   UNL     1       7.675  28.153  57.726  1.00  0.00     0.277 A 
HETATM    9  C   UNL     1       5.495  30.863  56.334  1.00  0.00     0.023 A 
HETATM   10  C   UNL     1       6.890  30.232  58.227  1.00  0.00     0.048 A 
HETATM   11  C   UNL     1       5.279  32.102  56.955  1.00  0.00    -0.061 A 
HETATM   12  C   UNL     1       4.413  33.139  56.298  1.00  0.00     0.048 C 
HETATM   13  C   UNL     1       5.857  32.368  58.222  1.00  0.00     0.009 A 
HETATM   14  C   UNL     1       6.673  31.431  58.868  1.00  0.00     0.031 A 
HETATM   15  N   UNL     1       7.682  29.168  58.657  1.00  0.00    -0.321 N 
HETATM   16  H   UNL     1       8.218  29.138  59.511  1.00  0.00     0.169 HD
HETATM   17  O   UNL     1       8.270  27.095  57.730  1.00  0.00    -0.266 OA
ENDBRANCH   1   5
BRANCH   2  18
HETATM   18  C   UNL     1       6.853  24.550  54.257  1.00  0.00     0.058 A 
HETATM   19  C   UNL     1       7.418  24.202  53.031  1.00  0.00     0.047 A 
HETATM   20  C   UNL     1       7.454  25.112  51.840  1.00  0.00     0.071 C 
HETATM   21  N   UNL     1       8.010  22.990  52.825  1.00  0.00    -0.252 NA
HETATM   22  C   UNL     1       8.105  22.116  53.845  1.00  0.00     0.067 A 
HETATM   23  C   UNL     1       7.601  22.405  55.125  1.00  0.00    -0.006 A 
HETATM   24  C   UNL     1       8.728  20.890  53.648  1.00  0.00     0.032 A 
HETATM   25  C   UNL     1       6.969  23.637  55.313  1.00  0.00     0.033 A 
HETATM   26  C   UNL     1       7.741  21.476  56.172  1.00  0.00     0.014 A 
HETATM   27  C   UNL     1       8.377  20.256  55.950  1.00  0.00     0.001 A 
HETATM   28  C   UNL     1       8.868  19.961  54.683  1.00  0.00     0.002 A 
ENDBRANCH   2  18
TORSDOF 2
ENDMDL
MODEL 2
REMARK VINA RESULT:     -10.2      1.839      8.445
REMARK  2 active torsions:
REMARK  status: ('A' for Active; 'I' for Inactive)
REMARK    1  A    between atoms: N_8  and  N_9 
REMARK       I    between atoms: N_9  and  C_10 
REMARK    2  A    between atoms: C_10  and  C_11 
ROOT
HETATM    1  N   UNL     1       7.622  26.857  55.773  1.00  0.00    -0.242 N 
HETATM    2  C   UNL     1       6.388  27.324  56.196  1.00  0.00     0.273 C 
HETATM    3  O   UNL     1       5.325  26.725  56.047  1.00  0.00    -0.266 OA
HETATM    4  H   UNL     1       8.489  27.361  55.956  1.00  0.00     0.192 HD
ENDROOT
BRANCH   1   5
HETATM    5  N   UNL     1       7.696  25.624  55.189  1.00  0.00    -0.166 NA
HETATM    6  C   UNL     1       7.947  24.615  55.959  1.00  0.00     0.157 A 
HETATM    7  C   UNL     1       8.036  23.226  55.527  1.00  0.00     0.027 A 
HETATM    8  C   UNL     1       8.240  24.605  57.460  1.00  0.00     0.277 A 
HETATM    9  C   UNL     1       7.819  22.655  54.289  1.00  0.00     0.023 A 
HETATM   10  C   UNL     1       8.387  22.481  56.649  1.00  0.00     0.048 A 
HETATM   11  C   UNL     1       7.957  21.263  54.191  1.00  0.00    -0.061 A 
HETATM   12  C   UNL     1       7.734  20.569  52.878  1.00  0.00     0.048 C 
HETATM   13  C   UNL     1       8.337  20.509  55.330  1.00  0.00     0.009 A 
HETATM   14  C   UNL     1       8.553  21.116  56.574  1.00  0.00     0.031 A 
HETATM   15  N   UNL     1       8.516  23.293  57.775  1.00  0.00    -0.321 N 
HETATM   16  H   UNL     1       8.747  22.979  58.706  1.00  0.00     0.169 HD
HETATM   17  O   UNL     1       8.210  25.583  58.177  1.00  0.00    -0.266 OA
ENDBRANCH   1   5
BRANCH   2  18
HETATM   18  C   UNL     1       6.369  28.609  56.937  1.00  0.00     0.058 A 
HETATM   19  C   UNL     1       5.346  29.555  56.904  1.00  0.00     0.047 A 
HETATM   20  C   UNL     1       4.081  29.390  56.119  1.00  0.00     0.071 C 
HETATM   21  N   UNL     1       5.413  30.718  57.615  1.00  0.00    -0.252 NA
HETATM   22  C   UNL     1       6.470  30.946  58.418  1.00  0.00     0.067 A 
HETATM   23  C   UNL     1       7.524  30.023  58.544  1.00  0.00    -0.006 A 
HETATM   24  C   UNL     1       6.533  32.116  59.163  1.00  0.00     0.032 A 
HETATM   25  C   UNL     1       7.458  28.851  57.785  1.00  0.00     0.033 A 
HETATM   26  C   UNL     1       8.600  30.285  59.412  1.00  0.00     0.014 A 
HETATM   27  C   UNL     1       8.635  31.464  60.153  1.00  0.00     0.001 A 
HETATM   28  C   UNL     1       7.601  32.384  60.026  1.00  0.00     0.002 A 
ENDBRANCH   2  18
TORSDOF 2
ENDMDL
MODEL 3
REMARK VINA RESULT:     -10.2      2.252      2.760
REMARK  2 active torsions:
REMARK  status: ('A' for Active; 'I' for Inactive)
REMARK    1  A    between atoms: N_8  and  N_9 
REMARK       I    between atoms: N_9  and  C_10 
REMARK    2  A    between atoms: C_10  and  C_11 
ROOT
HETATM    1  N   UNL     1       7.881  27.261  57.183  1.00  0.00    -0.242 N 
HETATM    2  C   UNL     1       6.810  26.573  56.639  1.00  0.00     0.273 C 
HETATM    3  O   UNL     1       5.631  26.772  56.928  1.00  0.00    -0.266 OA
HETATM    4  H   UNL     1       8.842  27.101  56.884  1.00  0.00     0.192 HD
ENDROOT
BRANCH   1   5
HETATM    5  N   UNL     1       7.635  28.271  58.072  1.00  0.00    -0.166 NA
HETATM    6  C   UNL     1       8.511  29.219  58.153  1.00  0.00     0.157 A 
HETATM    7  C   UNL     1       8.410  30.389  59.016  1.00  0.00     0.027 A 
HETATM    8  C   UNL     1       9.849  29.352  57.424  1.00  0.00     0.277 A 
HETATM    9  C   UNL     1       7.395  30.799  59.857  1.00  0.00     0.023 A 
HETATM   10  C   UNL     1       9.587  31.114  58.845  1.00  0.00     0.048 A 
HETATM   11  C   UNL     1       7.583  32.005  60.548  1.00  0.00    -0.061 A 
HETATM   12  C   UNL     1       6.521  32.519  61.479  1.00  0.00     0.048 C 
HETATM   13  C   UNL     1       8.791  32.729  60.390  1.00  0.00     0.009 A 
HETATM   14  C   UNL     1       9.805  32.288  59.531  1.00  0.00     0.031 A 
HETATM   15  N   UNL     1      10.430  30.498  57.921  1.00  0.00    -0.321 N 
HETATM   16  H   UNL     1      11.329  30.843  57.621  1.00  0.00     0.169 HD
HETATM   17  O   UNL     1      10.258  28.581  56.581  1.00  0.00    -0.266 OA
ENDBRANCH   1   5
BRANCH   2  18
HETATM   18  C   UNL     1       7.112  25.573  55.586  1.00  0.00     0.058 A 
HETATM   19  C   UNL     1       7.366  25.851  54.244  1.00  0.00     0.047 A 
HETATM   20  C   UNL     1       7.396  27.235  53.670  1.00  0.00     0.071 C 
HETATM   21  N   UNL     1       7.630  24.866  53.338  1.00  0.00    -0.252 NA
HETATM   22  C   UNL     1       7.704  23.586  53.752  1.00  0.00     0.067 A 
HETATM   23  C   UNL     1       7.506  23.224  55.096  1.00  0.00    -0.006 A 
HETATM   24  C   UNL     1       7.996  22.581  52.840  1.00  0.00     0.032 A 
HETATM   25  C   UNL     1       7.204  24.240  56.007  1.00  0.00     0.033 A 
HETATM   26  C   UNL     1       7.616  21.879  55.495  1.00  0.00     0.014 A 
HETATM   27  C   UNL     1       7.917  20.891  54.560  1.00  0.00     0.001 A 
HETATM   28  C   UNL     1       8.105  21.242  53.229  1.00  0.00     0.002 A 
ENDBRANCH   2  18
TORSDOF 2
ENDMDL
MODEL 4
REMARK VINA RESULT:     -10.0      2.347      8.897
REMARK  2 active torsions:
REMARK  status: ('A' for Active; 'I' for Inactive)
REMARK    1  A    between atoms: N_8  and  N_9 
REMARK       I    between atoms: N_9  and  C_10 
REMARK    2  A    between atoms: C_10  and  C_11 
ROOT
HETATM    1  N   UNL     1       7.262  28.080  57.828  1.00  0.00    -0.242 N 
HETATM    2  C   UNL     1       8.034  29.228  57.758  1.00  0.00     0.273 C 
HETATM    3  O   UNL     1       8.943  29.411  56.950  1.00  0.00    -0.266 OA
HETATM    4  H   UNL     1       6.486  27.983  58.481  1.00  0.00     0.192 HD
ENDROOT
BRANCH   1   5
HETATM    5  N   UNL     1       7.474  27.085  56.915  1.00  0.00    -0.166 NA
HETATM    6  C   UNL     1       6.551  26.879  56.033  1.00  0.00     0.157 A 
HETATM    7  C   UNL     1       6.608  25.888  54.967  1.00  0.00     0.027 A 
HETATM    8  C   UNL     1       5.191  27.565  55.893  1.00  0.00     0.277 A 
HETATM    9  C   UNL     1       7.619  25.022  54.599  1.00  0.00     0.023 A 
HETATM   10  C   UNL     1       5.390  25.954  54.295  1.00  0.00     0.048 A 
HETATM   11  C   UNL     1       7.383  24.193  53.493  1.00  0.00    -0.061 A 
HETATM   12  C   UNL     1       8.436  23.227  53.031  1.00  0.00     0.048 C 
HETATM   13  C   UNL     1       6.134  24.245  52.825  1.00  0.00     0.009 A 
HETATM   14  C   UNL     1       5.125  25.133  53.221  1.00  0.00     0.031 A 
HETATM   15  N   UNL     1       4.561  26.928  54.846  1.00  0.00    -0.321 N 
HETATM   16  H   UNL     1       3.637  27.171  54.520  1.00  0.00     0.169 HD
HETATM   17  O   UNL     1       4.805  28.484  56.584  1.00  0.00    -0.266 OA
ENDBRANCH   1   5
BRANCH   2  18
HETATM   18  C   UNL     1       7.688  30.334  58.684  1.00  0.00     0.058 A 
HETATM   19  C   UNL     1       6.793  31.369  58.422  1.00  0.00     0.047 A 
HETATM   20  C   UNL     1       6.014  31.497  57.147  1.00  0.00     0.071 C 
HETATM   21  N   UNL     1       6.537  32.353  59.332  1.00  0.00    -0.252 NA
HETATM   22  C   UNL     1       7.121  32.304  60.545  1.00  0.00     0.067 A 
HETATM   23  C   UNL     1       8.003  31.270  60.906  1.00  0.00    -0.006 A 
HETATM   24  C   UNL     1       6.847  33.289  61.484  1.00  0.00     0.032 A 
HETATM   25  C   UNL     1       8.281  30.287  59.953  1.00  0.00     0.033 A 
HETATM   26  C   UNL     1       8.575  31.239  62.191  1.00  0.00     0.014 A 
HETATM   27  C   UNL     1       8.278  32.236  63.118  1.00  0.00     0.001 A 
HETATM   28  C   UNL     1       7.414  33.266  62.762  1.00  0.00     0.002 A 
ENDBRANCH   2  18
TORSDOF 2
ENDMDL
MODEL 5
REMARK VINA RESULT:     -10.0      2.278      8.810
REMARK  2 active torsions:
REMARK  status: ('A' for Active; 'I' for Inactive)
REMARK    1  A    between atoms: N_8  and  N_9 
REMARK       I    between atoms: N_9  and  C_10 
REMARK    2  A    between atoms: C_10  and  C_11 
ROOT
HETATM    1  N   UNL     1       6.988  28.401  57.155  1.00  0.00    -0.242 N 
HETATM    2  C   UNL     1       7.744  29.558  57.237  1.00  0.00     0.273 C 
HETATM    3  O   UNL     1       8.609  29.887  56.426  1.00  0.00    -0.266 OA
HETATM    4  H   UNL     1       6.248  28.184  57.821  1.00  0.00     0.192 HD
ENDROOT
BRANCH   1   5
HETATM    5  N   UNL     1       7.162  27.572  56.082  1.00  0.00    -0.166 NA
HETATM    6  C   UNL     1       7.493  26.346  56.324  1.00  0.00     0.157 A 
HETATM    7  C   UNL     1       7.693  25.312  55.316  1.00  0.00     0.027 A 
HETATM    8  C   UNL     1       7.785  25.680  57.669  1.00  0.00     0.277 A 
HETATM    9  C   UNL     1       7.525  25.348  53.947  1.00  0.00     0.023 A 
HETATM   10  C   UNL     1       8.103  24.167  55.996  1.00  0.00     0.048 A 
HETATM   11  C   UNL     1       7.774  24.164  53.238  1.00  0.00    -0.061 A 
HETATM   12  C   UNL     1       7.608  24.124  51.746  1.00  0.00     0.048 C 
HETATM   13  C   UNL     1       8.213  23.006  53.929  1.00  0.00     0.009 A 
HETATM   14  C   UNL     1       8.378  22.999  55.320  1.00  0.00     0.031 A 
HETATM   15  N   UNL     1       8.165  24.390  57.370  1.00  0.00    -0.321 N 
HETATM   16  H   UNL     1       8.420  23.707  58.068  1.00  0.00     0.169 HD
HETATM   17  O   UNL     1       7.676  26.223  58.748  1.00  0.00    -0.266 OA
ENDBRANCH   1   5
BRANCH   2  18
HETATM   18  C   UNL     1       7.436  30.491  58.348  1.00  0.00     0.058 A 
HETATM   19  C   UNL     1       6.429  31.453  58.351  1.00  0.00     0.047 A 
HETATM   20  C   UNL     1       5.475  31.667  57.214  1.00  0.00     0.071 C 
HETATM   21  N   UNL     1       6.218  32.278  59.417  1.00  0.00    -0.252 NA
HETATM   22  C   UNL     1       6.965  32.130  60.529  1.00  0.00     0.067 A 
HETATM   23  C   UNL     1       7.973  31.154  60.626  1.00  0.00    -0.006 A 
HETATM   24  C   UNL     1       6.739  32.949  61.627  1.00  0.00     0.032 A 
HETATM   25  C   UNL     1       8.199  30.339  59.514  1.00  0.00     0.033 A 
HETATM   26  C   UNL     1       8.716  31.014  61.812  1.00  0.00     0.014 A 
HETATM   27  C   UNL     1       8.465  31.845  62.902  1.00  0.00     0.001 A 
HETATM   28  C   UNL     1       7.476  32.817  62.808  1.00  0.00     0.002 A 
ENDBRANCH   2  18
TORSDOF 2
ENDMDL
MODEL 6
REMARK VINA RESULT:      -9.9      2.477      3.126
REMARK  2 active torsions:
REMARK  status: ('A' for Active; 'I' for Inactive)
REMARK    1  A    between atoms: N_8  and  N_9 
REMARK       I    between atoms: N_9  and  C_10 
REMARK    2  A    between atoms: C_10  and  C_11 
ROOT
HETATM    1  N   UNL     1       5.567  26.392  54.071  1.00  0.00    -0.242 N 
HETATM    2  C   UNL     1       6.941  26.233  53.997  1.00  0.00     0.273 C 
HETATM    3  O   UNL     1       7.727  27.103  53.624  1.00  0.00    -0.266 OA
HETATM    4  H   UNL     1       4.952  25.663  54.430  1.00  0.00     0.192 HD
ENDROOT
BRANCH   1   5
HETATM    5  N   UNL     1       5.025  27.607  53.759  1.00  0.00    -0.166 NA
HETATM    6  C   UNL     1       4.562  28.321  54.732  1.00  0.00     0.157 A 
HETATM    7  C   UNL     1       3.976  29.648  54.600  1.00  0.00     0.027 A 
HETATM    8  C   UNL     1       4.474  27.971  56.219  1.00  0.00     0.277 A 
HETATM    9  C   UNL     1       3.837  30.463  53.495  1.00  0.00     0.023 A 
HETATM   10  C   UNL     1       3.548  30.024  55.872  1.00  0.00     0.048 A 
HETATM   11  C   UNL     1       3.246  31.719  53.693  1.00  0.00    -0.061 A 
HETATM   12  C   UNL     1       3.065  32.663  52.539  1.00  0.00     0.048 C 
HETATM   13  C   UNL     1       2.791  32.090  54.984  1.00  0.00     0.009 A 
HETATM   14  C   UNL     1       2.942  31.241  56.088  1.00  0.00     0.031 A 
HETATM   15  N   UNL     1       3.832  29.036  56.813  1.00  0.00    -0.321 N 
HETATM   16  H   UNL     1       3.633  29.086  57.801  1.00  0.00     0.169 HD
HETATM   17  O   UNL     1       4.909  26.954  56.717  1.00  0.00    -0.266 OA
ENDBRANCH   1   5
BRANCH   2  18
HETATM   18  C   UNL     1       7.499  24.941  54.466  1.00  0.00     0.058 A 
HETATM   19  C   UNL     1       8.004  24.683  55.739  1.00  0.00     0.047 A 
HETATM   20  C   UNL     1       8.028  25.692  56.847  1.00  0.00     0.071 C 
HETATM   21  N   UNL     1       8.506  23.462  56.084  1.00  0.00    -0.252 NA
HETATM   22  C   UNL     1       8.469  22.452  55.194  1.00  0.00     0.067 A 
HETATM   23  C   UNL     1       7.936  22.615  53.903  1.00  0.00    -0.006 A 
HETATM   24  C   UNL     1       8.956  21.201  55.547  1.00  0.00     0.032 A 
HETATM   25  C   UNL     1       7.455  23.880  53.552  1.00  0.00     0.033 A 
HETATM   26  C   UNL     1       7.892  21.531  53.008  1.00  0.00     0.014 A 
HETATM   27  C   UNL     1       8.381  20.283  53.391  1.00  0.00     0.001 A 
HETATM   28  C   UNL     1       8.918  20.119  54.662  1.00  0.00     0.002 A 
ENDBRANCH   2  18
TORSDOF 2
ENDMDL
MODEL 7
REMARK VINA RESULT:      -9.6      3.409      5.004
REMARK  2 active torsions:
REMARK  status: ('A' for Active; 'I' for Inactive)
REMARK    1  A    between atoms: N_8  and  N_9 
REMARK       I    between atoms: N_9  and  C_10 
REMARK    2  A    between atoms: C_10  and  C_11 
ROOT
HETATM    1  N   UNL     1       5.424  26.247  54.001  1.00  0.00    -0.242 N 
HETATM    2  C   UNL     1       6.779  26.138  54.268  1.00  0.00     0.273 C 
HETATM    3  O   UNL     1       7.581  27.069  54.210  1.00  0.00    -0.266 OA
HETATM    4  H   UNL     1       4.782  25.463  54.105  1.00  0.00     0.192 HD
ENDROOT
BRANCH   1   5
HETATM    5  N   UNL     1       4.908  27.476  53.698  1.00  0.00    -0.166 NA
HETATM    6  C   UNL     1       4.539  27.682  52.476  1.00  0.00     0.157 A 
HETATM    7  C   UNL     1       3.942  28.911  51.970  1.00  0.00     0.027 A 
HETATM    8  C   UNL     1       4.652  26.747  51.271  1.00  0.00     0.277 A 
HETATM    9  C   UNL     1       3.574  30.068  52.628  1.00  0.00     0.023 A 
HETATM   10  C   UNL     1       3.762  28.734  50.601  1.00  0.00     0.048 A 
HETATM   11  C   UNL     1       2.989  31.084  51.860  1.00  0.00    -0.061 A 
HETATM   12  C   UNL     1       2.558  32.371  52.506  1.00  0.00     0.048 C 
HETATM   13  C   UNL     1       2.828  30.911  50.463  1.00  0.00     0.009 A 
HETATM   14  C   UNL     1       3.213  29.727  49.820  1.00  0.00     0.031 A 
HETATM   15  N   UNL     1       4.189  27.471  50.194  1.00  0.00    -0.321 N 
HETATM   16  H   UNL     1       4.144  27.106  49.254  1.00  0.00     0.169 HD
HETATM   17  O   UNL     1       5.064  25.606  51.316  1.00  0.00    -0.266 OA
ENDBRANCH   1   5
BRANCH   2  18
HETATM   18  C   UNL     1       7.276  24.814  54.716  1.00  0.00     0.058 A 
HETATM   19  C   UNL     1       7.525  24.439  56.035  1.00  0.00     0.047 A 
HETATM   20  C   UNL     1       7.294  25.334  57.215  1.00  0.00     0.071 C 
HETATM   21  N   UNL     1       7.989  23.198  56.359  1.00  0.00    -0.252 NA
HETATM   22  C   UNL     1       8.164  22.280  55.389  1.00  0.00     0.067 A 
HETATM   23  C   UNL     1       7.894  22.562  54.038  1.00  0.00    -0.006 A 
HETATM   24  C   UNL     1       8.613  21.007  55.715  1.00  0.00     0.032 A 
HETATM   25  C   UNL     1       7.450  23.847  53.717  1.00  0.00     0.033 A 
HETATM   26  C   UNL     1       8.065  21.569  53.056  1.00  0.00     0.014 A 
HETATM   27  C   UNL     1       8.510  20.298  53.411  1.00  0.00     0.001 A 
HETATM   28  C   UNL     1       8.788  20.017  54.743  1.00  0.00     0.002 A 
ENDBRANCH   2  18
TORSDOF 2
ENDMDL
MODEL 8
REMARK VINA RESULT:      -9.6      1.862      8.651
REMARK  2 active torsions:
REMARK  status: ('A' for Active; 'I' for Inactive)
REMARK    1  A    between atoms: N_8  and  N_9 
REMARK       I    between atoms: N_9  and  C_10 
REMARK    2  A    between atoms: C_10  and  C_11 
ROOT
HETATM    1  N   UNL     1       6.265  26.433  55.260  1.00  0.00    -0.242 N 
HETATM    2  C   UNL     1       6.712  27.621  54.706  1.00  0.00     0.273 C 
HETATM    3  O   UNL     1       7.526  27.701  53.788  1.00  0.00    -0.266 OA
HETATM    4  H   UNL     1       5.554  26.403  55.989  1.00  0.00     0.192 HD
ENDROOT
BRANCH   1   5
HETATM    5  N   UNL     1       6.707  25.251  54.733  1.00  0.00    -0.166 NA
HETATM    6  C   UNL     1       7.233  24.396  55.548  1.00  0.00     0.157 A 
HETATM    7  C   UNL     1       7.732  23.077  55.181  1.00  0.00     0.027 A 
HETATM    8  C   UNL     1       7.496  24.538  57.048  1.00  0.00     0.277 A 
HETATM    9  C   UNL     1       7.710  22.414  53.970  1.00  0.00     0.023 A 
HETATM   10  C   UNL     1       8.272  22.518  56.336  1.00  0.00     0.048 A 
HETATM   11  C   UNL     1       8.252  21.121  53.937  1.00  0.00    -0.061 A 
HETATM   12  C   UNL     1       8.261  20.335  52.656  1.00  0.00     0.048 C 
HETATM   13  C   UNL     1       8.822  20.563  55.109  1.00  0.00     0.009 A 
HETATM   14  C   UNL     1       8.833  21.261  56.324  1.00  0.00     0.031 A 
HETATM   15  N   UNL     1       8.141  23.381  57.423  1.00  0.00    -0.321 N 
HETATM   16  H   UNL     1       8.441  23.190  58.368  1.00  0.00     0.169 HD
HETATM   17  O   UNL     1       7.170  25.495  57.720  1.00  0.00    -0.266 OA
ENDBRANCH   1   5
BRANCH   2  18
HETATM   18  C   UNL     1       6.113  28.875  55.222  1.00  0.00     0.058 A 
HETATM   19  C   UNL     1       6.621  29.658  56.257  1.00  0.00     0.047 A 
HETATM   20  C   UNL     1       7.890  29.349  56.992  1.00  0.00     0.071 C 
HETATM   21  N   UNL     1       5.999  30.799  56.674  1.00  0.00    -0.252 NA
HETATM   22  C   UNL     1       4.889  31.221  56.038  1.00  0.00     0.067 A 
HETATM   23  C   UNL     1       4.335  30.514  54.955  1.00  0.00    -0.006 A 
HETATM   24  C   UNL     1       4.265  32.394  56.441  1.00  0.00     0.032 A 
HETATM   25  C   UNL     1       4.964  29.330  54.560  1.00  0.00     0.033 A 
HETATM   26  C   UNL     1       3.189  30.999  54.300  1.00  0.00     0.014 A 
HETATM   27  C   UNL     1       2.586  32.183  54.721  1.00  0.00     0.001 A 
HETATM   28  C   UNL     1       3.123  32.880  55.796  1.00  0.00     0.002 A 
ENDBRANCH   2  18
TORSDOF 2
ENDMDL
MODEL 9
REMARK VINA RESULT:      -9.5      6.069      9.488
REMARK  2 active torsions:
REMARK  status: ('A' for Active; 'I' for Inactive)
REMARK    1  A    between atoms: N_8  and  N_9 
REMARK       I    between atoms: N_9  and  C_10 
REMARK    2  A    between atoms: C_10  and  C_11 
ROOT
HETATM    1  N   UNL     1       4.327  26.830  50.404  1.00  0.00    -0.242 N 
HETATM    2  C   UNL     1       4.264  26.905  49.023  1.00  0.00     0.273 C 
HETATM    3  O   UNL     1       4.932  26.216  48.254  1.00  0.00    -0.266 OA
HETATM    4  H   UNL     1       3.724  27.385  51.010  1.00  0.00     0.192 HD
ENDROOT
BRANCH   1   5
HETATM    5  N   UNL     1       5.145  25.898  50.978  1.00  0.00    -0.166 NA
HETATM    6  C   UNL     1       5.222  25.887  52.269  1.00  0.00     0.157 A 
HETATM    7  C   UNL     1       6.015  24.954  53.059  1.00  0.00     0.027 A 
HETATM    8  C   UNL     1       4.560  26.829  53.276  1.00  0.00     0.277 A 
HETATM    9  C   UNL     1       6.778  23.871  52.671  1.00  0.00     0.023 A 
HETATM   10  C   UNL     1       5.869  25.334  54.391  1.00  0.00     0.048 A 
HETATM   11  C   UNL     1       7.412  23.137  53.684  1.00  0.00    -0.061 A 
HETATM   12  C   UNL     1       8.256  21.943  53.340  1.00  0.00     0.048 C 
HETATM   13  C   UNL     1       7.280  23.539  55.036  1.00  0.00     0.009 A 
HETATM   14  C   UNL     1       6.501  24.645  55.402  1.00  0.00     0.031 A 
HETATM   15  N   UNL     1       5.025  26.438  54.512  1.00  0.00    -0.321 N 
HETATM   16  H   UNL     1       4.755  26.883  55.376  1.00  0.00     0.169 HD
HETATM   17  O   UNL     1       3.783  27.715  52.987  1.00  0.00    -0.266 OA
ENDBRANCH   1   5
BRANCH   2  18
HETATM   18  C   UNL     1       3.272  27.841  48.440  1.00  0.00     0.058 A 
HETATM   19  C   UNL     1       3.383  29.230  48.401  1.00  0.00     0.047 A 
HETATM   20  C   UNL     1       4.564  29.987  48.931  1.00  0.00     0.071 C 
HETATM   21  N   UNL     1       2.416  30.019  47.850  1.00  0.00    -0.252 NA
HETATM   22  C   UNL     1       1.341  29.447  47.274  1.00  0.00     0.067 A 
HETATM   23  C   UNL     1       1.172  28.051  47.231  1.00  0.00    -0.006 A 
HETATM   24  C   UNL     1       0.365  30.242  46.690  1.00  0.00     0.032 A 
HETATM   25  C   UNL     1       2.155  27.257  47.828  1.00  0.00     0.033 A 
HETATM   26  C   UNL     1       0.048  27.489  46.599  1.00  0.00     0.014 A 
HETATM   27  C   UNL     1      -0.913  28.311  46.013  1.00  0.00     0.001 A 
HETATM   28  C   UNL     1      -0.757  29.691  46.062  1.00  0.00     0.002 A 
ENDBRANCH   2  18
TORSDOF 2
ENDMDL
MODEL 10
REMARK VINA RESULT:      -9.4      1.968      2.984
REMARK  2 active torsions:
REMARK  status: ('A' for Active; 'I' for Inactive)
REMARK    1  A    between atoms: N_8  and  N_9 
REMARK       I    between atoms: N_9  and  C_10 
REMARK    2  A    between atoms: C_10  and  C_11 
ROOT
HETATM    1  N   UNL     1       6.594  29.258  56.201  1.00  0.00    -0.242 N 
HETATM    2  C   UNL     1       5.768  28.180  55.931  1.00  0.00     0.273 C 
HETATM    3  O   UNL     1       4.648  28.019  56.413  1.00  0.00    -0.266 OA
HETATM    4  H   UNL     1       7.497  29.382  55.746  1.00  0.00     0.192 HD
ENDROOT
BRANCH   1   5
HETATM    5  N   UNL     1       6.136  30.252  57.022  1.00  0.00    -0.166 NA
HETATM    6  C   UNL     1       6.777  30.454  58.126  1.00  0.00     0.157 A 
HETATM    7  C   UNL     1       6.459  31.481  59.110  1.00  0.00     0.027 A 
HETATM    8  C   UNL     1       7.970  29.686  58.696  1.00  0.00     0.277 A 
HETATM    9  C   UNL     1       5.506  32.481  59.089  1.00  0.00     0.023 A 
HETATM   10  C   UNL     1       7.346  31.308  60.169  1.00  0.00     0.048 A 
HETATM   11  C   UNL     1       5.462  33.347  60.190  1.00  0.00    -0.061 A 
HETATM   12  C   UNL     1       4.455  34.462  60.238  1.00  0.00     0.048 C 
HETATM   13  C   UNL     1       6.350  33.155  61.278  1.00  0.00     0.009 A 
HETATM   14  C   UNL     1       7.306  32.130  61.273  1.00  0.00     0.031 A 
HETATM   15  N   UNL     1       8.221  30.250  59.927  1.00  0.00    -0.321 N 
HETATM   16  H   UNL     1       8.962  29.944  60.541  1.00  0.00     0.169 HD
HETATM   17  O   UNL     1       8.545  28.781  58.129  1.00  0.00    -0.266 OA
ENDBRANCH   1   5
BRANCH   2  18
HETATM   18  C   UNL     1       6.251  27.190  54.939  1.00  0.00     0.058 A 
HETATM   19  C   UNL     1       6.259  27.357  53.555  1.00  0.00     0.047 A 
HETATM   20  C   UNL     1       5.795  28.602  52.862  1.00  0.00     0.071 C 
HETATM   21  N   UNL     1       6.717  26.387  52.711  1.00  0.00    -0.252 NA
HETATM   22  C   UNL     1       7.231  25.251  53.222  1.00  0.00     0.067 A 
HETATM   23  C   UNL     1       7.301  25.021  54.607  1.00  0.00    -0.006 A 
HETATM   24  C   UNL     1       7.721  24.271  52.370  1.00  0.00     0.032 A 
HETATM   25  C   UNL     1       6.798  26.009  55.458  1.00  0.00     0.033 A 
HETATM   26  C   UNL     1       7.866  23.832  55.104  1.00  0.00     0.014 A 
HETATM   27  C   UNL     1       8.357  22.867  54.227  1.00  0.00     0.001 A 
HETATM   28  C   UNL     1       8.282  23.085  52.856  1.00  0.00     0.002 A 
ENDBRANCH   2  18
TORSDOF 2
ENDMDL
