MODEL 1
REMARK VINA RESULT:      -9.9      0.000      0.000
REMARK  6 active torsions:
REMARK  status: ('A' for Active; 'I' for Inactive)
REMARK    1  A    between atoms: C_6  and  C_7 
REMARK    2  A    between atoms: C_7  and  N_8 
REMARK    3  A    between atoms: C_12  and  C_13 
REMARK    4  A    between atoms: C_13  and  C_14 
REMARK    5  A    between atoms: N_23  and  C_24 
REMARK    6  A    between atoms: C_24  and  C_25 
ROOT
HETATM    1  C   UNL     1       6.599  26.049  54.864  1.00  0.00     0.164 C 
HETATM    2  N   UNL     1       7.335  26.796  53.852  1.00  0.00    -0.319 N 
HETATM    3  C   UNL     1       7.889  27.954  54.337  1.00  0.00     0.326 C 
HETATM    4  O   UNL     1       8.689  28.638  53.727  1.00  0.00    -0.247 OA
HETATM    5  N   UNL     1       7.395  28.174  55.581  1.00  0.00    -0.265 N 
HETATM    6  C   UNL     1       6.652  27.103  55.986  1.00  0.00     0.263 C 
HETATM    7  O   UNL     1       6.098  26.988  57.076  1.00  0.00    -0.270 OA
HETATM    8  H   UNL     1       7.768  26.338  53.055  1.00  0.00     0.166 HD
ENDROOT
BRANCH   1   9
HETATM    9  C   UNL     1       5.156  25.738  54.322  1.00  0.00     0.033 C 
HETATM   10  C   UNL     1       5.083  24.731  53.155  1.00  0.00     0.036 C 
HETATM   11  C   UNL     1       5.356  25.313  51.773  1.00  0.00     0.235 C 
HETATM   12  N   UNL     1       4.539  26.555  51.521  1.00  0.00    -0.067 N 
HETATM   13  H   UNL     1       3.565  26.252  51.408  1.00  0.00     0.280 HD
HETATM   14  C   UNL     1       4.583  27.580  52.622  1.00  0.00     0.235 C 
HETATM   15  C   UNL     1       4.274  26.949  53.966  1.00  0.00     0.036 C 
BRANCH  12  16
HETATM   16  C   UNL     1       4.938  27.218  50.206  1.00  0.00     0.273 C 
BRANCH  16  17
HETATM   17  C   UNL     1       3.820  27.320  49.200  1.00  0.00    -0.027 A 
HETATM   18  C   UNL     1       3.063  28.498  49.021  1.00  0.00    -0.054 A 
HETATM   19  C   UNL     1       2.018  28.504  48.079  1.00  0.00     0.014 A 
HETATM   20  C   UNL     1       3.300  29.747  49.827  1.00  0.00     0.049 C 
HETATM   21  C   UNL     1       1.710  27.369  47.322  1.00  0.00    -0.061 A 
HETATM   22  C   UNL     1       0.578  27.383  46.337  1.00  0.00     0.048 C 
HETATM   23  C   UNL     1       2.468  26.212  47.498  1.00  0.00     0.007 A 
HETATM   24  C   UNL     1       3.511  26.185  48.426  1.00  0.00     0.010 A 
ENDBRANCH  16  17
ENDBRANCH  12  16
ENDBRANCH   1   9
BRANCH   1  25
HETATM   25  C   UNL     1       7.385  24.776  55.179  1.00  0.00     0.072 A 
HETATM   26  N   UNL     1       7.394  24.417  56.494  1.00  0.00    -0.262 NA
HETATM   27  C   UNL     1       8.059  23.292  56.844  1.00  0.00     0.117 A 
HETATM   28  C   UNL     1       8.746  22.500  55.944  1.00  0.00     0.019 A 
HETATM   29  C   UNL     1       8.748  22.878  54.610  1.00  0.00     0.003 A 
HETATM   30  C   UNL     1       8.062  24.026  54.217  1.00  0.00     0.030 A 
ENDBRANCH   1  25
BRANCH   5  31
HETATM   31  C   UNL     1       7.618  29.375  56.367  1.00  0.00     0.168 C 
BRANCH  31  32
HETATM   32  C   UNL     1       8.779  29.247  57.371  1.00  0.00     0.140 C 
HETATM   33  O   UNL     1       8.533  30.032  58.564  1.00  0.00    -0.384 OA
HETATM   34  C   UNL     1       9.786  30.622  58.946  1.00  0.00     0.168 C 
HETATM   35  C   UNL     1      10.529  30.861  57.654  1.00  0.00     0.029 C 
HETATM   36  C   UNL     1      10.151  29.651  56.835  1.00  0.00     0.036 C 
ENDBRANCH  31  32
ENDBRANCH   5  31
TORSDOF 6
ENDMDL
MODEL 2
REMARK VINA RESULT:      -9.8      1.127      1.516
REMARK  6 active torsions:
REMARK  status: ('A' for Active; 'I' for Inactive)
REMARK    1  A    between atoms: C_6  and  C_7 
REMARK    2  A    between atoms: C_7  and  N_8 
REMARK    3  A    between atoms: C_12  and  C_13 
REMARK    4  A    between atoms: C_13  and  C_14 
REMARK    5  A    between atoms: N_23  and  C_24 
REMARK    6  A    between atoms: C_24  and  C_25 
ROOT
HETATM    1  C   UNL     1       6.541  25.921  54.571  1.00  0.00     0.164 C 
HETATM    2  N   UNL     1       7.260  26.869  53.729  1.00  0.00    -0.319 N 
HETATM    3  C   UNL     1       7.995  27.777  54.451  1.00  0.00     0.326 C 
HETATM    4  O   UNL     1       8.808  28.540  53.965  1.00  0.00    -0.247 OA
HETATM    5  N   UNL     1       7.655  27.657  55.759  1.00  0.00    -0.265 N 
HETATM    6  C   UNL     1       6.831  26.583  55.932  1.00  0.00     0.263 C 
HETATM    7  O   UNL     1       6.376  26.195  57.005  1.00  0.00    -0.270 OA
HETATM    8  H   UNL     1       7.555  26.634  52.786  1.00  0.00     0.166 HD
ENDROOT
BRANCH   1   9
HETATM    9  C   UNL     1       5.025  25.912  54.153  1.00  0.00     0.033 C 
HETATM   10  C   UNL     1       4.636  24.883  53.071  1.00  0.00     0.036 C 
HETATM   11  C   UNL     1       4.915  25.310  51.634  1.00  0.00     0.235 C 
HETATM   12  N   UNL     1       4.374  26.688  51.348  1.00  0.00    -0.067 N 
HETATM   13  H   UNL     1       3.351  26.605  51.324  1.00  0.00     0.280 HD
HETATM   14  C   UNL     1       4.733  27.737  52.365  1.00  0.00     0.235 C 
HETATM   15  C   UNL     1       4.406  27.269  53.770  1.00  0.00     0.036 C 
BRANCH  12  16
HETATM   16  C   UNL     1       4.798  27.168  49.964  1.00  0.00     0.273 C 
BRANCH  16  17
HETATM   17  C   UNL     1       3.665  27.294  48.978  1.00  0.00    -0.027 A 
HETATM   18  C   UNL     1       2.895  28.471  48.850  1.00  0.00    -0.054 A 
HETATM   19  C   UNL     1       1.837  28.501  47.924  1.00  0.00     0.014 A 
HETATM   20  C   UNL     1       3.134  29.694  49.695  1.00  0.00     0.049 C 
HETATM   21  C   UNL     1       1.528  27.389  47.133  1.00  0.00    -0.061 A 
HETATM   22  C   UNL     1       0.381  27.426  46.165  1.00  0.00     0.048 C 
HETATM   23  C   UNL     1       2.298  26.233  47.259  1.00  0.00     0.007 A 
HETATM   24  C   UNL     1       3.354  26.184  48.170  1.00  0.00     0.010 A 
ENDBRANCH  16  17
ENDBRANCH  12  16
ENDBRANCH   1   9
BRANCH   1  25
HETATM   25  C   UNL     1       7.195  24.549  54.403  1.00  0.00     0.072 A 
HETATM   26  N   UNL     1       7.007  23.692  55.447  1.00  0.00    -0.262 NA
HETATM   27  C   UNL     1       7.546  22.454  55.361  1.00  0.00     0.117 A 
HETATM   28  C   UNL     1       8.293  22.019  54.283  1.00  0.00     0.019 A 
HETATM   29  C   UNL     1       8.495  22.900  53.231  1.00  0.00     0.003 A 
HETATM   30  C   UNL     1       7.943  24.178  53.285  1.00  0.00     0.030 A 
ENDBRANCH   1  25
BRANCH   5  31
HETATM   31  C   UNL     1       8.097  28.544  56.820  1.00  0.00     0.168 C 
BRANCH  31  32
HETATM   32  C   UNL     1       7.435  29.934  56.775  1.00  0.00     0.140 C 
HETATM   33  O   UNL     1       7.608  30.640  58.029  1.00  0.00    -0.384 OA
HETATM   34  C   UNL     1       6.376  31.331  58.297  1.00  0.00     0.168 C 
HETATM   35  C   UNL     1       5.292  30.461  57.711  1.00  0.00     0.029 C 
HETATM   36  C   UNL     1       5.942  29.935  56.455  1.00  0.00     0.036 C 
ENDBRANCH  31  32
ENDBRANCH   5  31
TORSDOF 6
ENDMDL
MODEL 3
REMARK VINA RESULT:      -9.5      3.991      6.843
REMARK  6 active torsions:
REMARK  status: ('A' for Active; 'I' for Inactive)
REMARK    1  A    between atoms: C_6  and  C_7 
REMARK    2  A    between atoms: C_7  and  N_8 
REMARK    3  A    between atoms: C_12  and  C_13 
REMARK    4  A    between atoms: C_13  and  C_14 
REMARK    5  A    between atoms: N_23  and  C_24 
REMARK    6  A    between atoms: C_24  and  C_25 
ROOT
HETATM    1  C   UNL     1       5.154  29.936  56.276  1.00  0.00     0.164 C 
HETATM    2  N   UNL     1       5.230  30.727  55.055  1.00  0.00    -0.319 N 
HETATM    3  C   UNL     1       4.665  31.971  55.186  1.00  0.00     0.326 C 
HETATM    4  O   UNL     1       4.771  32.861  54.363  1.00  0.00    -0.247 OA
HETATM    5  N   UNL     1       3.999  32.015  56.367  1.00  0.00    -0.265 N 
HETATM    6  C   UNL     1       4.246  30.882  57.086  1.00  0.00     0.263 C 
HETATM    7  O   UNL     1       3.811  30.637  58.208  1.00  0.00    -0.270 OA
HETATM    8  H   UNL     1       5.968  30.591  54.371  1.00  0.00     0.166 HD
ENDROOT
BRANCH   1   9
HETATM    9  C   UNL     1       4.517  28.538  55.942  1.00  0.00     0.033 C 
HETATM   10  C   UNL     1       4.820  27.408  56.947  1.00  0.00     0.036 C 
HETATM   11  C   UNL     1       6.166  26.714  56.762  1.00  0.00     0.235 C 
HETATM   12  N   UNL     1       6.383  26.293  55.331  1.00  0.00    -0.067 N 
HETATM   13  H   UNL     1       5.742  25.511  55.151  1.00  0.00     0.280 HD
HETATM   14  C   UNL     1       6.114  27.362  54.305  1.00  0.00     0.235 C 
HETATM   15  C   UNL     1       4.752  27.993  54.521  1.00  0.00     0.036 C 
BRANCH  12  16
HETATM   16  C   UNL     1       7.793  25.748  55.126  1.00  0.00     0.273 C 
BRANCH  16  17
HETATM   17  C   UNL     1       7.841  24.353  54.559  1.00  0.00    -0.027 A 
HETATM   18  C   UNL     1       7.913  24.097  53.172  1.00  0.00    -0.054 A 
HETATM   19  C   UNL     1       7.928  22.765  52.721  1.00  0.00     0.014 A 
HETATM   20  C   UNL     1       7.935  25.196  52.143  1.00  0.00     0.049 C 
HETATM   21  C   UNL     1       7.868  21.691  53.614  1.00  0.00    -0.061 A 
HETATM   22  C   UNL     1       7.862  20.274  53.118  1.00  0.00     0.048 C 
HETATM   23  C   UNL     1       7.806  21.951  54.983  1.00  0.00     0.007 A 
HETATM   24  C   UNL     1       7.792  23.266  55.452  1.00  0.00     0.010 A 
ENDBRANCH  16  17
ENDBRANCH  12  16
ENDBRANCH   1   9
BRANCH   1  25
HETATM   25  C   UNL     1       6.568  29.805  56.845  1.00  0.00     0.072 A 
HETATM   26  N   UNL     1       7.531  29.512  55.926  1.00  0.00    -0.262 NA
HETATM   27  C   UNL     1       8.809  29.395  56.356  1.00  0.00     0.117 A 
HETATM   28  C   UNL     1       9.186  29.537  57.678  1.00  0.00     0.019 A 
HETATM   29  C   UNL     1       8.200  29.819  58.611  1.00  0.00     0.003 A 
HETATM   30  C   UNL     1       6.876  29.956  58.197  1.00  0.00     0.030 A 
ENDBRANCH   1  25
BRANCH   5  31
HETATM   31  C   UNL     1       3.142  33.104  56.801  1.00  0.00     0.168 C 
BRANCH  31  32
HETATM   32  C   UNL     1       3.673  33.847  58.041  1.00  0.00     0.140 C 
HETATM   33  O   UNL     1       2.643  33.990  59.051  1.00  0.00    -0.384 OA
HETATM   34  C   UNL     1       2.794  35.300  59.623  1.00  0.00     0.168 C 
HETATM   35  C   UNL     1       3.310  36.171  58.505  1.00  0.00     0.029 C 
HETATM   36  C   UNL     1       4.242  35.238  57.772  1.00  0.00     0.036 C 
ENDBRANCH  31  32
ENDBRANCH   5  31
TORSDOF 6
ENDMDL
MODEL 4
REMARK VINA RESULT:      -9.5      2.957      8.445
REMARK  6 active torsions:
REMARK  status: ('A' for Active; 'I' for Inactive)
REMARK    1  A    between atoms: C_6  and  C_7 
REMARK    2  A    between atoms: C_7  and  N_8 
REMARK    3  A    between atoms: C_12  and  C_13 
REMARK    4  A    between atoms: C_13  and  C_14 
REMARK    5  A    between atoms: N_23  and  C_24 
REMARK    6  A    between atoms: C_24  and  C_25 
ROOT
HETATM    1  C   UNL     1       6.046  26.649  54.780  1.00  0.00     0.164 C 
HETATM    2  N   UNL     1       4.632  26.612  54.431  1.00  0.00    -0.319 N 
HETATM    3  C   UNL     1       4.239  27.686  53.672  1.00  0.00     0.326 C 
HETATM    4  O   UNL     1       3.159  27.773  53.118  1.00  0.00    -0.247 OA
HETATM    5  N   UNL     1       5.249  28.590  53.657  1.00  0.00    -0.265 N 
HETATM    6  C   UNL     1       6.357  28.064  54.256  1.00  0.00     0.263 C 
HETATM    7  O   UNL     1       7.443  28.627  54.373  1.00  0.00    -0.270 OA
HETATM    8  H   UNL     1       4.122  25.737  54.349  1.00  0.00     0.166 HD
ENDROOT
BRANCH   1   9
HETATM    9  C   UNL     1       6.194  26.477  56.337  1.00  0.00     0.033 C 
HETATM   10  C   UNL     1       5.337  27.428  57.198  1.00  0.00     0.036 C 
HETATM   11  C   UNL     1       5.920  28.822  57.409  1.00  0.00     0.235 C 
HETATM   12  N   UNL     1       7.356  28.761  57.863  1.00  0.00    -0.067 N 
HETATM   13  H   UNL     1       7.348  28.413  58.828  1.00  0.00     0.280 HD
HETATM   14  C   UNL     1       8.243  27.857  57.049  1.00  0.00     0.235 C 
HETATM   15  C   UNL     1       7.627  26.480  56.900  1.00  0.00     0.036 C 
BRANCH  12  16
HETATM   16  C   UNL     1       7.976  30.154  57.913  1.00  0.00     0.273 C 
BRANCH  16  17
HETATM   17  C   UNL     1       7.962  30.788  59.281  1.00  0.00    -0.027 A 
HETATM   18  C   UNL     1       6.998  31.745  59.666  1.00  0.00    -0.054 A 
HETATM   19  C   UNL     1       7.069  32.309  60.953  1.00  0.00     0.014 A 
HETATM   20  C   UNL     1       5.911  32.222  58.741  1.00  0.00     0.049 C 
HETATM   21  C   UNL     1       8.075  31.948  61.854  1.00  0.00    -0.061 A 
HETATM   22  C   UNL     1       8.153  32.574  63.216  1.00  0.00     0.048 C 
HETATM   23  C   UNL     1       9.019  30.995  61.470  1.00  0.00     0.007 A 
HETATM   24  C   UNL     1       8.965  30.421  60.199  1.00  0.00     0.010 A 
ENDBRANCH  16  17
ENDBRANCH  12  16
ENDBRANCH   1   9
BRANCH   1  25
HETATM   25  C   UNL     1       6.756  25.538  54.007  1.00  0.00     0.072 A 
HETATM   26  N   UNL     1       6.685  24.303  54.580  1.00  0.00    -0.262 NA
HETATM   27  C   UNL     1       7.278  23.268  53.943  1.00  0.00     0.117 A 
HETATM   28  C   UNL     1       7.970  23.398  52.754  1.00  0.00     0.019 A 
HETATM   29  C   UNL     1       8.054  24.659  52.182  1.00  0.00     0.003 A 
HETATM   30  C   UNL     1       7.442  25.744  52.810  1.00  0.00     0.030 A 
ENDBRANCH   1  25
BRANCH   5  31
HETATM   31  C   UNL     1       5.166  29.925  53.092  1.00  0.00     0.168 C 
BRANCH  31  32
HETATM   32  C   UNL     1       4.759  29.940  51.606  1.00  0.00     0.140 C 
HETATM   33  O   UNL     1       5.689  29.178  50.798  1.00  0.00    -0.384 OA
HETATM   34  C   UNL     1       5.870  29.900  49.569  1.00  0.00     0.168 C 
HETATM   35  C   UNL     1       5.730  31.357  49.935  1.00  0.00     0.029 C 
HETATM   36  C   UNL     1       4.640  31.326  50.978  1.00  0.00     0.036 C 
ENDBRANCH  31  32
ENDBRANCH   5  31
TORSDOF 6
ENDMDL
MODEL 5
REMARK VINA RESULT:      -9.4      2.570      7.876
REMARK  6 active torsions:
REMARK  status: ('A' for Active; 'I' for Inactive)
REMARK    1  A    between atoms: C_6  and  C_7 
REMARK    2  A    between atoms: C_7  and  N_8 
REMARK    3  A    between atoms: C_12  and  C_13 
REMARK    4  A    between atoms: C_13  and  C_14 
REMARK    5  A    between atoms: N_23  and  C_24 
REMARK    6  A    between atoms: C_24  and  C_25 
ROOT
HETATM    1  C   UNL     1       6.580  24.830  54.942  1.00  0.00     0.164 C 
HETATM    2  N   UNL     1       5.348  24.432  54.274  1.00  0.00    -0.319 N 
HETATM    3  C   UNL     1       5.174  25.046  53.059  1.00  0.00     0.326 C 
HETATM    4  O   UNL     1       4.319  24.736  52.251  1.00  0.00    -0.247 OA
HETATM    5  N   UNL     1       6.107  26.023  52.938  1.00  0.00    -0.265 N 
HETATM    6  C   UNL     1       6.990  25.958  53.976  1.00  0.00     0.263 C 
HETATM    7  O   UNL     1       7.965  26.689  54.134  1.00  0.00    -0.270 OA
HETATM    8  H   UNL     1       4.919  23.525  54.433  1.00  0.00     0.166 HD
ENDROOT
BRANCH   1   9
HETATM    9  C   UNL     1       6.241  25.305  56.402  1.00  0.00     0.033 C 
HETATM   10  C   UNL     1       5.169  26.408  56.514  1.00  0.00     0.036 C 
HETATM   11  C   UNL     1       5.670  27.831  56.287  1.00  0.00     0.235 C 
HETATM   12  N   UNL     1       6.897  28.126  57.113  1.00  0.00    -0.067 N 
HETATM   13  H   UNL     1       6.589  28.188  58.090  1.00  0.00     0.280 HD
HETATM   14  C   UNL     1       7.984  27.087  57.032  1.00  0.00     0.235 C 
HETATM   15  C   UNL     1       7.431  25.700  57.295  1.00  0.00     0.036 C 
BRANCH  12  16
HETATM   16  C   UNL     1       7.482  29.489  56.758  1.00  0.00     0.273 C 
BRANCH  16  17
HETATM   17  C   UNL     1       8.123  30.208  57.918  1.00  0.00    -0.027 A 
HETATM   18  C   UNL     1       9.516  30.416  58.008  1.00  0.00    -0.054 A 
HETATM   19  C   UNL     1      10.040  31.074  59.136  1.00  0.00     0.014 A 
HETATM   20  C   UNL     1      10.481  29.928  56.960  1.00  0.00     0.049 C 
HETATM   21  C   UNL     1       9.211  31.519  60.171  1.00  0.00    -0.061 A 
HETATM   22  C   UNL     1       9.785  32.199  61.380  1.00  0.00     0.048 C 
HETATM   23  C   UNL     1       7.834  31.318  60.071  1.00  0.00     0.007 A 
HETATM   24  C   UNL     1       7.295  30.669  58.959  1.00  0.00     0.010 A 
ENDBRANCH  16  17
ENDBRANCH  12  16
ENDBRANCH   1   9
BRANCH   1  25
HETATM   25  C   UNL     1       7.534  23.634  54.930  1.00  0.00     0.072 A 
HETATM   26  N   UNL     1       7.617  22.955  56.109  1.00  0.00    -0.262 NA
HETATM   27  C   UNL     1       8.431  21.876  56.167  1.00  0.00     0.117 A 
HETATM   28  C   UNL     1       9.198  21.439  55.104  1.00  0.00     0.019 A 
HETATM   29  C   UNL     1       9.123  22.144  53.912  1.00  0.00     0.003 A 
HETATM   30  C   UNL     1       8.284  23.253  53.817  1.00  0.00     0.030 A 
ENDBRANCH   1  25
BRANCH   5  31
HETATM   31  C   UNL     1       6.158  27.000  51.864  1.00  0.00     0.168 C 
BRANCH  31  32
HETATM   32  C   UNL     1       5.550  28.363  52.244  1.00  0.00     0.140 C 
HETATM   33  O   UNL     1       4.207  28.213  52.766  1.00  0.00    -0.384 OA
HETATM   34  C   UNL     1       3.429  29.304  52.247  1.00  0.00     0.168 C 
HETATM   35  C   UNL     1       4.011  29.601  50.887  1.00  0.00     0.029 C 
HETATM   36  C   UNL     1       5.487  29.386  51.112  1.00  0.00     0.036 C 
ENDBRANCH  31  32
ENDBRANCH   5  31
TORSDOF 6
ENDMDL
MODEL 6
REMARK VINA RESULT:      -9.3      3.224      8.674
REMARK  6 active torsions:
REMARK  status: ('A' for Active; 'I' for Inactive)
REMARK    1  A    between atoms: C_6  and  C_7 
REMARK    2  A    between atoms: C_7  and  N_8 
REMARK    3  A    between atoms: C_12  and  C_13 
REMARK    4  A    between atoms: C_13  and  C_14 
REMARK    5  A    between atoms: N_23  and  C_24 
REMARK    6  A    between atoms: C_24  and  C_25 
ROOT
HETATM    1  C   UNL     1       4.098  29.842  52.385  1.00  0.00     0.164 C 
HETATM    2  N   UNL     1       5.416  29.748  51.770  1.00  0.00    -0.319 N 
HETATM    3  C   UNL     1       5.363  29.515  50.419  1.00  0.00     0.326 C 
HETATM    4  O   UNL     1       6.323  29.578  49.675  1.00  0.00    -0.247 OA
HETATM    5  N   UNL     1       4.081  29.217  50.088  1.00  0.00    -0.265 N 
HETATM    6  C   UNL     1       3.264  29.406  51.165  1.00  0.00     0.263 C 
HETATM    7  O   UNL     1       2.046  29.249  51.175  1.00  0.00    -0.270 OA
HETATM    8  H   UNL     1       6.224  30.228  52.156  1.00  0.00     0.166 HD
ENDROOT
BRANCH   1   9
HETATM    9  C   UNL     1       4.034  28.859  53.611  1.00  0.00     0.033 C 
HETATM   10  C   UNL     1       5.166  29.009  54.648  1.00  0.00     0.036 C 
HETATM   11  C   UNL     1       6.472  28.306  54.295  1.00  0.00     0.235 C 
HETATM   12  N   UNL     1       6.240  26.872  53.890  1.00  0.00    -0.067 N 
HETATM   13  H   UNL     1       5.977  26.363  54.742  1.00  0.00     0.280 HD
HETATM   14  C   UNL     1       5.154  26.666  52.869  1.00  0.00     0.235 C 
HETATM   15  C   UNL     1       3.874  27.361  53.289  1.00  0.00     0.036 C 
BRANCH  12  16
HETATM   16  C   UNL     1       7.528  26.229  53.385  1.00  0.00     0.273 C 
BRANCH  16  17
HETATM   17  C   UNL     1       7.662  24.765  53.720  1.00  0.00    -0.027 A 
HETATM   18  C   UNL     1       7.800  24.298  55.045  1.00  0.00    -0.054 A 
HETATM   19  C   UNL     1       7.946  22.917  55.273  1.00  0.00     0.014 A 
HETATM   20  C   UNL     1       7.838  25.222  56.234  1.00  0.00     0.049 C 
HETATM   21  C   UNL     1       7.962  22.001  54.217  1.00  0.00    -0.061 A 
HETATM   22  C   UNL     1       8.141  20.532  54.473  1.00  0.00     0.048 C 
HETATM   23  C   UNL     1       7.816  22.469  52.911  1.00  0.00     0.007 A 
HETATM   24  C   UNL     1       7.668  23.835  52.664  1.00  0.00     0.010 A 
ENDBRANCH  16  17
ENDBRANCH  12  16
ENDBRANCH   1   9
BRANCH   1  25
HETATM   25  C   UNL     1       3.870  31.296  52.798  1.00  0.00     0.072 A 
HETATM   26  N   UNL     1       4.522  32.219  52.036  1.00  0.00    -0.262 NA
HETATM   27  C   UNL     1       4.354  33.527  52.335  1.00  0.00     0.117 A 
HETATM   28  C   UNL     1       3.576  33.978  53.384  1.00  0.00     0.019 A 
HETATM   29  C   UNL     1       2.927  33.034  54.167  1.00  0.00     0.003 A 
HETATM   30  C   UNL     1       3.071  31.679  53.876  1.00  0.00     0.030 A 
ENDBRANCH   1  25
BRANCH   5  31
HETATM   31  C   UNL     1       3.642  28.758  48.783  1.00  0.00     0.168 C 
BRANCH  31  32
HETATM   32  C   UNL     1       2.888  27.416  48.824  1.00  0.00     0.140 C 
HETATM   33  O   UNL     1       3.805  26.300  48.946  1.00  0.00    -0.384 OA
HETATM   34  C   UNL     1       3.298  25.245  48.111  1.00  0.00     0.168 C 
HETATM   35  C   UNL     1       2.618  25.938  46.956  1.00  0.00     0.029 C 
HETATM   36  C   UNL     1       1.988  27.136  47.623  1.00  0.00     0.036 C 
ENDBRANCH  31  32
ENDBRANCH   5  31
TORSDOF 6
ENDMDL
MODEL 7
REMARK VINA RESULT:      -9.0      7.685     12.347
REMARK  6 active torsions:
REMARK  status: ('A' for Active; 'I' for Inactive)
REMARK    1  A    between atoms: C_6  and  C_7 
REMARK    2  A    between atoms: C_7  and  N_8 
REMARK    3  A    between atoms: C_12  and  C_13 
REMARK    4  A    between atoms: C_13  and  C_14 
REMARK    5  A    between atoms: N_23  and  C_24 
REMARK    6  A    between atoms: C_24  and  C_25 
ROOT
HETATM    1  C   UNL     1       5.388  34.023  64.182  1.00  0.00     0.164 C 
HETATM    2  N   UNL     1       6.105  34.966  63.333  1.00  0.00    -0.319 N 
HETATM    3  C   UNL     1       5.268  35.784  62.615  1.00  0.00     0.326 C 
HETATM    4  O   UNL     1       5.638  36.756  61.984  1.00  0.00    -0.247 OA
HETATM    5  N   UNL     1       4.002  35.318  62.745  1.00  0.00    -0.265 N 
HETATM    6  C   UNL     1       3.966  34.307  63.661  1.00  0.00     0.263 C 
HETATM    7  O   UNL     1       2.960  33.701  64.020  1.00  0.00    -0.270 OA
HETATM    8  H   UNL     1       7.038  35.295  63.563  1.00  0.00     0.166 HD
ENDROOT
BRANCH   1   9
HETATM    9  C   UNL     1       5.917  32.570  63.894  1.00  0.00     0.033 C 
HETATM   10  C   UNL     1       7.380  32.475  63.415  1.00  0.00     0.036 C 
HETATM   11  C   UNL     1       7.597  32.729  61.927  1.00  0.00     0.235 C 
HETATM   12  N   UNL     1       6.653  31.914  61.080  1.00  0.00    -0.067 N 
HETATM   13  H   UNL     1       6.960  30.937  61.150  1.00  0.00     0.280 HD
HETATM   14  C   UNL     1       5.208  31.980  61.494  1.00  0.00     0.235 C 
HETATM   15  C   UNL     1       5.052  31.689  62.974  1.00  0.00     0.036 C 
BRANCH  12  16
HETATM   16  C   UNL     1       6.768  32.295  59.607  1.00  0.00     0.273 C 
BRANCH  16  17
HETATM   17  C   UNL     1       7.823  31.529  58.850  1.00  0.00    -0.027 A 
HETATM   18  C   UNL     1       7.511  30.457  57.986  1.00  0.00    -0.054 A 
HETATM   19  C   UNL     1       8.555  29.776  57.334  1.00  0.00     0.014 A 
HETATM   20  C   UNL     1       6.101  29.982  57.756  1.00  0.00     0.049 C 
HETATM   21  C   UNL     1       9.893  30.132  57.530  1.00  0.00    -0.061 A 
HETATM   22  C   UNL     1      10.999  29.382  56.847  1.00  0.00     0.048 C 
HETATM   23  C   UNL     1      10.193  31.198  58.379  1.00  0.00     0.007 A 
HETATM   24  C   UNL     1       9.171  31.888  59.033  1.00  0.00     0.010 A 
ENDBRANCH  16  17
ENDBRANCH  12  16
ENDBRANCH   1   9
BRANCH   1  25
HETATM   25  C   UNL     1       5.603  34.438  65.638  1.00  0.00     0.072 A 
HETATM   26  N   UNL     1       4.717  35.361  66.109  1.00  0.00    -0.262 NA
HETATM   27  C   UNL     1       4.838  35.764  67.394  1.00  0.00     0.117 A 
HETATM   28  C   UNL     1       5.824  35.308  68.248  1.00  0.00     0.019 A 
HETATM   29  C   UNL     1       6.734  34.383  67.760  1.00  0.00     0.003 A 
HETATM   30  C   UNL     1       6.627  33.938  66.442  1.00  0.00     0.030 A 
ENDBRANCH   1  25
BRANCH   5  31
HETATM   31  C   UNL     1       2.850  35.815  62.013  1.00  0.00     0.168 C 
BRANCH  31  32
HETATM   32  C   UNL     1       2.472  34.948  60.797  1.00  0.00     0.140 C 
HETATM   33  O   UNL     1       3.392  35.154  59.696  1.00  0.00    -0.384 OA
HETATM   34  C   UNL     1       2.611  35.152  58.490  1.00  0.00     0.168 C 
HETATM   35  C   UNL     1       1.273  35.731  58.876  1.00  0.00     0.029 C 
HETATM   36  C   UNL     1       1.061  35.163  60.257  1.00  0.00     0.036 C 
ENDBRANCH  31  32
ENDBRANCH   5  31
TORSDOF 6
ENDMDL
MODEL 8
REMARK VINA RESULT:      -8.9      8.100     12.223
REMARK  6 active torsions:
REMARK  status: ('A' for Active; 'I' for Inactive)
REMARK    1  A    between atoms: C_6  and  C_7 
REMARK    2  A    between atoms: C_7  and  N_8 
REMARK    3  A    between atoms: C_12  and  C_13 
REMARK    4  A    between atoms: C_13  and  C_14 
REMARK    5  A    between atoms: N_23  and  C_24 
REMARK    6  A    between atoms: C_24  and  C_25 
ROOT
HETATM    1  C   UNL     1       5.774  34.189  64.596  1.00  0.00     0.164 C 
HETATM    2  N   UNL     1       4.710  33.333  64.087  1.00  0.00    -0.319 N 
HETATM    3  C   UNL     1       5.180  32.188  63.494  1.00  0.00     0.326 C 
HETATM    4  O   UNL     1       4.478  31.251  63.163  1.00  0.00    -0.247 OA
HETATM    5  N   UNL     1       6.525  32.298  63.360  1.00  0.00    -0.265 N 
HETATM    6  C   UNL     1       6.968  33.421  63.996  1.00  0.00     0.263 C 
HETATM    7  O   UNL     1       8.139  33.782  64.079  1.00  0.00    -0.270 OA
HETATM    8  H   UNL     1       3.780  33.330  64.497  1.00  0.00     0.166 HD
ENDROOT
BRANCH   1   9
HETATM    9  C   UNL     1       5.576  35.643  64.031  1.00  0.00     0.033 C 
HETATM   10  C   UNL     1       4.175  36.254  64.237  1.00  0.00     0.036 C 
HETATM   11  C   UNL     1       3.123  35.834  63.216  1.00  0.00     0.235 C 
HETATM   12  N   UNL     1       3.624  35.992  61.803  1.00  0.00    -0.067 N 
HETATM   13  H   UNL     1       3.674  37.001  61.617  1.00  0.00     0.280 HD
HETATM   14  C   UNL     1       4.984  35.402  61.540  1.00  0.00     0.235 C 
HETATM   15  C   UNL     1       5.992  35.879  62.567  1.00  0.00     0.036 C 
BRANCH  12  16
HETATM   16  C   UNL     1       2.629  35.419  60.799  1.00  0.00     0.273 C 
BRANCH  16  17
HETATM   17  C   UNL     1       3.158  34.258  59.997  1.00  0.00    -0.027 A 
HETATM   18  C   UNL     1       3.763  34.419  58.732  1.00  0.00    -0.054 A 
HETATM   19  C   UNL     1       4.208  33.282  58.035  1.00  0.00     0.014 A 
HETATM   20  C   UNL     1       3.921  35.764  58.072  1.00  0.00     0.049 C 
HETATM   21  C   UNL     1       4.058  31.996  58.564  1.00  0.00    -0.061 A 
HETATM   22  C   UNL     1       4.517  30.789  57.799  1.00  0.00     0.048 C 
HETATM   23  C   UNL     1       3.467  31.844  59.818  1.00  0.00     0.007 A 
HETATM   24  C   UNL     1       3.021  32.961  60.527  1.00  0.00     0.010 A 
ENDBRANCH  16  17
ENDBRANCH  12  16
ENDBRANCH   1   9
BRANCH   1  25
HETATM   25  C   UNL     1       5.724  34.151  66.123  1.00  0.00     0.072 A 
HETATM   26  N   UNL     1       4.489  33.917  66.652  1.00  0.00    -0.262 NA
HETATM   27  C   UNL     1       4.372  33.855  67.998  1.00  0.00     0.117 A 
HETATM   28  C   UNL     1       5.431  34.038  68.866  1.00  0.00     0.019 A 
HETATM   29  C   UNL     1       6.682  34.292  68.325  1.00  0.00     0.003 A 
HETATM   30  C   UNL     1       6.837  34.350  66.940  1.00  0.00     0.030 A 
ENDBRANCH   1  25
BRANCH   5  31
HETATM   31  C   UNL     1       7.371  31.363  62.640  1.00  0.00     0.168 C 
BRANCH  31  32
HETATM   32  C   UNL     1       7.904  31.917  61.305  1.00  0.00     0.140 C 
HETATM   33  O   UNL     1       7.105  31.454  60.188  1.00  0.00    -0.384 OA
HETATM   34  C   UNL     1       8.014  31.170  59.111  1.00  0.00     0.168 C 
HETATM   35  C   UNL     1       9.286  30.700  59.772  1.00  0.00     0.029 C 
HETATM   36  C   UNL     1       9.360  31.581  60.995  1.00  0.00     0.036 C 
ENDBRANCH  31  32
ENDBRANCH   5  31
TORSDOF 6
ENDMDL
MODEL 9
REMARK VINA RESULT:      -8.8      3.802      7.216
REMARK  6 active torsions:
REMARK  status: ('A' for Active; 'I' for Inactive)
REMARK    1  A    between atoms: C_6  and  C_7 
REMARK    2  A    between atoms: C_7  and  N_8 
REMARK    3  A    between atoms: C_12  and  C_13 
REMARK    4  A    between atoms: C_13  and  C_14 
REMARK    5  A    between atoms: N_23  and  C_24 
REMARK    6  A    between atoms: C_24  and  C_25 
ROOT
HETATM    1  C   UNL     1       5.170  30.537  57.196  1.00  0.00     0.164 C 
HETATM    2  N   UNL     1       4.136  29.910  58.011  1.00  0.00    -0.319 N 
HETATM    3  C   UNL     1       3.612  30.756  58.956  1.00  0.00     0.326 C 
HETATM    4  O   UNL     1       2.624  30.510  59.621  1.00  0.00    -0.247 OA
HETATM    5  N   UNL     1       4.377  31.875  58.997  1.00  0.00    -0.265 N 
HETATM    6  C   UNL     1       5.297  31.852  57.989  1.00  0.00     0.263 C 
HETATM    7  O   UNL     1       6.114  32.735  57.745  1.00  0.00    -0.270 OA
HETATM    8  H   UNL     1       3.564  29.148  57.660  1.00  0.00     0.166 HD
ENDROOT
BRANCH   1   9
HETATM    9  C   UNL     1       6.455  29.631  57.214  1.00  0.00     0.033 C 
HETATM   10  C   UNL     1       7.227  29.541  55.881  1.00  0.00     0.036 C 
HETATM   11  C   UNL     1       6.673  28.542  54.871  1.00  0.00     0.235 C 
HETATM   12  N   UNL     1       6.434  27.191  55.497  1.00  0.00    -0.067 N 
HETATM   13  H   UNL     1       7.358  26.782  55.679  1.00  0.00     0.280 HD
HETATM   14  C   UNL     1       5.672  27.217  56.795  1.00  0.00     0.235 C 
HETATM   15  C   UNL     1       6.288  28.204  57.768  1.00  0.00     0.036 C 
BRANCH  12  16
HETATM   16  C   UNL     1       5.730  26.251  54.524  1.00  0.00     0.273 C 
BRANCH  16  17
HETATM   17  C   UNL     1       6.503  24.997  54.207  1.00  0.00    -0.027 A 
HETATM   18  C   UNL     1       6.946  24.684  52.903  1.00  0.00    -0.054 A 
HETATM   19  C   UNL     1       7.640  23.480  52.685  1.00  0.00     0.014 A 
HETATM   20  C   UNL     1       6.673  25.572  51.718  1.00  0.00     0.049 C 
HETATM   21  C   UNL     1       7.894  22.585  53.729  1.00  0.00    -0.061 A 
HETATM   22  C   UNL     1       8.616  21.293  53.478  1.00  0.00     0.048 C 
HETATM   23  C   UNL     1       7.462  22.904  55.016  1.00  0.00     0.007 A 
HETATM   24  C   UNL     1       6.774  24.095  55.254  1.00  0.00     0.010 A 
ENDBRANCH  16  17
ENDBRANCH  12  16
ENDBRANCH   1   9
BRANCH   1  25
HETATM   25  C   UNL     1       4.613  30.722  55.784  1.00  0.00     0.072 A 
HETATM   26  N   UNL     1       4.896  31.925  55.208  1.00  0.00    -0.262 NA
HETATM   27  C   UNL     1       4.447  32.153  53.953  1.00  0.00     0.117 A 
HETATM   28  C   UNL     1       3.699  31.243  53.232  1.00  0.00     0.019 A 
HETATM   29  C   UNL     1       3.398  30.027  53.828  1.00  0.00     0.003 A 
HETATM   30  C   UNL     1       3.858  29.758  55.117  1.00  0.00     0.030 A 
ENDBRANCH   1  25
BRANCH   5  31
HETATM   31  C   UNL     1       4.244  32.942  59.974  1.00  0.00     0.168 C 
BRANCH  31  32
HETATM   32  C   UNL     1       4.916  32.628  61.324  1.00  0.00     0.140 C 
HETATM   33  O   UNL     1       4.148  33.162  62.431  1.00  0.00    -0.384 OA
HETATM   34  C   UNL     1       5.091  33.675  63.388  1.00  0.00     0.168 C 
HETATM   35  C   UNL     1       6.262  34.167  62.574  1.00  0.00     0.029 C 
HETATM   36  C   UNL     1       6.346  33.138  61.473  1.00  0.00     0.036 C 
ENDBRANCH  31  32
ENDBRANCH   5  31
TORSDOF 6
ENDMDL
MODEL 10
REMARK VINA RESULT:      -8.6      2.025      5.257
REMARK  6 active torsions:
REMARK  status: ('A' for Active; 'I' for Inactive)
REMARK    1  A    between atoms: C_6  and  C_7 
REMARK    2  A    between atoms: C_7  and  N_8 
REMARK    3  A    between atoms: C_12  and  C_13 
REMARK    4  A    between atoms: C_13  and  C_14 
REMARK    5  A    between atoms: N_23  and  C_24 
REMARK    6  A    between atoms: C_24  and  C_25 
ROOT
HETATM    1  C   UNL     1       6.962  26.377  56.075  1.00  0.00     0.164 C 
HETATM    2  N   UNL     1       7.047  25.378  57.133  1.00  0.00    -0.319 N 
HETATM    3  C   UNL     1       7.871  24.328  56.813  1.00  0.00     0.326 C 
HETATM    4  O   UNL     1       8.232  23.476  57.604  1.00  0.00    -0.247 OA
HETATM    5  N   UNL     1       8.194  24.424  55.499  1.00  0.00    -0.265 N 
HETATM    6  C   UNL     1       7.730  25.601  54.988  1.00  0.00     0.263 C 
HETATM    7  O   UNL     1       7.889  25.992  53.835  1.00  0.00    -0.270 OA
HETATM    8  H   UNL     1       6.911  25.618  58.110  1.00  0.00     0.166 HD
ENDROOT
BRANCH   1   9
HETATM    9  C   UNL     1       5.447  26.646  55.745  1.00  0.00     0.033 C 
HETATM   10  C   UNL     1       4.800  25.673  54.738  1.00  0.00     0.036 C 
HETATM   11  C   UNL     1       5.061  25.986  53.268  1.00  0.00     0.235 C 
HETATM   12  N   UNL     1       4.774  27.432  52.948  1.00  0.00    -0.067 N 
HETATM   13  H   UNL     1       3.754  27.547  52.987  1.00  0.00     0.280 HD
HETATM   14  C   UNL     1       5.392  28.428  53.893  1.00  0.00     0.235 C 
HETATM   15  C   UNL     1       5.074  28.082  55.334  1.00  0.00     0.036 C 
BRANCH  12  16
HETATM   16  C   UNL     1       5.190  27.771  51.521  1.00  0.00     0.273 C 
BRANCH  16  17
HETATM   17  C   UNL     1       4.065  28.268  50.650  1.00  0.00    -0.027 A 
HETATM   18  C   UNL     1       3.685  27.620  49.454  1.00  0.00    -0.054 A 
HETATM   19  C   UNL     1       2.641  28.161  48.683  1.00  0.00     0.014 A 
HETATM   20  C   UNL     1       4.379  26.384  48.944  1.00  0.00     0.049 C 
HETATM   21  C   UNL     1       1.977  29.329  49.070  1.00  0.00    -0.061 A 
HETATM   22  C   UNL     1       0.879  29.909  48.226  1.00  0.00     0.048 C 
HETATM   23  C   UNL     1       2.352  29.960  50.257  1.00  0.00     0.007 A 
HETATM   24  C   UNL     1       3.384  29.437  51.038  1.00  0.00     0.010 A 
ENDBRANCH  16  17
ENDBRANCH  12  16
ENDBRANCH   1   9
BRANCH   1  25
HETATM   25  C   UNL     1       7.681  27.638  56.554  1.00  0.00     0.072 A 
HETATM   26  N   UNL     1       7.456  27.967  57.858  1.00  0.00    -0.262 NA
HETATM   27  C   UNL     1       8.072  29.064  58.355  1.00  0.00     0.117 A 
HETATM   28  C   UNL     1       8.899  29.880  57.608  1.00  0.00     0.019 A 
HETATM   29  C   UNL     1       9.112  29.552  56.277  1.00  0.00     0.003 A 
HETATM   30  C   UNL     1       8.500  28.420  55.739  1.00  0.00     0.030 A 
ENDBRANCH   1  25
BRANCH   5  31
HETATM   31  C   UNL     1       8.920  23.419  54.743  1.00  0.00     0.168 C 
BRANCH  31  32
HETATM   32  C   UNL     1       8.140  22.104  54.559  1.00  0.00     0.140 C 
HETATM   33  O   UNL     1       8.828  20.992  55.183  1.00  0.00    -0.384 OA
HETATM   34  C   UNL     1       8.681  19.861  54.308  1.00  0.00     0.168 C 
HETATM   35  C   UNL     1       8.639  20.435  52.913  1.00  0.00     0.029 C 
HETATM   36  C   UNL     1       7.859  21.711  53.111  1.00  0.00     0.036 C 
ENDBRANCH  31  32
ENDBRANCH   5  31
TORSDOF 6
ENDMDL
