MODEL 1
REMARK VINA RESULT:     -10.2      0.000      0.000
REMARK  8 active torsions:
REMARK  status: ('A' for Active; 'I' for Inactive)
REMARK    1  A    between atoms: C_5  and  C_6 
REMARK    2  A    between atoms: C_8  and  C_9 
REMARK    3  A    between atoms: C_9  and  C_10 
REMARK    4  A    between atoms: C_10  and  C_11 
REMARK       I    between atoms: C_11  and  N_12 
REMARK    5  A    between atoms: N_12  and  N_13 
REMARK       I    between atoms: N_13  and  C_14 
REMARK    6  A    between atoms: C_14  and  C_15 
REMARK    7  A    between atoms: C_15  and  O_16 
REMARK    8  A    between atoms: O_16  and  C_17 
ROOT
HETATM    1  C   UNL     1       7.008  30.096  57.805  1.00  0.00     0.236 C 
HETATM    2  N   UNL     1       8.120  29.807  58.568  1.00  0.00    -0.267 N 
HETATM    3  O   UNL     1       6.171  30.936  58.130  1.00  0.00    -0.272 OA
HETATM    4  H   UNL     1       8.648  28.944  58.455  1.00  0.00     0.190 HD
ENDROOT
BRANCH   1   5
HETATM    5  C   UNL     1       6.927  29.313  56.511  1.00  0.00     0.112 C 
BRANCH   5   6
HETATM    6  C   UNL     1       6.074  28.060  56.690  1.00  0.00     0.096 C 
BRANCH   6   7
HETATM    7  C   UNL     1       6.917  26.854  56.902  1.00  0.00     0.146 A 
HETATM    8  O   UNL     1       6.850  25.897  55.932  1.00  0.00    -0.294 OA
HETATM    9  C   UNL     1       7.762  24.950  56.311  1.00  0.00     0.105 A 
HETATM   10  C   UNL     1       8.300  25.374  57.508  1.00  0.00     0.157 A 
HETATM   11  N   UNL     1       7.769  26.590  57.871  1.00  0.00    -0.238 NA
BRANCH   9  12
HETATM   12  C   UNL     1       7.945  23.822  55.410  1.00  0.00    -0.001 A 
HETATM   13  C   UNL     1       8.494  22.614  55.867  1.00  0.00     0.015 A 
HETATM   14  C   UNL     1       8.641  21.518  55.013  1.00  0.00     0.007 A 
HETATM   15  C   UNL     1       8.255  21.610  53.673  1.00  0.00    -0.062 A 
HETATM   16  C   UNL     1       8.384  20.432  52.754  1.00  0.00     0.048 C 
HETATM   17  C   UNL     1       7.704  22.810  53.208  1.00  0.00     0.007 A 
HETATM   18  C   UNL     1       7.554  23.904  54.067  1.00  0.00     0.015 A 
ENDBRANCH   9  12
ENDBRANCH   6   7
ENDBRANCH   5   6
ENDBRANCH   1   5
BRANCH   2  19
HETATM   19  N   UNL     1       8.256  30.451  59.801  1.00  0.00    -0.266 N 
HETATM   20  C   UNL     1       9.059  31.572  59.875  1.00  0.00     0.260 C 
HETATM   21  O   UNL     1       9.573  32.089  58.883  1.00  0.00    -0.269 OA
HETATM   22  H   UNL     1       8.016  29.912  60.633  1.00  0.00     0.190 HD
BRANCH  20  23
HETATM   23  C   UNL     1       9.297  32.068  61.294  1.00  0.00     0.280 C 
BRANCH  23  24
HETATM   24  O   UNL     1       8.517  31.292  62.199  1.00  0.00    -0.342 OA
BRANCH  24  25
HETATM   25  C   UNL     1       7.635  31.988  62.979  1.00  0.00     0.069 A 
HETATM   26  C   UNL     1       7.983  32.897  63.977  1.00  0.00     0.037 A 
HETATM   27  C   UNL     1       6.986  33.537  64.723  1.00  0.00     0.009 A 
HETATM   28  C   UNL     1       5.634  33.265  64.488  1.00  0.00    -0.062 A 
HETATM   29  C   UNL     1       4.562  33.971  65.264  1.00  0.00     0.048 C 
HETATM   30  C   UNL     1       5.291  32.353  63.483  1.00  0.00     0.009 A 
HETATM   31  C   UNL     1       6.288  31.712  62.743  1.00  0.00     0.037 A 
ENDBRANCH  24  25
ENDBRANCH  23  24
ENDBRANCH  20  23
ENDBRANCH   2  19
TORSDOF 8
ENDMDL
MODEL 2
REMARK VINA RESULT:     -10.0      1.455      2.245
REMARK  8 active torsions:
REMARK  status: ('A' for Active; 'I' for Inactive)
REMARK    1  A    between atoms: C_5  and  C_6 
REMARK    2  A    between atoms: C_8  and  C_9 
REMARK    3  A    between atoms: C_9  and  C_10 
REMARK    4  A    between atoms: C_10  and  C_11 
REMARK       I    between atoms: C_11  and  N_12 
REMARK    5  A    between atoms: N_12  and  N_13 
REMARK       I    between atoms: N_13  and  C_14 
REMARK    6  A    between atoms: C_14  and  C_15 
REMARK    7  A    between atoms: C_15  and  O_16 
REMARK    8  A    between atoms: O_16  and  C_17 
ROOT
HETATM    1  C   UNL     1       8.803  30.116  58.486  1.00  0.00     0.236 C 
HETATM    2  N   UNL     1       8.018  29.853  59.589  1.00  0.00    -0.267 N 
HETATM    3  O   UNL     1       9.443  31.157  58.351  1.00  0.00    -0.272 OA
HETATM    4  H   UNL     1       7.286  29.145  59.579  1.00  0.00     0.190 HD
ENDROOT
BRANCH   1   5
HETATM    5  C   UNL     1       8.836  28.994  57.469  1.00  0.00     0.112 C 
BRANCH   5   6
HETATM    6  C   UNL     1       7.583  28.128  57.578  1.00  0.00     0.096 C 
BRANCH   6   7
HETATM    7  C   UNL     1       7.268  27.463  56.287  1.00  0.00     0.146 A 
HETATM    8  O   UNL     1       7.784  26.212  56.115  1.00  0.00    -0.294 OA
HETATM    9  C   UNL     1       7.291  25.793  54.910  1.00  0.00     0.105 A 
HETATM   10  C   UNL     1       6.535  26.830  54.407  1.00  0.00     0.157 A 
HETATM   11  N   UNL     1       6.514  27.884  55.293  1.00  0.00    -0.238 NA
BRANCH   9  12
HETATM   12  C   UNL     1       7.641  24.442  54.496  1.00  0.00    -0.001 A 
HETATM   13  C   UNL     1       7.256  23.949  53.239  1.00  0.00     0.015 A 
HETATM   14  C   UNL     1       7.617  22.664  52.825  1.00  0.00     0.007 A 
HETATM   15  C   UNL     1       8.361  21.834  53.667  1.00  0.00    -0.062 A 
HETATM   16  C   UNL     1       8.776  20.463  53.223  1.00  0.00     0.048 C 
HETATM   17  C   UNL     1       8.751  22.316  54.921  1.00  0.00     0.007 A 
HETATM   18  C   UNL     1       8.392  23.605  55.332  1.00  0.00     0.015 A 
ENDBRANCH   9  12
ENDBRANCH   6   7
ENDBRANCH   5   6
ENDBRANCH   1   5
BRANCH   2  19
HETATM   19  N   UNL     1       7.893  30.851  60.559  1.00  0.00    -0.266 N 
HETATM   20  C   UNL     1       8.699  30.786  61.678  1.00  0.00     0.260 C 
HETATM   21  O   UNL     1       9.595  29.952  61.807  1.00  0.00    -0.269 OA
HETATM   22  H   UNL     1       7.030  31.393  60.555  1.00  0.00     0.190 HD
BRANCH  20  23
HETATM   23  C   UNL     1       8.340  31.799  62.757  1.00  0.00     0.280 C 
BRANCH  23  24
HETATM   24  O   UNL     1       6.941  32.063  62.705  1.00  0.00    -0.342 OA
BRANCH  24  25
HETATM   25  C   UNL     1       6.417  32.734  63.775  1.00  0.00     0.069 A 
HETATM   26  C   UNL     1       5.063  32.998  63.979  1.00  0.00     0.037 A 
HETATM   27  C   UNL     1       4.649  33.711  65.109  1.00  0.00     0.009 A 
HETATM   28  C   UNL     1       5.583  34.179  66.040  1.00  0.00    -0.062 A 
HETATM   29  C   UNL     1       5.140  34.917  67.268  1.00  0.00     0.048 C 
HETATM   30  C   UNL     1       6.940  33.908  65.832  1.00  0.00     0.009 A 
HETATM   31  C   UNL     1       7.352  33.200  64.700  1.00  0.00     0.037 A 
ENDBRANCH  24  25
ENDBRANCH  23  24
ENDBRANCH  20  23
ENDBRANCH   2  19
TORSDOF 8
ENDMDL
MODEL 3
REMARK VINA RESULT:      -9.9      1.473     11.252
REMARK  8 active torsions:
REMARK  status: ('A' for Active; 'I' for Inactive)
REMARK    1  A    between atoms: C_5  and  C_6 
REMARK    2  A    between atoms: C_8  and  C_9 
REMARK    3  A    between atoms: C_9  and  C_10 
REMARK    4  A    between atoms: C_10  and  C_11 
REMARK       I    between atoms: C_11  and  N_12 
REMARK    5  A    between atoms: N_12  and  N_13 
REMARK       I    between atoms: N_13  and  C_14 
REMARK    6  A    between atoms: C_14  and  C_15 
REMARK    7  A    between atoms: C_15  and  O_16 
REMARK    8  A    between atoms: O_16  and  C_17 
ROOT
HETATM    1  C   UNL     1       9.690  29.740  57.081  1.00  0.00     0.236 C 
HETATM    2  N   UNL     1       8.594  29.021  57.510  1.00  0.00    -0.267 N 
HETATM    3  O   UNL     1      10.132  29.670  55.936  1.00  0.00    -0.272 OA
HETATM    4  H   UNL     1       8.400  28.861  58.497  1.00  0.00     0.190 HD
ENDROOT
BRANCH   1   5
HETATM    5  C   UNL     1      10.282  30.652  58.136  1.00  0.00     0.112 C 
BRANCH   5   6
HETATM    6  C   UNL     1       9.200  31.529  58.762  1.00  0.00     0.096 C 
BRANCH   6   7
HETATM    7  C   UNL     1       9.016  31.219  60.204  1.00  0.00     0.146 A 
HETATM    8  O   UNL     1       8.236  32.087  60.909  1.00  0.00    -0.294 OA
HETATM    9  C   UNL     1       8.155  31.546  62.163  1.00  0.00     0.105 A 
HETATM   10  C   UNL     1       8.924  30.402  62.152  1.00  0.00     0.157 A 
HETATM   11  N   UNL     1       9.457  30.193  60.900  1.00  0.00    -0.238 NA
BRANCH   9  12
HETATM   12  C   UNL     1       7.319  32.249  63.125  1.00  0.00    -0.001 A 
HETATM   13  C   UNL     1       7.889  33.045  64.132  1.00  0.00     0.015 A 
HETATM   14  C   UNL     1       7.088  33.747  65.038  1.00  0.00     0.007 A 
HETATM   15  C   UNL     1       5.696  33.657  64.966  1.00  0.00    -0.062 A 
HETATM   16  C   UNL     1       4.827  34.427  65.917  1.00  0.00     0.048 C 
HETATM   17  C   UNL     1       5.118  32.868  63.965  1.00  0.00     0.007 A 
HETATM   18  C   UNL     1       5.922  32.170  63.056  1.00  0.00     0.015 A 
ENDBRANCH   9  12
ENDBRANCH   6   7
ENDBRANCH   5   6
ENDBRANCH   1   5
BRANCH   2  19
HETATM   19  N   UNL     1       8.008  28.120  56.617  1.00  0.00    -0.266 N 
HETATM   20  C   UNL     1       7.762  26.832  57.047  1.00  0.00     0.260 C 
HETATM   21  O   UNL     1       7.935  26.473  58.212  1.00  0.00    -0.269 OA
HETATM   22  H   UNL     1       8.069  28.348  55.625  1.00  0.00     0.190 HD
BRANCH  20  23
HETATM   23  C   UNL     1       7.315  25.886  55.940  1.00  0.00     0.280 C 
BRANCH  23  24
HETATM   24  O   UNL     1       7.422  24.542  56.400  1.00  0.00    -0.342 OA
BRANCH  24  25
HETATM   25  C   UNL     1       7.658  23.597  55.441  1.00  0.00     0.069 A 
HETATM   26  C   UNL     1       7.812  23.850  54.078  1.00  0.00     0.037 A 
HETATM   27  C   UNL     1       8.034  22.794  53.188  1.00  0.00     0.009 A 
HETATM   28  C   UNL     1       8.092  21.474  53.648  1.00  0.00    -0.062 A 
HETATM   29  C   UNL     1       8.360  20.341  52.700  1.00  0.00     0.048 C 
HETATM   30  C   UNL     1       7.939  21.225  55.016  1.00  0.00     0.009 A 
HETATM   31  C   UNL     1       7.712  22.281  55.903  1.00  0.00     0.037 A 
ENDBRANCH  24  25
ENDBRANCH  23  24
ENDBRANCH  20  23
ENDBRANCH   2  19
TORSDOF 8
ENDMDL
MODEL 4
REMARK VINA RESULT:      -9.7      1.615     11.299
REMARK  8 active torsions:
REMARK  status: ('A' for Active; 'I' for Inactive)
REMARK    1  A    between atoms: C_5  and  C_6 
REMARK    2  A    between atoms: C_8  and  C_9 
REMARK    3  A    between atoms: C_9  and  C_10 
REMARK    4  A    between atoms: C_10  and  C_11 
REMARK       I    between atoms: C_11  and  N_12 
REMARK    5  A    between atoms: N_12  and  N_13 
REMARK       I    between atoms: N_13  and  C_14 
REMARK    6  A    between atoms: C_14  and  C_15 
REMARK    7  A    between atoms: C_15  and  O_16 
REMARK    8  A    between atoms: O_16  and  C_17 
ROOT
HETATM    1  C   UNL     1       7.191  29.189  57.616  1.00  0.00     0.236 C 
HETATM    2  N   UNL     1       6.691  29.181  56.331  1.00  0.00    -0.267 N 
HETATM    3  O   UNL     1       7.644  28.188  58.166  1.00  0.00    -0.272 OA
HETATM    4  H   UNL     1       6.074  29.913  55.982  1.00  0.00     0.190 HD
ENDROOT
BRANCH   1   5
HETATM    5  C   UNL     1       7.166  30.551  58.279  1.00  0.00     0.112 C 
BRANCH   5   6
HETATM    6  C   UNL     1       8.562  30.946  58.755  1.00  0.00     0.096 C 
BRANCH   6   7
HETATM    7  C   UNL     1       8.656  30.932  60.238  1.00  0.00     0.146 A 
HETATM    8  O   UNL     1       7.825  31.786  60.900  1.00  0.00    -0.294 OA
HETATM    9  C   UNL     1       8.039  31.526  62.226  1.00  0.00     0.105 A 
HETATM   10  C   UNL     1       9.015  30.554  62.287  1.00  0.00     0.157 A 
HETATM   11  N   UNL     1       9.393  30.171  61.020  1.00  0.00    -0.238 NA
BRANCH   9  12
HETATM   12  C   UNL     1       7.225  32.268  63.177  1.00  0.00    -0.001 A 
HETATM   13  C   UNL     1       5.823  32.214  63.124  1.00  0.00     0.015 A 
HETATM   14  C   UNL     1       5.037  32.900  64.055  1.00  0.00     0.007 A 
HETATM   15  C   UNL     1       5.638  33.670  65.054  1.00  0.00    -0.062 A 
HETATM   16  C   UNL     1       4.806  34.389  66.074  1.00  0.00     0.048 C 
HETATM   17  C   UNL     1       7.035  33.729  65.116  1.00  0.00     0.007 A 
HETATM   18  C   UNL     1       7.819  33.037  64.186  1.00  0.00     0.015 A 
ENDBRANCH   9  12
ENDBRANCH   6   7
ENDBRANCH   5   6
ENDBRANCH   1   5
BRANCH   2  19
HETATM   19  N   UNL     1       6.633  27.959  55.656  1.00  0.00    -0.266 N 
HETATM   20  C   UNL     1       7.525  27.732  54.626  1.00  0.00     0.260 C 
HETATM   21  O   UNL     1       8.435  28.512  54.348  1.00  0.00    -0.269 OA
HETATM   22  H   UNL     1       5.768  27.426  55.739  1.00  0.00     0.190 HD
BRANCH  20  23
HETATM   23  C   UNL     1       7.242  26.462  53.834  1.00  0.00     0.280 C 
BRANCH  23  24
HETATM   24  O   UNL     1       6.739  25.462  54.714  1.00  0.00    -0.342 OA
BRANCH  24  25
HETATM   25  C   UNL     1       7.162  24.184  54.474  1.00  0.00     0.069 A 
HETATM   26  C   UNL     1       7.310  23.187  55.437  1.00  0.00     0.037 A 
HETATM   27  C   UNL     1       7.769  21.917  55.070  1.00  0.00     0.009 A 
HETATM   28  C   UNL     1       8.097  21.635  53.740  1.00  0.00    -0.062 A 
HETATM   29  C   UNL     1       8.560  20.265  53.338  1.00  0.00     0.048 C 
HETATM   30  C   UNL     1       7.944  22.637  52.777  1.00  0.00     0.009 A 
HETATM   31  C   UNL     1       7.491  23.907  53.146  1.00  0.00     0.037 A 
ENDBRANCH  24  25
ENDBRANCH  23  24
ENDBRANCH  20  23
ENDBRANCH   2  19
TORSDOF 8
ENDMDL
MODEL 5
REMARK VINA RESULT:      -9.6      2.175      3.018
REMARK  8 active torsions:
REMARK  status: ('A' for Active; 'I' for Inactive)
REMARK    1  A    between atoms: C_5  and  C_6 
REMARK    2  A    between atoms: C_8  and  C_9 
REMARK    3  A    between atoms: C_9  and  C_10 
REMARK    4  A    between atoms: C_10  and  C_11 
REMARK       I    between atoms: C_11  and  N_12 
REMARK    5  A    between atoms: N_12  and  N_13 
REMARK       I    between atoms: N_13  and  C_14 
REMARK    6  A    between atoms: C_14  and  C_15 
REMARK    7  A    between atoms: C_15  and  O_16 
REMARK    8  A    between atoms: O_16  and  C_17 
ROOT
HETATM    1  C   UNL     1       5.554  28.984  56.284  1.00  0.00     0.236 C 
HETATM    2  N   UNL     1       5.711  28.979  57.654  1.00  0.00    -0.267 N 
HETATM    3  O   UNL     1       6.131  29.780  55.546  1.00  0.00    -0.272 OA
HETATM    4  H   UNL     1       5.043  28.528  58.277  1.00  0.00     0.190 HD
ENDROOT
BRANCH   1   5
HETATM    5  C   UNL     1       4.633  27.900  55.764  1.00  0.00     0.112 C 
BRANCH   5   6
HETATM    6  C   UNL     1       4.385  28.073  54.268  1.00  0.00     0.096 C 
BRANCH   6   7
HETATM    7  C   UNL     1       5.076  27.021  53.477  1.00  0.00     0.146 A 
HETATM    8  O   UNL     1       5.707  26.048  54.194  1.00  0.00    -0.294 OA
HETATM    9  C   UNL     1       6.181  25.173  53.256  1.00  0.00     0.105 A 
HETATM   10  C   UNL     1       5.842  25.689  52.024  1.00  0.00     0.157 A 
HETATM   11  N   UNL     1       5.127  26.857  52.171  1.00  0.00    -0.238 NA
BRANCH   9  12
HETATM   12  C   UNL     1       6.859  23.985  53.754  1.00  0.00    -0.001 A 
HETATM   13  C   UNL     1       7.514  23.106  52.877  1.00  0.00     0.015 A 
HETATM   14  C   UNL     1       8.194  21.982  53.355  1.00  0.00     0.007 A 
HETATM   15  C   UNL     1       8.221  21.702  54.723  1.00  0.00    -0.062 A 
HETATM   16  C   UNL     1       8.968  20.513  55.250  1.00  0.00     0.048 C 
HETATM   17  C   UNL     1       7.572  22.573  55.606  1.00  0.00     0.007 A 
HETATM   18  C   UNL     1       6.897  23.701  55.126  1.00  0.00     0.015 A 
ENDBRANCH   9  12
ENDBRANCH   6   7
ENDBRANCH   5   6
ENDBRANCH   1   5
BRANCH   2  19
HETATM   19  N   UNL     1       6.508  29.973  58.228  1.00  0.00    -0.266 N 
HETATM   20  C   UNL     1       7.794  29.646  58.612  1.00  0.00     0.260 C 
HETATM   21  O   UNL     1       8.303  28.551  58.373  1.00  0.00    -0.269 OA
HETATM   22  H   UNL     1       6.028  30.786  58.612  1.00  0.00     0.190 HD
BRANCH  20  23
HETATM   23  C   UNL     1       8.498  30.739  59.405  1.00  0.00     0.280 C 
BRANCH  23  24
HETATM   24  O   UNL     1       7.616  31.847  59.561  1.00  0.00    -0.342 OA
BRANCH  24  25
HETATM   25  C   UNL     1       7.437  32.296  60.840  1.00  0.00     0.069 A 
HETATM   26  C   UNL     1       6.378  33.091  61.276  1.00  0.00     0.037 A 
HETATM   27  C   UNL     1       6.312  33.502  62.612  1.00  0.00     0.009 A 
HETATM   28  C   UNL     1       7.309  33.135  63.521  1.00  0.00    -0.062 A 
HETATM   29  C   UNL     1       7.226  33.549  64.961  1.00  0.00     0.048 C 
HETATM   30  C   UNL     1       8.368  32.335  63.079  1.00  0.00     0.009 A 
HETATM   31  C   UNL     1       8.435  31.929  61.744  1.00  0.00     0.037 A 
ENDBRANCH  24  25
ENDBRANCH  23  24
ENDBRANCH  20  23
ENDBRANCH   2  19
TORSDOF 8
ENDMDL
MODEL 6
REMARK VINA RESULT:      -9.5      1.830      2.337
REMARK  8 active torsions:
REMARK  status: ('A' for Active; 'I' for Inactive)
REMARK    1  A    between atoms: C_5  and  C_6 
REMARK    2  A    between atoms: C_8  and  C_9 
REMARK    3  A    between atoms: C_9  and  C_10 
REMARK    4  A    between atoms: C_10  and  C_11 
REMARK       I    between atoms: C_11  and  N_12 
REMARK    5  A    between atoms: N_12  and  N_13 
REMARK       I    between atoms: N_13  and  C_14 
REMARK    6  A    between atoms: C_14  and  C_15 
REMARK    7  A    between atoms: C_15  and  O_16 
REMARK    8  A    between atoms: O_16  and  C_17 
ROOT
HETATM    1  C   UNL     1       8.863  29.519  57.859  1.00  0.00     0.236 C 
HETATM    2  N   UNL     1       7.714  29.680  58.605  1.00  0.00    -0.267 N 
HETATM    3  O   UNL     1       9.947  29.997  58.185  1.00  0.00    -0.272 OA
HETATM    4  H   UNL     1       6.786  29.535  58.212  1.00  0.00     0.190 HD
ENDROOT
BRANCH   1   5
HETATM    5  C   UNL     1       8.680  28.669  56.618  1.00  0.00     0.112 C 
BRANCH   5   6
HETATM    6  C   UNL     1       7.403  29.061  55.878  1.00  0.00     0.096 C 
BRANCH   6   7
HETATM    7  C   UNL     1       7.060  28.070  54.825  1.00  0.00     0.146 A 
HETATM    8  O   UNL     1       7.542  26.807  55.008  1.00  0.00    -0.294 OA
HETATM    9  C   UNL     1       7.027  26.082  53.969  1.00  0.00     0.105 A 
HETATM   10  C   UNL     1       6.295  26.958  53.197  1.00  0.00     0.157 A 
HETATM   11  N   UNL     1       6.308  28.217  53.754  1.00  0.00    -0.238 NA
BRANCH   9  12
HETATM   12  C   UNL     1       7.338  24.660  53.948  1.00  0.00    -0.001 A 
HETATM   13  C   UNL     1       7.289  23.893  55.123  1.00  0.00     0.015 A 
HETATM   14  C   UNL     1       7.556  22.521  55.103  1.00  0.00     0.007 A 
HETATM   15  C   UNL     1       7.894  21.886  53.905  1.00  0.00    -0.062 A 
HETATM   16  C   UNL     1       8.157  20.409  53.867  1.00  0.00     0.048 C 
HETATM   17  C   UNL     1       7.943  22.641  52.728  1.00  0.00     0.007 A 
HETATM   18  C   UNL     1       7.671  24.013  52.750  1.00  0.00     0.015 A 
ENDBRANCH   9  12
ENDBRANCH   6   7
ENDBRANCH   5   6
ENDBRANCH   1   5
BRANCH   2  19
HETATM   19  N   UNL     1       7.779  30.485  59.744  1.00  0.00    -0.266 N 
HETATM   20  C   UNL     1       7.407  31.811  59.637  1.00  0.00     0.260 C 
HETATM   21  O   UNL     1       6.921  32.286  58.610  1.00  0.00    -0.269 OA
HETATM   22  H   UNL     1       8.369  30.158  60.509  1.00  0.00     0.190 HD
BRANCH  20  23
HETATM   23  C   UNL     1       7.708  32.639  60.879  1.00  0.00     0.280 C 
BRANCH  23  24
HETATM   24  O   UNL     1       6.506  33.255  61.334  1.00  0.00    -0.342 OA
BRANCH  24  25
HETATM   25  C   UNL     1       6.450  33.547  62.668  1.00  0.00     0.069 A 
HETATM   26  C   UNL     1       5.537  34.413  63.268  1.00  0.00     0.037 A 
HETATM   27  C   UNL     1       5.590  34.646  64.647  1.00  0.00     0.009 A 
HETATM   28  C   UNL     1       6.563  34.026  65.438  1.00  0.00    -0.062 A 
HETATM   29  C   UNL     1       6.604  34.249  66.921  1.00  0.00     0.048 C 
HETATM   30  C   UNL     1       7.476  33.156  64.831  1.00  0.00     0.009 A 
HETATM   31  C   UNL     1       7.424  32.929  63.453  1.00  0.00     0.037 A 
ENDBRANCH  24  25
ENDBRANCH  23  24
ENDBRANCH  20  23
ENDBRANCH   2  19
TORSDOF 8
ENDMDL
MODEL 7
REMARK VINA RESULT:      -9.2      5.046      9.319
REMARK  8 active torsions:
REMARK  status: ('A' for Active; 'I' for Inactive)
REMARK    1  A    between atoms: C_5  and  C_6 
REMARK    2  A    between atoms: C_8  and  C_9 
REMARK    3  A    between atoms: C_9  and  C_10 
REMARK    4  A    between atoms: C_10  and  C_11 
REMARK       I    between atoms: C_11  and  N_12 
REMARK    5  A    between atoms: N_12  and  N_13 
REMARK       I    between atoms: N_13  and  C_14 
REMARK    6  A    between atoms: C_14  and  C_15 
REMARK    7  A    between atoms: C_15  and  O_16 
REMARK    8  A    between atoms: O_16  and  C_17 
ROOT
HETATM    1  C   UNL     1       7.828  28.815  55.037  1.00  0.00     0.236 C 
HETATM    2  N   UNL     1       6.594  28.614  54.457  1.00  0.00    -0.267 N 
HETATM    3  O   UNL     1       8.886  28.695  54.422  1.00  0.00    -0.272 OA
HETATM    4  H   UNL     1       5.756  28.438  55.008  1.00  0.00     0.190 HD
ENDROOT
BRANCH   1   5
HETATM    5  C   UNL     1       7.767  29.233  56.492  1.00  0.00     0.112 C 
BRANCH   5   6
HETATM    6  C   UNL     1       7.814  28.012  57.407  1.00  0.00     0.096 C 
BRANCH   6   7
HETATM    7  C   UNL     1       6.991  26.898  56.870  1.00  0.00     0.146 A 
HETATM    8  O   UNL     1       7.652  25.969  56.121  1.00  0.00    -0.294 OA
HETATM    9  C   UNL     1       6.710  25.024  55.822  1.00  0.00     0.105 A 
HETATM   10  C   UNL     1       5.524  25.456  56.377  1.00  0.00     0.157 A 
HETATM   11  N   UNL     1       5.713  26.641  57.053  1.00  0.00    -0.238 NA
BRANCH   9  12
HETATM   12  C   UNL     1       7.164  23.865  55.067  1.00  0.00    -0.001 A 
HETATM   13  C   UNL     1       7.460  22.654  55.711  1.00  0.00     0.015 A 
HETATM   14  C   UNL     1       7.866  21.530  54.986  1.00  0.00     0.007 A 
HETATM   15  C   UNL     1       7.999  21.596  53.597  1.00  0.00    -0.062 A 
HETATM   16  C   UNL     1       8.408  20.389  52.806  1.00  0.00     0.048 C 
HETATM   17  C   UNL     1       7.703  22.799  52.945  1.00  0.00     0.007 A 
HETATM   18  C   UNL     1       7.292  23.921  53.673  1.00  0.00     0.015 A 
ENDBRANCH   9  12
ENDBRANCH   6   7
ENDBRANCH   5   6
ENDBRANCH   1   5
BRANCH   2  19
HETATM   19  N   UNL     1       6.554  28.184  53.128  1.00  0.00    -0.266 N 
HETATM   20  C   UNL     1       5.557  27.307  52.748  1.00  0.00     0.260 C 
HETATM   21  O   UNL     1       4.641  26.973  53.500  1.00  0.00    -0.269 OA
HETATM   22  H   UNL     1       7.411  28.284  52.584  1.00  0.00     0.190 HD
BRANCH  20  23
HETATM   23  C   UNL     1       5.728  26.749  51.342  1.00  0.00     0.280 C 
BRANCH  23  24
HETATM   24  O   UNL     1       5.504  27.789  50.394  1.00  0.00    -0.342 OA
BRANCH  24  25
HETATM   25  C   UNL     1       4.313  27.744  49.725  1.00  0.00     0.069 A 
HETATM   26  C   UNL     1       3.234  28.601  49.937  1.00  0.00     0.037 A 
HETATM   27  C   UNL     1       2.056  28.445  49.198  1.00  0.00     0.009 A 
HETATM   28  C   UNL     1       1.940  27.423  48.249  1.00  0.00    -0.062 A 
HETATM   29  C   UNL     1       0.690  27.271  47.433  1.00  0.00     0.048 C 
HETATM   30  C   UNL     1       3.027  26.568  48.037  1.00  0.00     0.009 A 
HETATM   31  C   UNL     1       4.201  26.723  48.780  1.00  0.00     0.037 A 
ENDBRANCH  24  25
ENDBRANCH  23  24
ENDBRANCH  20  23
ENDBRANCH   2  19
TORSDOF 8
ENDMDL
MODEL 8
REMARK VINA RESULT:      -9.0      2.157     10.997
REMARK  8 active torsions:
REMARK  status: ('A' for Active; 'I' for Inactive)
REMARK    1  A    between atoms: C_5  and  C_6 
REMARK    2  A    between atoms: C_8  and  C_9 
REMARK    3  A    between atoms: C_9  and  C_10 
REMARK    4  A    between atoms: C_10  and  C_11 
REMARK       I    between atoms: C_11  and  N_12 
REMARK    5  A    between atoms: N_12  and  N_13 
REMARK       I    between atoms: N_13  and  C_14 
REMARK    6  A    between atoms: C_14  and  C_15 
REMARK    7  A    between atoms: C_15  and  O_16 
REMARK    8  A    between atoms: O_16  and  C_17 
ROOT
HETATM    1  C   UNL     1       4.722  30.898  55.613  1.00  0.00     0.236 C 
HETATM    2  N   UNL     1       5.855  30.116  55.523  1.00  0.00    -0.267 N 
HETATM    3  O   UNL     1       3.587  30.457  55.444  1.00  0.00    -0.272 OA
HETATM    4  H   UNL     1       6.782  30.514  55.383  1.00  0.00     0.190 HD
ENDROOT
BRANCH   1   5
HETATM    5  C   UNL     1       4.997  32.343  55.973  1.00  0.00     0.112 C 
BRANCH   5   6
HETATM    6  C   UNL     1       4.592  32.627  57.417  1.00  0.00     0.096 C 
BRANCH   6   7
HETATM    7  C   UNL     1       5.711  32.360  58.358  1.00  0.00     0.146 A 
HETATM    8  O   UNL     1       5.588  32.898  59.605  1.00  0.00    -0.294 OA
HETATM    9  C   UNL     1       6.682  32.446  60.291  1.00  0.00     0.105 A 
HETATM   10  C   UNL     1       7.422  31.692  59.405  1.00  0.00     0.157 A 
HETATM   11  N   UNL     1       6.793  31.630  58.183  1.00  0.00    -0.238 NA
BRANCH   9  12
HETATM   12  C   UNL     1       6.776  32.827  61.693  1.00  0.00    -0.001 A 
HETATM   13  C   UNL     1       5.767  33.587  62.304  1.00  0.00     0.015 A 
HETATM   14  C   UNL     1       5.838  33.927  63.658  1.00  0.00     0.007 A 
HETATM   15  C   UNL     1       6.931  33.526  64.430  1.00  0.00    -0.062 A 
HETATM   16  C   UNL     1       7.005  33.863  65.890  1.00  0.00     0.048 C 
HETATM   17  C   UNL     1       7.942  32.766  63.830  1.00  0.00     0.007 A 
HETATM   18  C   UNL     1       7.866  32.422  62.476  1.00  0.00     0.015 A 
ENDBRANCH   9  12
ENDBRANCH   6   7
ENDBRANCH   5   6
ENDBRANCH   1   5
BRANCH   2  19
HETATM   19  N   UNL     1       5.702  28.777  55.152  1.00  0.00    -0.266 N 
HETATM   20  C   UNL     1       5.897  27.801  56.109  1.00  0.00     0.260 C 
HETATM   21  O   UNL     1       6.094  28.062  57.296  1.00  0.00    -0.269 OA
HETATM   22  H   UNL     1       5.755  28.565  54.156  1.00  0.00     0.190 HD
BRANCH  20  23
HETATM   23  C   UNL     1       5.906  26.384  55.552  1.00  0.00     0.280 C 
BRANCH  23  24
HETATM   24  O   UNL     1       6.989  26.246  54.638  1.00  0.00    -0.342 OA
BRANCH  24  25
HETATM   25  C   UNL     1       7.271  24.971  54.231  1.00  0.00     0.069 A 
HETATM   26  C   UNL     1       7.613  24.596  52.932  1.00  0.00     0.037 A 
HETATM   27  C   UNL     1       7.864  23.252  52.633  1.00  0.00     0.009 A 
HETATM   28  C   UNL     1       7.763  22.269  53.624  1.00  0.00    -0.062 A 
HETATM   29  C   UNL     1       8.061  20.832  53.313  1.00  0.00     0.048 C 
HETATM   30  C   UNL     1       7.422  22.652  54.925  1.00  0.00     0.009 A 
HETATM   31  C   UNL     1       7.167  23.994  55.221  1.00  0.00     0.037 A 
ENDBRANCH  24  25
ENDBRANCH  23  24
ENDBRANCH  20  23
ENDBRANCH   2  19
TORSDOF 8
ENDMDL
MODEL 9
REMARK VINA RESULT:      -8.8      1.898     11.525
REMARK  8 active torsions:
REMARK  status: ('A' for Active; 'I' for Inactive)
REMARK    1  A    between atoms: C_5  and  C_6 
REMARK    2  A    between atoms: C_8  and  C_9 
REMARK    3  A    between atoms: C_9  and  C_10 
REMARK    4  A    between atoms: C_10  and  C_11 
REMARK       I    between atoms: C_11  and  N_12 
REMARK    5  A    between atoms: N_12  and  N_13 
REMARK       I    between atoms: N_13  and  C_14 
REMARK    6  A    between atoms: C_14  and  C_15 
REMARK    7  A    between atoms: C_15  and  O_16 
REMARK    8  A    between atoms: O_16  and  C_17 
ROOT
HETATM    1  C   UNL     1       5.453  29.745  57.092  1.00  0.00     0.236 C 
HETATM    2  N   UNL     1       6.424  28.975  57.698  1.00  0.00    -0.267 N 
HETATM    3  O   UNL     1       4.557  29.269  56.396  1.00  0.00    -0.272 OA
HETATM    4  H   UNL     1       7.303  29.370  58.028  1.00  0.00     0.190 HD
ENDROOT
BRANCH   1   5
HETATM    5  C   UNL     1       5.565  31.226  57.386  1.00  0.00     0.112 C 
BRANCH   5   6
HETATM    6  C   UNL     1       6.419  31.468  58.628  1.00  0.00     0.096 C 
BRANCH   6   7
HETATM    7  C   UNL     1       5.744  32.385  59.582  1.00  0.00     0.146 A 
HETATM    8  O   UNL     1       6.183  32.339  60.873  1.00  0.00    -0.294 OA
HETATM    9  C   UNL     1       5.477  33.316  61.519  1.00  0.00     0.105 A 
HETATM   10  C   UNL     1       4.624  33.871  60.588  1.00  0.00     0.157 A 
HETATM   11  N   UNL     1       4.808  33.284  59.356  1.00  0.00    -0.238 NA
BRANCH   9  12
HETATM   12  C   UNL     1       5.793  33.531  62.923  1.00  0.00    -0.001 A 
HETATM   13  C   UNL     1       4.786  33.835  63.852  1.00  0.00     0.015 A 
HETATM   14  C   UNL     1       5.081  34.010  65.207  1.00  0.00     0.007 A 
HETATM   15  C   UNL     1       6.397  33.900  65.663  1.00  0.00    -0.062 A 
HETATM   16  C   UNL     1       6.722  34.060  67.118  1.00  0.00     0.048 C 
HETATM   17  C   UNL     1       7.408  33.594  64.745  1.00  0.00     0.007 A 
HETATM   18  C   UNL     1       7.109  33.414  63.390  1.00  0.00     0.015 A 
ENDBRANCH   9  12
ENDBRANCH   6   7
ENDBRANCH   5   6
ENDBRANCH   1   5
BRANCH   2  19
HETATM   19  N   UNL     1       6.425  27.601  57.446  1.00  0.00    -0.266 N 
HETATM   20  C   UNL     1       7.639  26.953  57.328  1.00  0.00     0.260 C 
HETATM   21  O   UNL     1       8.715  27.511  57.541  1.00  0.00    -0.269 OA
HETATM   22  H   UNL     1       5.568  27.200  57.065  1.00  0.00     0.190 HD
BRANCH  20  23
HETATM   23  C   UNL     1       7.525  25.510  56.856  1.00  0.00     0.280 C 
BRANCH  23  24
HETATM   24  O   UNL     1       7.668  25.468  55.439  1.00  0.00    -0.342 OA
BRANCH  24  25
HETATM   25  C   UNL     1       7.871  24.230  54.894  1.00  0.00     0.069 A 
HETATM   26  C   UNL     1       8.395  23.127  55.567  1.00  0.00     0.037 A 
HETATM   27  C   UNL     1       8.573  21.913  54.895  1.00  0.00     0.009 A 
HETATM   28  C   UNL     1       8.242  21.793  53.541  1.00  0.00    -0.062 A 
HETATM   29  C   UNL     1       8.403  20.484  52.824  1.00  0.00     0.048 C 
HETATM   30  C   UNL     1       7.714  22.902  52.871  1.00  0.00     0.009 A 
HETATM   31  C   UNL     1       7.542  24.115  53.543  1.00  0.00     0.037 A 
ENDBRANCH  24  25
ENDBRANCH  23  24
ENDBRANCH  20  23
ENDBRANCH   2  19
TORSDOF 8
ENDMDL
MODEL 10
REMARK VINA RESULT:      -8.8      2.276      3.819
REMARK  8 active torsions:
REMARK  status: ('A' for Active; 'I' for Inactive)
REMARK    1  A    between atoms: C_5  and  C_6 
REMARK    2  A    between atoms: C_8  and  C_9 
REMARK    3  A    between atoms: C_9  and  C_10 
REMARK    4  A    between atoms: C_10  and  C_11 
REMARK       I    between atoms: C_11  and  N_12 
REMARK    5  A    between atoms: N_12  and  N_13 
REMARK       I    between atoms: N_13  and  C_14 
REMARK    6  A    between atoms: C_14  and  C_15 
REMARK    7  A    between atoms: C_15  and  O_16 
REMARK    8  A    between atoms: O_16  and  C_17 
ROOT
HETATM    1  C   UNL     1       7.415  32.071  60.328  1.00  0.00     0.236 C 
HETATM    2  N   UNL     1       6.057  32.098  60.571  1.00  0.00    -0.267 N 
HETATM    3  O   UNL     1       8.249  32.463  61.141  1.00  0.00    -0.272 OA
HETATM    4  H   UNL     1       5.369  32.044  59.822  1.00  0.00     0.190 HD
ENDROOT
BRANCH   1   5
HETATM    5  C   UNL     1       7.790  31.484  58.983  1.00  0.00     0.112 C 
BRANCH   5   6
HETATM    6  C   UNL     1       8.245  30.034  59.134  1.00  0.00     0.096 C 
BRANCH   6   7
HETATM    7  C   UNL     1       7.518  29.136  58.200  1.00  0.00     0.146 A 
HETATM    8  O   UNL     1       8.145  27.968  57.880  1.00  0.00    -0.294 OA
HETATM    9  C   UNL     1       7.253  27.296  57.091  1.00  0.00     0.105 A 
HETATM   10  C   UNL     1       6.153  28.114  56.950  1.00  0.00     0.157 A 
HETATM   11  N   UNL     1       6.322  29.276  57.668  1.00  0.00    -0.238 NA
BRANCH   9  12
HETATM   12  C   UNL     1       7.646  25.967  56.647  1.00  0.00    -0.001 A 
HETATM   13  C   UNL     1       7.274  25.489  55.380  1.00  0.00     0.015 A 
HETATM   14  C   UNL     1       7.677  24.226  54.937  1.00  0.00     0.007 A 
HETATM   15  C   UNL     1       8.451  23.403  55.759  1.00  0.00    -0.062 A 
HETATM   16  C   UNL     1       8.911  22.057  55.283  1.00  0.00     0.048 C 
HETATM   17  C   UNL     1       8.829  23.871  57.022  1.00  0.00     0.007 A 
HETATM   18  C   UNL     1       8.429  25.138  57.462  1.00  0.00     0.015 A 
ENDBRANCH   9  12
ENDBRANCH   6   7
ENDBRANCH   5   6
ENDBRANCH   1   5
BRANCH   2  19
HETATM   19  N   UNL     1       5.615  32.664  61.769  1.00  0.00    -0.266 N 
HETATM   20  C   UNL     1       4.424  33.363  61.768  1.00  0.00     0.260 C 
HETATM   21  O   UNL     1       3.684  33.417  60.786  1.00  0.00    -0.269 OA
HETATM   22  H   UNL     1       6.313  32.800  62.501  1.00  0.00     0.190 HD
BRANCH  20  23
HETATM   23  C   UNL     1       4.143  34.104  63.068  1.00  0.00     0.280 C 
BRANCH  23  24
HETATM   24  O   UNL     1       4.221  33.188  64.157  1.00  0.00    -0.342 OA
BRANCH  24  25
HETATM   25  C   UNL     1       4.976  33.588  65.224  1.00  0.00     0.069 A 
HETATM   26  C   UNL     1       6.370  33.605  65.266  1.00  0.00     0.037 A 
HETATM   27  C   UNL     1       7.033  34.021  66.425  1.00  0.00     0.009 A 
HETATM   28  C   UNL     1       6.311  34.412  67.558  1.00  0.00    -0.062 A 
HETATM   29  C   UNL     1       7.019  34.888  68.793  1.00  0.00     0.048 C 
HETATM   30  C   UNL     1       4.913  34.396  67.510  1.00  0.00     0.009 A 
HETATM   31  C   UNL     1       4.253  33.976  66.353  1.00  0.00     0.037 A 
ENDBRANCH  24  25
ENDBRANCH  23  24
ENDBRANCH  20  23
ENDBRANCH   2  19
TORSDOF 8
ENDMDL
