MODEL 1
REMARK VINA RESULT:     -11.3      0.000      0.000
REMARK  9 active torsions:
REMARK  status: ('A' for Active; 'I' for Inactive)
REMARK    1  A    between atoms: C_9  and  O_10 
REMARK    2  A    between atoms: O_10  and  C_11 
REMARK    3  A    between atoms: C_22  and  C_23 
REMARK    4  A    between atoms: N_30  and  C_31 
REMARK    5  A    between atoms: C_31  and  C_32 
REMARK    6  A    between atoms: C_32  and  O_33 
REMARK    7  A    between atoms: O_33  and  C_34 
REMARK    8  A    between atoms: C_35  and  C_36 
REMARK    9  A    between atoms: C_36  and  C_37 
ROOT
HETATM    1  H   UNL     1       5.267  29.079  53.746  1.00  0.00     0.188 HD
HETATM    2  N   UNL     1       5.085  29.842  54.405  1.00  0.00    -0.282 NA
HETATM    3  C   UNL     1       5.714  29.592  55.516  1.00  0.00     0.155 C 
HETATM    4  N   UNL     1       6.417  28.430  55.748  1.00  0.00    -0.230 N 
HETATM    5  C   UNL     1       7.114  28.234  56.927  1.00  0.00     0.195 A 
HETATM    6  N   UNL     1       7.278  29.070  57.890  1.00  0.00    -0.183 NA
HETATM    7  N   UNL     1       6.392  27.319  54.902  1.00  0.00    -0.186 NA
HETATM    8  C   UNL     1       7.017  26.210  55.469  1.00  0.00     0.094 A 
HETATM    9  C   UNL     1       7.012  24.962  54.982  1.00  0.00     0.175 C 
HETATM   10  S   UNL     1       7.786  26.596  57.018  1.00  0.00    -0.035 SA
HETATM   11  C   UNL     1       5.720  30.560  56.669  1.00  0.00     0.082 C 
HETATM   12  C   UNL     1       6.759  30.344  57.746  1.00  0.00     0.283 C 
HETATM   13  O   UNL     1       7.156  31.264  58.449  1.00  0.00    -0.265 OA
HETATM   14  C   UNL     1       4.781  31.527  56.674  1.00  0.00     0.034 C 
HETATM   15  H   UNL     1       5.475  27.075  54.526  1.00  0.00     0.154 HD
ENDROOT
BRANCH  14  16
HETATM   16  C   UNL     1       4.465  32.475  57.695  1.00  0.00    -0.007 A 
HETATM   17  C   UNL     1       4.500  33.895  57.577  1.00  0.00     0.002 A 
HETATM   18  C   UNL     1       4.012  34.429  58.780  1.00  0.00     0.045 A 
HETATM   19  C   UNL     1       4.892  34.778  56.545  1.00  0.00     0.014 A 
HETATM   20  C   UNL     1       3.900  35.819  58.958  1.00  0.00     0.030 A 
HETATM   21  N   UNL     1       3.712  33.361  59.603  1.00  0.00    -0.353 N 
HETATM   22  C   UNL     1       4.301  36.669  57.923  1.00  0.00     0.002 A 
HETATM   23  C   UNL     1       4.792  36.158  56.730  1.00  0.00     0.001 A 
HETATM   24  C   UNL     1       3.952  32.181  58.935  1.00  0.00     0.103 A 
BRANCH  21  25
HETATM   25  C   UNL     1       3.104  33.379  60.929  1.00  0.00     0.155 C 
BRANCH  25  26
HETATM   26  C   UNL     1       3.693  32.432  61.976  1.00  0.00     0.196 C 
BRANCH  26  27
HETATM   27  O   UNL     1       5.096  32.696  62.046  1.00  0.00    -0.349 OA
BRANCH  27  28
HETATM   28  C   UNL     1       5.652  33.038  63.245  1.00  0.00     0.075 A 
HETATM   29  C   UNL     1       7.059  32.995  63.295  1.00  0.00    -0.021 A 
HETATM   30  C   UNL     1       7.717  33.365  64.479  1.00  0.00     0.010 A 
HETATM   31  C   UNL     1       6.990  33.754  65.602  1.00  0.00     0.001 A 
HETATM   32  C   UNL     1       5.600  33.781  65.551  1.00  0.00     0.003 A 
HETATM   33  C   UNL     1       4.930  33.425  64.377  1.00  0.00     0.037 A 
BRANCH  29  34
HETATM   34  C   UNL     1       7.882  32.568  62.094  1.00  0.00     0.067 C 
BRANCH  34  35
HETATM   35  C   UNL     1       8.110  31.090  61.914  1.00  0.00    -0.032 C 
HETATM   36  C   UNL     1       9.276  30.429  61.911  1.00  0.00     0.007 C 
ENDBRANCH  34  35
ENDBRANCH  29  34
ENDBRANCH  27  28
ENDBRANCH  26  27
ENDBRANCH  25  26
ENDBRANCH  21  25
ENDBRANCH  14  16
BRANCH   9  37
HETATM   37  O   UNL     1       7.610  23.902  55.625  1.00  0.00    -0.320 OA
BRANCH  37  38
HETATM   38  C   UNL     1       7.863  22.750  54.915  1.00  0.00     0.081 A 
HETATM   39  C   UNL     1       8.188  21.598  55.650  1.00  0.00    -0.028 A 
HETATM   40  C   UNL     1       8.278  21.636  57.149  1.00  0.00     0.051 C 
HETATM   41  C   UNL     1       8.379  20.390  54.967  1.00  0.00     0.009 A 
HETATM   42  C   UNL     1       8.252  20.332  53.577  1.00  0.00     0.001 A 
HETATM   43  C   UNL     1       7.915  21.477  52.859  1.00  0.00     0.003 A 
HETATM   44  C   UNL     1       7.707  22.684  53.526  1.00  0.00     0.038 A 
ENDBRANCH  37  38
ENDBRANCH   9  37
TORSDOF 9
ENDMDL
MODEL 2
REMARK VINA RESULT:     -11.2      2.696     10.771
REMARK  9 active torsions:
REMARK  status: ('A' for Active; 'I' for Inactive)
REMARK    1  A    between atoms: C_9  and  O_10 
REMARK    2  A    between atoms: O_10  and  C_11 
REMARK    3  A    between atoms: C_22  and  C_23 
REMARK    4  A    between atoms: N_30  and  C_31 
REMARK    5  A    between atoms: C_31  and  C_32 
REMARK    6  A    between atoms: C_32  and  O_33 
REMARK    7  A    between atoms: O_33  and  C_34 
REMARK    8  A    between atoms: C_35  and  C_36 
REMARK    9  A    between atoms: C_36  and  C_37 
ROOT
HETATM    1  H   UNL     1       2.593  30.369  57.968  1.00  0.00     0.188 HD
HETATM    2  N   UNL     1       2.859  29.909  57.092  1.00  0.00    -0.282 NA
HETATM    3  C   UNL     1       4.157  29.901  57.002  1.00  0.00     0.155 C 
HETATM    4  N   UNL     1       4.986  30.508  57.919  1.00  0.00    -0.230 N 
HETATM    5  C   UNL     1       6.363  30.426  57.808  1.00  0.00     0.195 A 
HETATM    6  N   UNL     1       7.042  29.752  56.949  1.00  0.00    -0.183 NA
HETATM    7  N   UNL     1       4.540  31.348  58.942  1.00  0.00    -0.186 NA
HETATM    8  C   UNL     1       5.591  31.992  59.591  1.00  0.00     0.094 A 
HETATM    9  C   UNL     1       5.481  32.977  60.495  1.00  0.00     0.175 C 
HETATM   10  S   UNL     1       7.173  31.430  59.025  1.00  0.00    -0.035 SA
HETATM   11  C   UNL     1       4.877  29.226  55.866  1.00  0.00     0.082 C 
HETATM   12  C   UNL     1       6.355  28.961  56.046  1.00  0.00     0.283 C 
HETATM   13  O   UNL     1       6.925  28.061  55.443  1.00  0.00    -0.265 OA
HETATM   14  C   UNL     1       4.163  28.935  54.761  1.00  0.00     0.034 C 
HETATM   15  H   UNL     1       3.807  32.008  58.679  1.00  0.00     0.154 HD
ENDROOT
BRANCH  14  16
HETATM   16  C   UNL     1       4.611  28.437  53.499  1.00  0.00    -0.007 A 
HETATM   17  C   UNL     1       4.811  29.194  52.309  1.00  0.00     0.002 A 
HETATM   18  C   UNL     1       5.357  28.330  51.347  1.00  0.00     0.045 A 
HETATM   19  C   UNL     1       4.589  30.548  51.965  1.00  0.00     0.014 A 
HETATM   20  C   UNL     1       5.691  28.798  50.064  1.00  0.00     0.030 A 
HETATM   21  N   UNL     1       5.462  27.085  51.937  1.00  0.00    -0.353 N 
HETATM   22  C   UNL     1       5.455  30.139  49.749  1.00  0.00     0.002 A 
HETATM   23  C   UNL     1       4.910  31.007  50.686  1.00  0.00     0.001 A 
HETATM   24  C   UNL     1       5.044  27.158  53.248  1.00  0.00     0.103 A 
BRANCH  21  25
HETATM   25  C   UNL     1       6.039  25.864  51.385  1.00  0.00     0.155 C 
BRANCH  25  26
HETATM   26  C   UNL     1       5.946  24.603  52.245  1.00  0.00     0.196 C 
BRANCH  26  27
HETATM   27  O   UNL     1       7.210  24.432  52.889  1.00  0.00    -0.349 OA
BRANCH  27  28
HETATM   28  C   UNL     1       7.482  23.254  53.524  1.00  0.00     0.075 A 
HETATM   29  C   UNL     1       7.433  23.299  54.931  1.00  0.00    -0.021 A 
HETATM   30  C   UNL     1       7.666  22.125  55.666  1.00  0.00     0.010 A 
HETATM   31  C   UNL     1       7.960  20.929  55.015  1.00  0.00     0.001 A 
HETATM   32  C   UNL     1       8.020  20.893  53.625  1.00  0.00     0.003 A 
HETATM   33  C   UNL     1       7.782  22.051  52.879  1.00  0.00     0.037 A 
BRANCH  29  34
HETATM   34  C   UNL     1       7.125  24.586  55.672  1.00  0.00     0.067 C 
BRANCH  34  35
HETATM   35  C   UNL     1       5.680  24.857  56.001  1.00  0.00    -0.032 C 
HETATM   36  C   UNL     1       5.179  25.445  57.096  1.00  0.00     0.007 C 
ENDBRANCH  34  35
ENDBRANCH  29  34
ENDBRANCH  27  28
ENDBRANCH  26  27
ENDBRANCH  25  26
ENDBRANCH  21  25
ENDBRANCH  14  16
BRANCH   9  37
HETATM   37  O   UNL     1       6.568  33.604  61.060  1.00  0.00    -0.320 OA
BRANCH  37  38
HETATM   38  C   UNL     1       6.628  33.728  62.429  1.00  0.00     0.081 A 
HETATM   39  C   UNL     1       7.593  32.965  63.104  1.00  0.00    -0.028 A 
HETATM   40  C   UNL     1       8.505  32.034  62.357  1.00  0.00     0.051 C 
HETATM   41  C   UNL     1       7.733  33.120  64.490  1.00  0.00     0.009 A 
HETATM   42  C   UNL     1       6.922  34.017  65.189  1.00  0.00     0.001 A 
HETATM   43  C   UNL     1       5.976  34.780  64.507  1.00  0.00     0.003 A 
HETATM   44  C   UNL     1       5.836  34.647  63.126  1.00  0.00     0.038 A 
ENDBRANCH  37  38
ENDBRANCH   9  37
TORSDOF 9
ENDMDL
MODEL 3
REMARK VINA RESULT:     -11.0      2.747     11.635
REMARK  9 active torsions:
REMARK  status: ('A' for Active; 'I' for Inactive)
REMARK    1  A    between atoms: C_9  and  O_10 
REMARK    2  A    between atoms: O_10  and  C_11 
REMARK    3  A    between atoms: C_22  and  C_23 
REMARK    4  A    between atoms: N_30  and  C_31 
REMARK    5  A    between atoms: C_31  and  C_32 
REMARK    6  A    between atoms: C_32  and  O_33 
REMARK    7  A    between atoms: O_33  and  C_34 
REMARK    8  A    between atoms: C_35  and  C_36 
REMARK    9  A    between atoms: C_36  and  C_37 
ROOT
HETATM    1  H   UNL     1       7.855  33.010  59.598  1.00  0.00     0.188 HD
HETATM    2  N   UNL     1       7.497  32.328  58.922  1.00  0.00    -0.282 NA
HETATM    3  C   UNL     1       6.257  32.062  59.214  1.00  0.00     0.155 C 
HETATM    4  N   UNL     1       5.610  32.571  60.318  1.00  0.00    -0.230 N 
HETATM    5  C   UNL     1       4.274  32.302  60.555  1.00  0.00     0.195 A 
HETATM    6  N   UNL     1       3.458  31.654  59.802  1.00  0.00    -0.183 NA
HETATM    7  N   UNL     1       6.246  33.278  61.341  1.00  0.00    -0.186 NA
HETATM    8  C   UNL     1       5.407  33.496  62.432  1.00  0.00     0.094 A 
HETATM    9  C   UNL     1       5.768  33.992  63.623  1.00  0.00     0.175 C 
HETATM   10  S   UNL     1       3.751  32.949  62.122  1.00  0.00    -0.035 SA
HETATM   11  C   UNL     1       5.411  31.154  58.363  1.00  0.00     0.082 C 
HETATM   12  C   UNL     1       3.915  31.203  58.577  1.00  0.00     0.283 C 
HETATM   13  O   UNL     1       3.129  30.888  57.693  1.00  0.00    -0.265 OA
HETATM   14  C   UNL     1       6.048  30.341  57.497  1.00  0.00     0.034 C 
HETATM   15  H   UNL     1       7.148  32.904  61.636  1.00  0.00     0.154 HD
ENDROOT
BRANCH  14  16
HETATM   16  C   UNL     1       5.518  29.291  56.686  1.00  0.00    -0.007 A 
HETATM   17  C   UNL     1       4.856  29.437  55.432  1.00  0.00     0.002 A 
HETATM   18  C   UNL     1       4.602  28.148  54.937  1.00  0.00     0.045 A 
HETATM   19  C   UNL     1       4.460  30.556  54.664  1.00  0.00     0.014 A 
HETATM   20  C   UNL     1       3.975  27.964  53.692  1.00  0.00     0.030 A 
HETATM   21  N   UNL     1       5.081  27.255  55.876  1.00  0.00    -0.353 N 
HETATM   22  C   UNL     1       3.588  29.088  52.956  1.00  0.00     0.002 A 
HETATM   23  C   UNL     1       3.825  30.370  53.434  1.00  0.00     0.001 A 
HETATM   24  C   UNL     1       5.665  27.944  56.916  1.00  0.00     0.103 A 
BRANCH  21  25
HETATM   25  C   UNL     1       5.129  25.798  55.803  1.00  0.00     0.155 C 
BRANCH  25  26
HETATM   26  C   UNL     1       6.316  25.108  56.474  1.00  0.00     0.196 C 
BRANCH  26  27
HETATM   27  O   UNL     1       7.343  24.973  55.489  1.00  0.00    -0.349 OA
BRANCH  27  28
HETATM   28  C   UNL     1       7.552  23.758  54.904  1.00  0.00     0.075 A 
HETATM   29  C   UNL     1       7.795  23.787  53.517  1.00  0.00    -0.021 A 
HETATM   30  C   UNL     1       8.054  22.585  52.839  1.00  0.00     0.010 A 
HETATM   31  C   UNL     1       8.055  21.371  53.522  1.00  0.00     0.001 A 
HETATM   32  C   UNL     1       7.802  21.347  54.891  1.00  0.00     0.003 A 
HETATM   33  C   UNL     1       7.551  22.536  55.582  1.00  0.00     0.037 A 
BRANCH  29  34
HETATM   34  C   UNL     1       7.792  25.089  52.739  1.00  0.00     0.067 C 
BRANCH  34  35
HETATM   35  C   UNL     1       6.618  25.338  51.829  1.00  0.00    -0.032 C 
HETATM   36  C   UNL     1       5.319  25.129  52.082  1.00  0.00     0.007 C 
ENDBRANCH  34  35
ENDBRANCH  29  34
ENDBRANCH  27  28
ENDBRANCH  26  27
ENDBRANCH  25  26
ENDBRANCH  21  25
ENDBRANCH  14  16
BRANCH   9  37
HETATM   37  O   UNL     1       4.892  34.133  64.676  1.00  0.00    -0.320 OA
BRANCH  37  38
HETATM   38  C   UNL     1       5.395  34.389  65.931  1.00  0.00     0.081 A 
HETATM   39  C   UNL     1       4.529  34.978  66.865  1.00  0.00    -0.028 A 
HETATM   40  C   UNL     1       3.116  35.332  66.495  1.00  0.00     0.051 C 
HETATM   41  C   UNL     1       4.983  35.186  68.174  1.00  0.00     0.009 A 
HETATM   42  C   UNL     1       6.279  34.818  68.543  1.00  0.00     0.001 A 
HETATM   43  C   UNL     1       7.127  34.222  67.612  1.00  0.00     0.003 A 
HETATM   44  C   UNL     1       6.684  33.995  66.309  1.00  0.00     0.038 A 
ENDBRANCH  37  38
ENDBRANCH   9  37
TORSDOF 9
ENDMDL
MODEL 4
REMARK VINA RESULT:     -10.5      2.693     10.634
REMARK  9 active torsions:
REMARK  status: ('A' for Active; 'I' for Inactive)
REMARK    1  A    between atoms: C_9  and  O_10 
REMARK    2  A    between atoms: O_10  and  C_11 
REMARK    3  A    between atoms: C_22  and  C_23 
REMARK    4  A    between atoms: N_30  and  C_31 
REMARK    5  A    between atoms: C_31  and  C_32 
REMARK    6  A    between atoms: C_32  and  O_33 
REMARK    7  A    between atoms: O_33  and  C_34 
REMARK    8  A    between atoms: C_35  and  C_36 
REMARK    9  A    between atoms: C_36  and  C_37 
ROOT
HETATM    1  H   UNL     1       2.318  30.520  58.496  1.00  0.00     0.188 HD
HETATM    2  N   UNL     1       2.587  30.182  57.567  1.00  0.00    -0.282 NA
HETATM    3  C   UNL     1       3.870  30.344  57.419  1.00  0.00     0.155 C 
HETATM    4  N   UNL     1       4.672  30.959  58.354  1.00  0.00    -0.230 N 
HETATM    5  C   UNL     1       6.040  31.059  58.174  1.00  0.00     0.195 A 
HETATM    6  N   UNL     1       6.745  30.560  57.222  1.00  0.00    -0.183 NA
HETATM    7  N   UNL     1       4.187  31.636  59.476  1.00  0.00    -0.186 NA
HETATM    8  C   UNL     1       5.189  32.341  60.140  1.00  0.00     0.094 A 
HETATM    9  C   UNL     1       5.014  33.214  61.142  1.00  0.00     0.175 C 
HETATM   10  S   UNL     1       6.792  32.036  59.450  1.00  0.00    -0.035 SA
HETATM   11  C   UNL     1       4.600  29.874  56.189  1.00  0.00     0.082 C 
HETATM   12  C   UNL     1       6.107  29.779  56.275  1.00  0.00     0.283 C 
HETATM   13  O   UNL     1       6.744  29.018  55.559  1.00  0.00    -0.265 OA
HETATM   14  C   UNL     1       3.864  29.604  55.093  1.00  0.00     0.034 C 
HETATM   15  H   UNL     1       3.367  32.221  59.314  1.00  0.00     0.154 HD
ENDROOT
BRANCH  14  16
HETATM   16  C   UNL     1       4.296  29.287  53.769  1.00  0.00    -0.007 A 
HETATM   17  C   UNL     1       4.522  30.208  52.705  1.00  0.00     0.002 A 
HETATM   18  C   UNL     1       5.039  29.482  51.621  1.00  0.00     0.045 A 
HETATM   19  C   UNL     1       4.345  31.605  52.571  1.00  0.00     0.014 A 
HETATM   20  C   UNL     1       5.390  30.127  50.423  1.00  0.00     0.030 A 
HETATM   21  N   UNL     1       5.103  28.159  52.017  1.00  0.00    -0.353 N 
HETATM   22  C   UNL     1       5.199  31.507  50.315  1.00  0.00     0.002 A 
HETATM   23  C   UNL     1       4.682  32.241  51.375  1.00  0.00     0.001 A 
HETATM   24  C   UNL     1       4.686  28.047  53.325  1.00  0.00     0.103 A 
BRANCH  21  25
HETATM   25  C   UNL     1       5.639  27.017  51.284  1.00  0.00     0.155 C 
BRANCH  25  26
HETATM   26  C   UNL     1       5.604  25.661  51.991  1.00  0.00     0.196 C 
BRANCH  26  27
HETATM   27  O   UNL     1       6.951  25.321  52.326  1.00  0.00    -0.349 OA
BRANCH  27  28
HETATM   28  C   UNL     1       7.283  25.123  53.635  1.00  0.00     0.075 A 
HETATM   29  C   UNL     1       7.782  23.843  53.947  1.00  0.00    -0.021 A 
HETATM   30  C   UNL     1       8.181  23.563  55.264  1.00  0.00     0.010 A 
HETATM   31  C   UNL     1       8.072  24.531  56.259  1.00  0.00     0.001 A 
HETATM   32  C   UNL     1       7.567  25.790  55.948  1.00  0.00     0.003 A 
HETATM   33  C   UNL     1       7.173  26.088  54.640  1.00  0.00     0.037 A 
BRANCH  29  34
HETATM   34  C   UNL     1       7.906  22.762  52.891  1.00  0.00     0.067 C 
BRANCH  34  35
HETATM   35  C   UNL     1       8.149  21.357  53.377  1.00  0.00    -0.032 C 
HETATM   36  C   UNL     1       8.433  20.269  52.647  1.00  0.00     0.007 C 
ENDBRANCH  34  35
ENDBRANCH  29  34
ENDBRANCH  27  28
ENDBRANCH  26  27
ENDBRANCH  25  26
ENDBRANCH  21  25
ENDBRANCH  14  16
BRANCH   9  37
HETATM   37  O   UNL     1       6.049  33.914  61.719  1.00  0.00    -0.320 OA
BRANCH  37  38
HETATM   38  C   UNL     1       6.133  33.969  63.091  1.00  0.00     0.081 A 
HETATM   39  C   UNL     1       7.190  33.275  63.701  1.00  0.00    -0.028 A 
HETATM   40  C   UNL     1       8.173  32.488  62.882  1.00  0.00     0.051 C 
HETATM   41  C   UNL     1       7.351  33.368  65.090  1.00  0.00     0.009 A 
HETATM   42  C   UNL     1       6.471  34.135  65.856  1.00  0.00     0.001 A 
HETATM   43  C   UNL     1       5.433  34.831  65.240  1.00  0.00     0.003 A 
HETATM   44  C   UNL     1       5.269  34.760  63.857  1.00  0.00     0.038 A 
ENDBRANCH  37  38
ENDBRANCH   9  37
TORSDOF 9
ENDMDL
MODEL 5
REMARK VINA RESULT:     -10.3      2.626     11.741
REMARK  9 active torsions:
REMARK  status: ('A' for Active; 'I' for Inactive)
REMARK    1  A    between atoms: C_9  and  O_10 
REMARK    2  A    between atoms: O_10  and  C_11 
REMARK    3  A    between atoms: C_22  and  C_23 
REMARK    4  A    between atoms: N_30  and  C_31 
REMARK    5  A    between atoms: C_31  and  C_32 
REMARK    6  A    between atoms: C_32  and  O_33 
REMARK    7  A    between atoms: O_33  and  C_34 
REMARK    8  A    between atoms: C_35  and  C_36 
REMARK    9  A    between atoms: C_36  and  C_37 
ROOT
HETATM    1  H   UNL     1       9.294  31.480  59.570  1.00  0.00     0.188 HD
HETATM    2  N   UNL     1       9.098  30.793  58.835  1.00  0.00    -0.282 NA
HETATM    3  C   UNL     1       7.841  30.878  58.509  1.00  0.00     0.155 C 
HETATM    4  N   UNL     1       6.945  31.708  59.145  1.00  0.00    -0.230 N 
HETATM    5  C   UNL     1       5.630  31.802  58.726  1.00  0.00     0.195 A 
HETATM    6  N   UNL     1       5.090  31.240  57.703  1.00  0.00    -0.183 NA
HETATM    7  N   UNL     1       7.228  32.415  60.316  1.00  0.00    -0.186 NA
HETATM    8  C   UNL     1       6.092  33.009  60.862  1.00  0.00     0.094 A 
HETATM    9  C   UNL     1       6.007  33.607  62.058  1.00  0.00     0.175 C 
HETATM   10  S   UNL     1       4.671  32.816  59.821  1.00  0.00    -0.035 SA
HETATM   11  C   UNL     1       7.245  30.057  57.398  1.00  0.00     0.082 C 
HETATM   12  C   UNL     1       5.896  30.489  56.867  1.00  0.00     0.283 C 
HETATM   13  O   UNL     1       5.535  30.216  55.730  1.00  0.00    -0.265 OA
HETATM   14  C   UNL     1       7.937  28.980  56.979  1.00  0.00     0.034 C 
HETATM   15  H   UNL     1       7.752  31.899  61.023  1.00  0.00     0.154 HD
ENDROOT
BRANCH  14  16
HETATM   16  C   UNL     1       7.551  27.957  56.059  1.00  0.00    -0.007 A 
HETATM   17  C   UNL     1       6.547  26.966  56.262  1.00  0.00     0.002 A 
HETATM   18  C   UNL     1       6.424  26.240  55.067  1.00  0.00     0.045 A 
HETATM   19  C   UNL     1       5.718  26.628  57.357  1.00  0.00     0.014 A 
HETATM   20  C   UNL     1       5.485  25.201  54.948  1.00  0.00     0.030 A 
HETATM   21  N   UNL     1       7.342  26.768  54.179  1.00  0.00    -0.353 N 
HETATM   22  C   UNL     1       4.682  24.884  56.048  1.00  0.00     0.002 A 
HETATM   23  C   UNL     1       4.795  25.587  57.240  1.00  0.00     0.001 A 
HETATM   24  C   UNL     1       7.998  27.827  54.766  1.00  0.00     0.103 A 
BRANCH  21  25
HETATM   25  C   UNL     1       7.557  26.417  52.779  1.00  0.00     0.155 C 
BRANCH  25  26
HETATM   26  C   UNL     1       7.869  24.952  52.471  1.00  0.00     0.196 C 
BRANCH  26  27
HETATM   27  O   UNL     1       8.198  24.317  53.709  1.00  0.00    -0.349 OA
BRANCH  27  28
HETATM   28  C   UNL     1       8.204  22.954  53.779  1.00  0.00     0.075 A 
HETATM   29  C   UNL     1       7.994  22.413  55.063  1.00  0.00    -0.021 A 
HETATM   30  C   UNL     1       7.950  21.018  55.222  1.00  0.00     0.010 A 
HETATM   31  C   UNL     1       8.128  20.173  54.129  1.00  0.00     0.001 A 
HETATM   32  C   UNL     1       8.347  20.714  52.865  1.00  0.00     0.003 A 
HETATM   33  C   UNL     1       8.385  22.100  52.688  1.00  0.00     0.037 A 
BRANCH  29  34
HETATM   34  C   UNL     1       7.806  23.302  56.276  1.00  0.00     0.067 C 
BRANCH  34  35
HETATM   35  C   UNL     1       9.018  24.050  56.770  1.00  0.00    -0.032 C 
HETATM   36  C   UNL     1       9.090  24.926  57.781  1.00  0.00     0.007 C 
ENDBRANCH  34  35
ENDBRANCH  29  34
ENDBRANCH  27  28
ENDBRANCH  26  27
ENDBRANCH  25  26
ENDBRANCH  21  25
ENDBRANCH  14  16
BRANCH   9  37
HETATM   37  O   UNL     1       4.834  34.129  62.556  1.00  0.00    -0.320 OA
BRANCH  37  38
HETATM   38  C   UNL     1       4.765  34.456  63.890  1.00  0.00     0.081 A 
HETATM   39  C   UNL     1       4.275  35.730  64.218  1.00  0.00    -0.028 A 
HETATM   40  C   UNL     1       3.867  36.701  63.147  1.00  0.00     0.051 C 
HETATM   41  C   UNL     1       4.121  36.071  65.568  1.00  0.00     0.009 A 
HETATM   42  C   UNL     1       4.453  35.160  66.573  1.00  0.00     0.001 A 
HETATM   43  C   UNL     1       4.925  33.892  66.238  1.00  0.00     0.003 A 
HETATM   44  C   UNL     1       5.070  33.534  64.897  1.00  0.00     0.038 A 
ENDBRANCH  37  38
ENDBRANCH   9  37
TORSDOF 9
ENDMDL
MODEL 6
REMARK VINA RESULT:     -10.1      1.896      2.848
REMARK  9 active torsions:
REMARK  status: ('A' for Active; 'I' for Inactive)
REMARK    1  A    between atoms: C_9  and  O_10 
REMARK    2  A    between atoms: O_10  and  C_11 
REMARK    3  A    between atoms: C_22  and  C_23 
REMARK    4  A    between atoms: N_30  and  C_31 
REMARK    5  A    between atoms: C_31  and  C_32 
REMARK    6  A    between atoms: C_32  and  O_33 
REMARK    7  A    between atoms: O_33  and  C_34 
REMARK    8  A    between atoms: C_35  and  C_36 
REMARK    9  A    between atoms: C_36  and  C_37 
ROOT
HETATM    1  H   UNL     1       8.546  29.934  58.447  1.00  0.00     0.188 HD
HETATM    2  N   UNL     1       7.937  30.712  58.721  1.00  0.00    -0.282 NA
HETATM    3  C   UNL     1       6.735  30.475  58.284  1.00  0.00     0.155 C 
HETATM    4  N   UNL     1       6.409  29.387  57.506  1.00  0.00    -0.230 N 
HETATM    5  C   UNL     1       5.104  29.150  57.111  1.00  0.00     0.195 A 
HETATM    6  N   UNL     1       4.050  29.806  57.449  1.00  0.00    -0.183 NA
HETATM    7  N   UNL     1       7.347  28.515  56.947  1.00  0.00    -0.186 NA
HETATM    8  C   UNL     1       6.769  27.631  56.038  1.00  0.00     0.094 A 
HETATM    9  C   UNL     1       7.423  26.793  55.221  1.00  0.00     0.175 C 
HETATM   10  S   UNL     1       5.004  27.779  55.990  1.00  0.00    -0.035 SA
HETATM   11  C   UNL     1       5.578  31.388  58.588  1.00  0.00     0.082 C 
HETATM   12  C   UNL     1       4.187  30.843  58.353  1.00  0.00     0.283 C 
HETATM   13  O   UNL     1       3.216  31.276  58.959  1.00  0.00    -0.265 OA
HETATM   14  C   UNL     1       5.864  32.634  59.016  1.00  0.00     0.034 C 
HETATM   15  H   UNL     1       8.177  28.959  56.555  1.00  0.00     0.154 HD
ENDROOT
BRANCH  14  16
HETATM   16  C   UNL     1       4.986  33.739  59.236  1.00  0.00    -0.007 A 
HETATM   17  C   UNL     1       4.363  34.542  58.236  1.00  0.00     0.002 A 
HETATM   18  C   UNL     1       3.504  35.438  58.891  1.00  0.00     0.045 A 
HETATM   19  C   UNL     1       4.442  34.577  56.825  1.00  0.00     0.014 A 
HETATM   20  C   UNL     1       2.722  36.351  58.162  1.00  0.00     0.030 A 
HETATM   21  N   UNL     1       3.623  35.194  60.246  1.00  0.00    -0.353 N 
HETATM   22  C   UNL     1       2.825  36.369  56.768  1.00  0.00     0.002 A 
HETATM   23  C   UNL     1       3.675  35.494  56.104  1.00  0.00     0.001 A 
HETATM   24  C   UNL     1       4.492  34.145  60.452  1.00  0.00     0.103 A 
BRANCH  21  25
HETATM   25  C   UNL     1       2.886  35.803  61.348  1.00  0.00     0.155 C 
BRANCH  25  26
HETATM   26  C   UNL     1       3.699  36.595  62.373  1.00  0.00     0.196 C 
BRANCH  26  27
HETATM   27  O   UNL     1       4.614  35.685  62.986  1.00  0.00    -0.349 OA
BRANCH  27  28
HETATM   28  C   UNL     1       4.452  35.361  64.302  1.00  0.00     0.075 A 
HETATM   29  C   UNL     1       5.025  34.137  64.699  1.00  0.00    -0.021 A 
HETATM   30  C   UNL     1       4.936  33.740  66.044  1.00  0.00     0.010 A 
HETATM   31  C   UNL     1       4.275  34.537  66.976  1.00  0.00     0.001 A 
HETATM   32  C   UNL     1       3.700  35.739  66.575  1.00  0.00     0.003 A 
HETATM   33  C   UNL     1       3.787  36.153  65.242  1.00  0.00     0.037 A 
BRANCH  29  34
HETATM   34  C   UNL     1       5.744  33.240  63.710  1.00  0.00     0.067 C 
BRANCH  34  35
HETATM   35  C   UNL     1       7.250  33.256  63.742  1.00  0.00    -0.032 C 
HETATM   36  C   UNL     1       8.096  32.350  63.232  1.00  0.00     0.007 C 
ENDBRANCH  34  35
ENDBRANCH  29  34
ENDBRANCH  27  28
ENDBRANCH  26  27
ENDBRANCH  25  26
ENDBRANCH  21  25
ENDBRANCH  14  16
BRANCH   9  37
HETATM   37  O   UNL     1       6.786  25.981  54.310  1.00  0.00    -0.320 OA
BRANCH  37  38
HETATM   38  C   UNL     1       7.093  24.640  54.285  1.00  0.00     0.081 A 
HETATM   39  C   UNL     1       7.527  24.101  53.064  1.00  0.00    -0.028 A 
HETATM   40  C   UNL     1       7.627  24.955  51.832  1.00  0.00     0.051 C 
HETATM   41  C   UNL     1       7.919  22.756  53.018  1.00  0.00     0.009 A 
HETATM   42  C   UNL     1       7.875  21.964  54.167  1.00  0.00     0.001 A 
HETATM   43  C   UNL     1       7.456  22.512  55.377  1.00  0.00     0.003 A 
HETATM   44  C   UNL     1       7.077  23.853  55.442  1.00  0.00     0.038 A 
ENDBRANCH  37  38
ENDBRANCH   9  37
TORSDOF 9
ENDMDL
MODEL 7
REMARK VINA RESULT:      -9.9      2.962     10.980
REMARK  9 active torsions:
REMARK  status: ('A' for Active; 'I' for Inactive)
REMARK    1  A    between atoms: C_9  and  O_10 
REMARK    2  A    between atoms: O_10  and  C_11 
REMARK    3  A    between atoms: C_22  and  C_23 
REMARK    4  A    between atoms: N_30  and  C_31 
REMARK    5  A    between atoms: C_31  and  C_32 
REMARK    6  A    between atoms: C_32  and  O_33 
REMARK    7  A    between atoms: O_33  and  C_34 
REMARK    8  A    between atoms: C_35  and  C_36 
REMARK    9  A    between atoms: C_36  and  C_37 
ROOT
HETATM    1  H   UNL     1       2.050  30.479  61.119  1.00  0.00     0.188 HD
HETATM    2  N   UNL     1       2.283  30.354  60.129  1.00  0.00    -0.282 NA
HETATM    3  C   UNL     1       3.310  31.100  59.845  1.00  0.00     0.155 C 
HETATM    4  N   UNL     1       3.892  31.967  60.743  1.00  0.00    -0.230 N 
HETATM    5  C   UNL     1       5.017  32.700  60.409  1.00  0.00     0.195 A 
HETATM    6  N   UNL     1       5.701  32.636  59.322  1.00  0.00    -0.183 NA
HETATM    7  N   UNL     1       3.350  32.281  61.991  1.00  0.00    -0.186 NA
HETATM    8  C   UNL     1       4.021  33.335  62.608  1.00  0.00     0.094 A 
HETATM    9  C   UNL     1       3.642  33.972  63.724  1.00  0.00     0.175 C 
HETATM   10  S   UNL     1       5.450  33.846  61.692  1.00  0.00    -0.035 SA
HETATM   11  C   UNL     1       3.957  31.088  58.486  1.00  0.00     0.082 C 
HETATM   12  C   UNL     1       5.335  31.699  58.372  1.00  0.00     0.283 C 
HETATM   13  O   UNL     1       6.118  31.360  57.494  1.00  0.00    -0.265 OA
HETATM   14  C   UNL     1       3.250  30.565  57.465  1.00  0.00     0.034 C 
HETATM   15  H   UNL     1       2.340  32.427  62.006  1.00  0.00     0.154 HD
ENDROOT
BRANCH  14  16
HETATM   16  C   UNL     1       3.550  30.556  56.068  1.00  0.00    -0.007 A 
HETATM   17  C   UNL     1       3.509  31.671  55.182  1.00  0.00     0.002 A 
HETATM   18  C   UNL     1       3.981  31.235  53.934  1.00  0.00     0.045 A 
HETATM   19  C   UNL     1       3.124  33.023  55.334  1.00  0.00     0.014 A 
HETATM   20  C   UNL     1       4.083  32.124  52.850  1.00  0.00     0.030 A 
HETATM   21  N   UNL     1       4.278  29.891  54.062  1.00  0.00    -0.353 N 
HETATM   22  C   UNL     1       3.690  33.454  53.027  1.00  0.00     0.002 A 
HETATM   23  C   UNL     1       3.214  33.901  54.252  1.00  0.00     0.001 A 
HETATM   24  C   UNL     1       4.050  29.489  55.360  1.00  0.00     0.103 A 
BRANCH  21  25
HETATM   25  C   UNL     1       4.870  28.993  53.077  1.00  0.00     0.155 C 
BRANCH  25  26
HETATM   26  C   UNL     1       6.161  28.278  53.478  1.00  0.00     0.196 C 
BRANCH  26  27
HETATM   27  O   UNL     1       5.796  26.990  53.979  1.00  0.00    -0.349 OA
BRANCH  27  28
HETATM   28  C   UNL     1       6.514  25.895  53.593  1.00  0.00     0.075 A 
HETATM   29  C   UNL     1       6.600  24.860  54.545  1.00  0.00    -0.021 A 
HETATM   30  C   UNL     1       7.291  23.682  54.220  1.00  0.00     0.010 A 
HETATM   31  C   UNL     1       7.900  23.538  52.975  1.00  0.00     0.001 A 
HETATM   32  C   UNL     1       7.822  24.569  52.043  1.00  0.00     0.003 A 
HETATM   33  C   UNL     1       7.131  25.745  52.348  1.00  0.00     0.037 A 
BRANCH  29  34
HETATM   34  C   UNL     1       5.957  24.987  55.913  1.00  0.00     0.067 C 
BRANCH  34  35
HETATM   35  C   UNL     1       6.881  25.167  57.089  1.00  0.00    -0.032 C 
HETATM   36  C   UNL     1       7.686  26.205  57.353  1.00  0.00     0.007 C 
ENDBRANCH  34  35
ENDBRANCH  29  34
ENDBRANCH  27  28
ENDBRANCH  26  27
ENDBRANCH  25  26
ENDBRANCH  21  25
ENDBRANCH  14  16
BRANCH   9  37
HETATM   37  O   UNL     1       4.330  35.042  64.250  1.00  0.00    -0.320 OA
BRANCH  37  38
HETATM   38  C   UNL     1       5.119  34.845  65.361  1.00  0.00     0.081 A 
HETATM   39  C   UNL     1       4.566  35.169  66.610  1.00  0.00    -0.028 A 
HETATM   40  C   UNL     1       3.177  35.731  66.719  1.00  0.00     0.051 C 
HETATM   41  C   UNL     1       5.311  34.913  67.768  1.00  0.00     0.009 A 
HETATM   42  C   UNL     1       6.585  34.348  67.682  1.00  0.00     0.001 A 
HETATM   43  C   UNL     1       7.120  34.017  66.439  1.00  0.00     0.003 A 
HETATM   44  C   UNL     1       6.384  34.253  65.277  1.00  0.00     0.038 A 
ENDBRANCH  37  38
ENDBRANCH   9  37
TORSDOF 9
ENDMDL
MODEL 8
REMARK VINA RESULT:      -9.8      3.247     11.437
REMARK  9 active torsions:
REMARK  status: ('A' for Active; 'I' for Inactive)
REMARK    1  A    between atoms: C_9  and  O_10 
REMARK    2  A    between atoms: O_10  and  C_11 
REMARK    3  A    between atoms: C_22  and  C_23 
REMARK    4  A    between atoms: N_30  and  C_31 
REMARK    5  A    between atoms: C_31  and  C_32 
REMARK    6  A    between atoms: C_32  and  O_33 
REMARK    7  A    between atoms: O_33  and  C_34 
REMARK    8  A    between atoms: C_35  and  C_36 
REMARK    9  A    between atoms: C_36  and  C_37 
ROOT
HETATM    1  H   UNL     1       2.444  30.809  60.886  1.00  0.00     0.188 HD
HETATM    2  N   UNL     1       2.704  30.443  59.966  1.00  0.00    -0.282 NA
HETATM    3  C   UNL     1       3.327  31.377  59.306  1.00  0.00     0.155 C 
HETATM    4  N   UNL     1       3.498  32.658  59.781  1.00  0.00    -0.230 N 
HETATM    5  C   UNL     1       4.215  33.600  59.065  1.00  0.00     0.195 A 
HETATM    6  N   UNL     1       4.860  33.427  57.966  1.00  0.00    -0.183 NA
HETATM    7  N   UNL     1       2.879  33.156  60.930  1.00  0.00    -0.186 NA
HETATM    8  C   UNL     1       3.054  34.532  61.069  1.00  0.00     0.094 A 
HETATM    9  C   UNL     1       2.447  35.321  61.966  1.00  0.00     0.175 C 
HETATM   10  S   UNL     1       4.136  35.197  59.834  1.00  0.00    -0.035 SA
HETATM   11  C   UNL     1       3.914  31.137  57.942  1.00  0.00     0.082 C 
HETATM   12  C   UNL     1       4.913  32.152  57.432  1.00  0.00     0.283 C 
HETATM   13  O   UNL     1       5.763  31.857  56.602  1.00  0.00    -0.265 OA
HETATM   14  C   UNL     1       3.486  30.057  57.260  1.00  0.00     0.034 C 
HETATM   15  H   UNL     1       1.900  32.893  61.049  1.00  0.00     0.154 HD
ENDROOT
BRANCH  14  16
HETATM   16  C   UNL     1       3.758  29.672  55.912  1.00  0.00    -0.007 A 
HETATM   17  C   UNL     1       3.459  30.420  54.736  1.00  0.00     0.002 A 
HETATM   18  C   UNL     1       3.994  29.720  53.643  1.00  0.00     0.045 A 
HETATM   19  C   UNL     1       2.790  31.645  54.504  1.00  0.00     0.014 A 
HETATM   20  C   UNL     1       3.882  30.228  52.337  1.00  0.00     0.030 A 
HETATM   21  N   UNL     1       4.579  28.574  54.147  1.00  0.00    -0.353 N 
HETATM   22  C   UNL     1       3.210  31.437  52.136  1.00  0.00     0.002 A 
HETATM   23  C   UNL     1       2.669  32.140  53.204  1.00  0.00     0.001 A 
HETATM   24  C   UNL     1       4.467  28.562  55.519  1.00  0.00     0.103 A 
BRANCH  21  25
HETATM   25  C   UNL     1       5.337  27.553  53.432  1.00  0.00     0.155 C 
BRANCH  25  26
HETATM   26  C   UNL     1       5.401  26.164  54.069  1.00  0.00     0.196 C 
BRANCH  26  27
HETATM   27  O   UNL     1       6.749  25.702  53.951  1.00  0.00    -0.349 OA
BRANCH  27  28
HETATM   28  C   UNL     1       7.373  25.177  55.046  1.00  0.00     0.075 A 
HETATM   29  C   UNL     1       7.742  23.821  54.940  1.00  0.00    -0.021 A 
HETATM   30  C   UNL     1       8.419  23.208  56.006  1.00  0.00     0.010 A 
HETATM   31  C   UNL     1       8.712  23.923  57.166  1.00  0.00     0.001 A 
HETATM   32  C   UNL     1       8.333  25.258  57.269  1.00  0.00     0.003 A 
HETATM   33  C   UNL     1       7.666  25.886  56.214  1.00  0.00     0.037 A 
BRANCH  29  34
HETATM   34  C   UNL     1       7.432  23.011  53.697  1.00  0.00     0.067 C 
BRANCH  34  35
HETATM   35  C   UNL     1       8.340  21.846  53.396  1.00  0.00    -0.032 C 
HETATM   36  C   UNL     1       7.995  20.608  53.018  1.00  0.00     0.007 C 
ENDBRANCH  34  35
ENDBRANCH  29  34
ENDBRANCH  27  28
ENDBRANCH  26  27
ENDBRANCH  25  26
ENDBRANCH  21  25
ENDBRANCH  14  16
BRANCH   9  37
HETATM   37  O   UNL     1       2.630  36.685  62.012  1.00  0.00    -0.320 OA
BRANCH  37  38
HETATM   38  C   UNL     1       3.699  37.190  62.716  1.00  0.00     0.081 A 
HETATM   39  C   UNL     1       4.352  38.312  62.181  1.00  0.00    -0.028 A 
HETATM   40  C   UNL     1       3.908  38.918  60.879  1.00  0.00     0.051 C 
HETATM   41  C   UNL     1       5.398  38.898  62.906  1.00  0.00     0.009 A 
HETATM   42  C   UNL     1       5.788  38.373  64.139  1.00  0.00     0.001 A 
HETATM   43  C   UNL     1       5.126  37.267  64.668  1.00  0.00     0.003 A 
HETATM   44  C   UNL     1       4.073  36.682  63.965  1.00  0.00     0.038 A 
ENDBRANCH  37  38
ENDBRANCH   9  37
TORSDOF 9
ENDMDL
MODEL 9
REMARK VINA RESULT:      -9.8      2.780     10.649
REMARK  9 active torsions:
REMARK  status: ('A' for Active; 'I' for Inactive)
REMARK    1  A    between atoms: C_9  and  O_10 
REMARK    2  A    between atoms: O_10  and  C_11 
REMARK    3  A    between atoms: C_22  and  C_23 
REMARK    4  A    between atoms: N_30  and  C_31 
REMARK    5  A    between atoms: C_31  and  C_32 
REMARK    6  A    between atoms: C_32  and  O_33 
REMARK    7  A    between atoms: O_33  and  C_34 
REMARK    8  A    between atoms: C_35  and  C_36 
REMARK    9  A    between atoms: C_36  and  C_37 
ROOT
HETATM    1  H   UNL     1       2.093  30.575  60.898  1.00  0.00     0.188 HD
HETATM    2  N   UNL     1       2.302  30.421  59.907  1.00  0.00    -0.282 NA
HETATM    3  C   UNL     1       3.417  31.025  59.617  1.00  0.00     0.155 C 
HETATM    4  N   UNL     1       4.114  31.807  60.511  1.00  0.00    -0.230 N 
HETATM    5  C   UNL     1       5.324  32.385  60.170  1.00  0.00     0.195 A 
HETATM    6  N   UNL     1       5.987  32.232  59.079  1.00  0.00    -0.183 NA
HETATM    7  N   UNL     1       3.625  32.189  61.763  1.00  0.00    -0.186 NA
HETATM    8  C   UNL     1       4.434  33.144  62.376  1.00  0.00     0.094 A 
HETATM    9  C   UNL     1       4.149  33.825  63.494  1.00  0.00     0.175 C 
HETATM   10  S   UNL     1       5.912  33.462  61.451  1.00  0.00    -0.035 SA
HETATM   11  C   UNL     1       4.048  30.929  58.254  1.00  0.00     0.082 C 
HETATM   12  C   UNL     1       5.495  31.353  58.132  1.00  0.00     0.283 C 
HETATM   13  O   UNL     1       6.221  30.914  57.249  1.00  0.00    -0.265 OA
HETATM   14  C   UNL     1       3.273  30.505  57.237  1.00  0.00     0.034 C 
HETATM   15  H   UNL     1       2.643  32.467  61.783  1.00  0.00     0.154 HD
ENDROOT
BRANCH  14  16
HETATM   16  C   UNL     1       3.561  30.457  55.839  1.00  0.00    -0.007 A 
HETATM   17  C   UNL     1       3.527  31.551  54.925  1.00  0.00     0.002 A 
HETATM   18  C   UNL     1       3.982  31.078  53.684  1.00  0.00     0.045 A 
HETATM   19  C   UNL     1       3.160  32.911  55.047  1.00  0.00     0.014 A 
HETATM   20  C   UNL     1       4.087  31.940  52.579  1.00  0.00     0.030 A 
HETATM   21  N   UNL     1       4.263  29.734  53.844  1.00  0.00    -0.353 N 
HETATM   22  C   UNL     1       3.712  33.278  52.725  1.00  0.00     0.002 A 
HETATM   23  C   UNL     1       3.253  33.762  53.943  1.00  0.00     0.001 A 
HETATM   24  C   UNL     1       4.041  29.368  55.153  1.00  0.00     0.103 A 
BRANCH  21  25
HETATM   25  C   UNL     1       4.835  28.805  52.876  1.00  0.00     0.155 C 
BRANCH  25  26
HETATM   26  C   UNL     1       4.893  27.331  53.279  1.00  0.00     0.196 C 
BRANCH  26  27
HETATM   27  O   UNL     1       6.272  26.958  53.335  1.00  0.00    -0.349 OA
BRANCH  27  28
HETATM   28  C   UNL     1       6.828  26.637  54.539  1.00  0.00     0.075 A 
HETATM   29  C   UNL     1       6.960  25.259  54.798  1.00  0.00    -0.021 A 
HETATM   30  C   UNL     1       7.554  24.838  55.999  1.00  0.00     0.010 A 
HETATM   31  C   UNL     1       7.995  25.769  56.936  1.00  0.00     0.001 A 
HETATM   32  C   UNL     1       7.851  27.130  56.680  1.00  0.00     0.003 A 
HETATM   33  C   UNL     1       7.270  27.565  55.486  1.00  0.00     0.037 A 
BRANCH  29  34
HETATM   34  C   UNL     1       6.482  24.217  53.804  1.00  0.00     0.067 C 
BRANCH  34  35
HETATM   35  C   UNL     1       7.533  23.545  52.960  1.00  0.00    -0.032 C 
HETATM   36  C   UNL     1       7.976  22.283  53.043  1.00  0.00     0.007 C 
ENDBRANCH  34  35
ENDBRANCH  29  34
ENDBRANCH  27  28
ENDBRANCH  26  27
ENDBRANCH  25  26
ENDBRANCH  21  25
ENDBRANCH  14  16
BRANCH   9  37
HETATM   37  O   UNL     1       4.975  34.794  64.016  1.00  0.00    -0.320 OA
BRANCH  37  38
HETATM   38  C   UNL     1       5.274  34.761  65.359  1.00  0.00     0.081 A 
HETATM   39  C   UNL     1       6.475  34.142  65.738  1.00  0.00    -0.028 A 
HETATM   40  C   UNL     1       7.383  33.522  64.714  1.00  0.00     0.051 C 
HETATM   41  C   UNL     1       6.848  34.154  67.089  1.00  0.00     0.009 A 
HETATM   42  C   UNL     1       6.036  34.769  68.044  1.00  0.00     0.001 A 
HETATM   43  C   UNL     1       4.851  35.393  67.656  1.00  0.00     0.003 A 
HETATM   44  C   UNL     1       4.475  35.401  66.313  1.00  0.00     0.038 A 
ENDBRANCH  37  38
ENDBRANCH   9  37
TORSDOF 9
ENDMDL
MODEL 10
REMARK VINA RESULT:      -9.8      2.729      4.284
REMARK  9 active torsions:
REMARK  status: ('A' for Active; 'I' for Inactive)
REMARK    1  A    between atoms: C_9  and  O_10 
REMARK    2  A    between atoms: O_10  and  C_11 
REMARK    3  A    between atoms: C_22  and  C_23 
REMARK    4  A    between atoms: N_30  and  C_31 
REMARK    5  A    between atoms: C_31  and  C_32 
REMARK    6  A    between atoms: C_32  and  O_33 
REMARK    7  A    between atoms: O_33  and  C_34 
REMARK    8  A    between atoms: C_35  and  C_36 
REMARK    9  A    between atoms: C_36  and  C_37 
ROOT
HETATM    1  H   UNL     1       8.453  30.011  58.608  1.00  0.00     0.188 HD
HETATM    2  N   UNL     1       7.805  30.761  58.865  1.00  0.00    -0.282 NA
HETATM    3  C   UNL     1       6.645  30.512  58.330  1.00  0.00     0.155 C 
HETATM    4  N   UNL     1       6.409  29.448  57.488  1.00  0.00    -0.230 N 
HETATM    5  C   UNL     1       5.144  29.195  56.987  1.00  0.00     0.195 A 
HETATM    6  N   UNL     1       4.051  29.811  57.268  1.00  0.00    -0.183 NA
HETATM    7  N   UNL     1       7.410  28.623  56.969  1.00  0.00    -0.186 NA
HETATM    8  C   UNL     1       6.927  27.762  55.987  1.00  0.00     0.094 A 
HETATM    9  C   UNL     1       7.663  26.974  55.191  1.00  0.00     0.175 C 
HETATM   10  S   UNL     1       5.167  27.868  55.810  1.00  0.00    -0.035 SA
HETATM   11  C   UNL     1       5.444  31.384  58.579  1.00  0.00     0.082 C 
HETATM   12  C   UNL     1       4.091  30.814  58.218  1.00  0.00     0.283 C 
HETATM   13  O   UNL     1       3.065  31.199  58.765  1.00  0.00    -0.265 OA
HETATM   14  C   UNL     1       5.663  32.618  59.075  1.00  0.00     0.034 C 
HETATM   15  H   UNL     1       8.255  29.103  56.658  1.00  0.00     0.154 HD
ENDROOT
BRANCH  14  16
HETATM   16  C   UNL     1       4.740  33.691  59.268  1.00  0.00    -0.007 A 
HETATM   17  C   UNL     1       3.899  33.896  60.400  1.00  0.00     0.002 A 
HETATM   18  C   UNL     1       3.242  35.124  60.221  1.00  0.00     0.045 A 
HETATM   19  C   UNL     1       3.647  33.150  61.575  1.00  0.00     0.014 A 
HETATM   20  C   UNL     1       2.355  35.616  61.194  1.00  0.00     0.030 A 
HETATM   21  N   UNL     1       3.662  35.631  59.006  1.00  0.00    -0.353 N 
HETATM   22  C   UNL     1       2.119  34.855  62.343  1.00  0.00     0.002 A 
HETATM   23  C   UNL     1       2.755  33.635  62.534  1.00  0.00     0.001 A 
HETATM   24  C   UNL     1       4.593  34.783  58.447  1.00  0.00     0.103 A 
BRANCH  21  25
HETATM   25  C   UNL     1       3.333  36.915  58.396  1.00  0.00     0.155 C 
BRANCH  25  26
HETATM   26  C   UNL     1       4.031  38.152  58.963  1.00  0.00     0.196 C 
BRANCH  26  27
HETATM   27  O   UNL     1       4.934  37.705  59.976  1.00  0.00    -0.349 OA
BRANCH  27  28
HETATM   28  C   UNL     1       5.192  38.514  61.044  1.00  0.00     0.075 A 
HETATM   29  C   UNL     1       5.660  37.859  62.201  1.00  0.00    -0.021 A 
HETATM   30  C   UNL     1       5.984  38.618  63.337  1.00  0.00     0.010 A 
HETATM   31  C   UNL     1       5.830  40.003  63.333  1.00  0.00     0.001 A 
HETATM   32  C   UNL     1       5.355  40.642  62.192  1.00  0.00     0.003 A 
HETATM   33  C   UNL     1       5.037  39.903  61.049  1.00  0.00     0.037 A 
BRANCH  29  34
HETATM   34  C   UNL     1       5.831  36.353  62.244  1.00  0.00     0.067 C 
BRANCH  34  35
HETATM   35  C   UNL     1       5.618  35.679  63.575  1.00  0.00    -0.032 C 
HETATM   36  C   UNL     1       6.316  34.666  64.108  1.00  0.00     0.007 C 
ENDBRANCH  34  35
ENDBRANCH  29  34
ENDBRANCH  27  28
ENDBRANCH  26  27
ENDBRANCH  25  26
ENDBRANCH  21  25
ENDBRANCH  14  16
BRANCH   9  37
HETATM   37  O   UNL     1       7.120  26.184  54.204  1.00  0.00    -0.320 OA
BRANCH  37  38
HETATM   38  C   UNL     1       7.283  24.819  54.278  1.00  0.00     0.081 A 
HETATM   39  C   UNL     1       7.569  24.138  53.085  1.00  0.00    -0.028 A 
HETATM   40  C   UNL     1       7.669  24.873  51.778  1.00  0.00     0.051 C 
HETATM   41  C   UNL     1       7.815  22.759  53.133  1.00  0.00     0.009 A 
HETATM   42  C   UNL     1       7.771  22.073  54.349  1.00  0.00     0.001 A 
HETATM   43  C   UNL     1       7.499  22.760  55.530  1.00  0.00     0.003 A 
HETATM   44  C   UNL     1       7.267  24.136  55.499  1.00  0.00     0.038 A 
ENDBRANCH  37  38
ENDBRANCH   9  37
TORSDOF 9
ENDMDL
