MODEL 1
REMARK VINA RESULT:     -11.2      0.000      0.000
REMARK  8 active torsions:
REMARK  status: ('A' for Active; 'I' for Inactive)
REMARK    1  A    between atoms: C_3  and  N_4 
REMARK       I    between atoms: N_4  and  C_5 
REMARK    2  A    between atoms: C_5  and  C_6 
REMARK    3  A    between atoms: C_6  and  N_7 
REMARK    4  A    between atoms: N_10  and  C_11 
REMARK    5  A    between atoms: C_11  and  C_12 
REMARK    6  A    between atoms: C_12  and  C_13 
REMARK       I    between atoms: C_13  and  N_14 
REMARK    7  A    between atoms: N_14  and  C_15 
REMARK    8  A    between atoms: C_15  and  C_16 
ROOT
HETATM    1  N   UNL     1       6.728  28.045  55.151  1.00  0.00    -0.289 N 
HETATM    2  C   UNL     1       7.458  28.231  56.327  1.00  0.00     0.332 C 
HETATM    3  O   UNL     1       8.376  27.451  56.609  1.00  0.00    -0.246 OA
HETATM    4  N   UNL     1       7.115  29.315  57.155  1.00  0.00    -0.265 N 
HETATM    5  C   UNL     1       6.114  30.246  56.846  1.00  0.00     0.271 C 
HETATM    6  O   UNL     1       5.933  31.288  57.472  1.00  0.00    -0.266 OA
HETATM    7  C   UNL     1       5.316  29.879  55.709  1.00  0.00     0.100 A 
HETATM    8  C   UNL     1       5.605  28.821  54.892  1.00  0.00     0.062 A 
HETATM    9  S   UNL     1       3.935  30.739  55.222  1.00  0.00    -0.094 SA
HETATM   10  C   UNL     1       3.683  29.674  53.904  1.00  0.00     0.053 A 
HETATM   11  C   UNL     1       4.652  28.694  53.840  1.00  0.00     0.038 A 
ENDROOT
BRANCH   4  12
HETATM   12  C   UNL     1       8.009  29.506  58.313  1.00  0.00     0.146 C 
BRANCH  12  13
HETATM   13  C   UNL     1       9.388  30.119  58.087  1.00  0.00     0.123 C 
BRANCH  13  14
HETATM   14  C   UNL     1       9.649  31.281  59.019  1.00  0.00     0.219 C 
HETATM   15  N   UNL     1       9.230  31.027  60.304  1.00  0.00    -0.357 N 
HETATM   16  H   UNL     1       8.738  30.165  60.507  1.00  0.00     0.162 HD
HETATM   17  O   UNL     1      10.184  32.325  58.669  1.00  0.00    -0.274 OA
BRANCH  15  18
HETATM   18  C   UNL     1       9.415  31.966  61.386  1.00  0.00     0.161 C 
BRANCH  18  19
HETATM   19  C   UNL     1       8.096  32.218  62.069  1.00  0.00    -0.038 A 
HETATM   20  C   UNL     1       8.049  32.675  63.395  1.00  0.00     0.048 A 
HETATM   21  C   UNL     1       6.810  32.931  63.948  1.00  0.00     0.105 A 
HETATM   22  C   UNL     1       5.646  32.753  63.238  1.00  0.00     0.105 A 
HETATM   23  O   UNL     1       6.584  33.381  65.211  1.00  0.00    -0.323 OA
HETATM   24  O   UNL     1       4.542  33.070  63.965  1.00  0.00    -0.323 OA
HETATM   25  C   UNL     1       5.651  32.307  61.937  1.00  0.00     0.040 A 
HETATM   26  C   UNL     1       5.143  33.465  65.215  1.00  0.00     0.352 A 
HETATM   27  C   UNL     1       6.891  32.039  61.348  1.00  0.00     0.012 A 
ENDBRANCH  18  19
ENDBRANCH  15  18
ENDBRANCH  13  14
ENDBRANCH  12  13
ENDBRANCH   4  12
BRANCH   1  28
HETATM   28  C   UNL     1       7.219  27.044  54.208  1.00  0.00     0.237 C 
BRANCH  28  29
HETATM   29  C   UNL     1       6.977  25.615  54.679  1.00  0.00     0.240 C 
HETATM   30  N   UNL     1       8.153  24.912  54.888  1.00  0.00    -0.325 N 
HETATM   31  H   UNL     1       8.946  25.486  55.181  1.00  0.00     0.169 HD
HETATM   32  O   UNL     1       5.840  25.199  54.887  1.00  0.00    -0.271 OA
BRANCH  30  33
HETATM   33  C   UNL     1       8.257  23.519  55.100  1.00  0.00     0.042 A 
HETATM   34  C   UNL     1       8.422  22.914  56.362  1.00  0.00    -0.035 A 
HETATM   35  C   UNL     1       8.440  23.666  57.666  1.00  0.00     0.050 C 
HETATM   36  C   UNL     1       8.527  21.511  56.436  1.00  0.00     0.011 A 
HETATM   37  C   UNL     1       8.418  20.719  55.296  1.00  0.00     0.024 A 
HETATM   38  C   UNL     1       8.194  21.322  54.066  1.00  0.00     0.036 A 
HETATM   39  C   UNL     1       8.101  22.710  53.963  1.00  0.00     0.053 A 
HETATM   40 CL   UNL     1       8.038  20.347  52.655  1.00  0.00    -0.084 Cl
ENDBRANCH  30  33
ENDBRANCH  28  29
ENDBRANCH   1  28
TORSDOF 8
ENDMDL
MODEL 2
REMARK VINA RESULT:     -11.1      1.290      2.085
REMARK  8 active torsions:
REMARK  status: ('A' for Active; 'I' for Inactive)
REMARK    1  A    between atoms: C_3  and  N_4 
REMARK       I    between atoms: N_4  and  C_5 
REMARK    2  A    between atoms: C_5  and  C_6 
REMARK    3  A    between atoms: C_6  and  N_7 
REMARK    4  A    between atoms: N_10  and  C_11 
REMARK    5  A    between atoms: C_11  and  C_12 
REMARK    6  A    between atoms: C_12  and  C_13 
REMARK       I    between atoms: C_13  and  N_14 
REMARK    7  A    between atoms: N_14  and  C_15 
REMARK    8  A    between atoms: C_15  and  C_16 
ROOT
HETATM    1  N   UNL     1       6.196  28.914  55.285  1.00  0.00    -0.289 N 
HETATM    2  C   UNL     1       7.043  28.801  56.390  1.00  0.00     0.332 C 
HETATM    3  O   UNL     1       7.932  27.941  56.396  1.00  0.00    -0.246 OA
HETATM    4  N   UNL     1       6.848  29.685  57.467  1.00  0.00    -0.265 N 
HETATM    5  C   UNL     1       5.883  30.702  57.476  1.00  0.00     0.271 C 
HETATM    6  O   UNL     1       5.828  31.583  58.330  1.00  0.00    -0.266 OA
HETATM    7  C   UNL     1       4.962  30.633  56.376  1.00  0.00     0.100 A 
HETATM    8  C   UNL     1       5.106  29.774  55.322  1.00  0.00     0.062 A 
HETATM    9  S   UNL     1       3.598  31.636  56.237  1.00  0.00    -0.094 SA
HETATM   10  C   UNL     1       3.157  30.905  54.752  1.00  0.00     0.053 A 
HETATM   11  C   UNL     1       4.053  29.926  54.374  1.00  0.00     0.038 A 
ENDROOT
BRANCH   4  12
HETATM   12  C   UNL     1       7.856  29.575  58.537  1.00  0.00     0.146 C 
BRANCH  12  13
HETATM   13  C   UNL     1       9.242  30.171  58.311  1.00  0.00     0.123 C 
BRANCH  13  14
HETATM   14  C   UNL     1       9.531  31.307  59.266  1.00  0.00     0.219 C 
HETATM   15  N   UNL     1       9.196  30.999  60.564  1.00  0.00    -0.357 N 
HETATM   16  H   UNL     1       8.738  30.119  60.765  1.00  0.00     0.162 HD
HETATM   17  O   UNL     1      10.020  32.376  58.922  1.00  0.00    -0.274 OA
BRANCH  15  18
HETATM   18  C   UNL     1       9.423  31.905  61.665  1.00  0.00     0.161 C 
BRANCH  18  19
HETATM   19  C   UNL     1       8.103  32.319  62.262  1.00  0.00    -0.038 A 
HETATM   20  C   UNL     1       6.930  32.309  61.492  1.00  0.00     0.048 A 
HETATM   21  C   UNL     1       5.746  32.654  62.111  1.00  0.00     0.105 A 
HETATM   22  C   UNL     1       5.694  32.997  63.441  1.00  0.00     0.105 A 
HETATM   23  O   UNL     1       4.522  32.693  61.517  1.00  0.00    -0.323 OA
HETATM   24  O   UNL     1       4.432  33.293  63.852  1.00  0.00    -0.323 OA
HETATM   25  C   UNL     1       6.821  33.018  64.230  1.00  0.00     0.040 A 
HETATM   26  C   UNL     1       3.695  33.101  62.627  1.00  0.00     0.352 A 
HETATM   27  C   UNL     1       8.037  32.673  63.632  1.00  0.00     0.012 A 
ENDBRANCH  18  19
ENDBRANCH  15  18
ENDBRANCH  13  14
ENDBRANCH  12  13
ENDBRANCH   4  12
BRANCH   1  28
HETATM   28  C   UNL     1       6.533  28.132  54.099  1.00  0.00     0.237 C 
BRANCH  28  29
HETATM   29  C   UNL     1       6.364  26.632  54.310  1.00  0.00     0.240 C 
HETATM   30  N   UNL     1       7.568  25.946  54.284  1.00  0.00    -0.325 N 
HETATM   31  H   UNL     1       8.371  26.485  54.613  1.00  0.00     0.169 HD
HETATM   32  O   UNL     1       5.259  26.142  54.529  1.00  0.00    -0.271 OA
BRANCH  30  33
HETATM   33  C   UNL     1       7.719  24.543  54.218  1.00  0.00     0.042 A 
HETATM   34  C   UNL     1       7.750  23.799  53.022  1.00  0.00    -0.035 A 
HETATM   35  C   UNL     1       7.696  24.406  51.646  1.00  0.00     0.050 C 
HETATM   36  C   UNL     1       7.893  22.399  53.094  1.00  0.00     0.011 A 
HETATM   37  C   UNL     1       8.056  21.753  54.317  1.00  0.00     0.024 A 
HETATM   38  C   UNL     1       8.085  22.503  55.485  1.00  0.00     0.036 A 
HETATM   39  C   UNL     1       7.931  23.889  55.442  1.00  0.00     0.053 A 
HETATM   40 CL   UNL     1       8.306  21.713  56.999  1.00  0.00    -0.084 Cl
ENDBRANCH  30  33
ENDBRANCH  28  29
ENDBRANCH   1  28
TORSDOF 8
ENDMDL
MODEL 3
REMARK VINA RESULT:     -10.6      3.747      6.198
REMARK  8 active torsions:
REMARK  status: ('A' for Active; 'I' for Inactive)
REMARK    1  A    between atoms: C_3  and  N_4 
REMARK       I    between atoms: N_4  and  C_5 
REMARK    2  A    between atoms: C_5  and  C_6 
REMARK    3  A    between atoms: C_6  and  N_7 
REMARK    4  A    between atoms: N_10  and  C_11 
REMARK    5  A    between atoms: C_11  and  C_12 
REMARK    6  A    between atoms: C_12  and  C_13 
REMARK       I    between atoms: C_13  and  N_14 
REMARK    7  A    between atoms: N_14  and  C_15 
REMARK    8  A    between atoms: C_15  and  C_16 
ROOT
HETATM    1  N   UNL     1       6.303  24.610  54.029  1.00  0.00    -0.289 N 
HETATM    2  C   UNL     1       6.270  25.565  55.047  1.00  0.00     0.332 C 
HETATM    3  O   UNL     1       5.534  26.552  54.937  1.00  0.00    -0.246 OA
HETATM    4  N   UNL     1       7.087  25.361  56.174  1.00  0.00    -0.265 N 
HETATM    5  C   UNL     1       7.898  24.231  56.354  1.00  0.00     0.271 C 
HETATM    6  O   UNL     1       8.471  23.963  57.408  1.00  0.00    -0.266 OA
HETATM    7  C   UNL     1       7.989  23.395  55.190  1.00  0.00     0.100 A 
HETATM    8  C   UNL     1       7.227  23.573  54.069  1.00  0.00     0.062 A 
HETATM    9  S   UNL     1       9.034  22.059  55.080  1.00  0.00    -0.094 SA
HETATM   10  C   UNL     1       8.492  21.710  53.493  1.00  0.00     0.053 A 
HETATM   11  C   UNL     1       7.520  22.596  53.074  1.00  0.00     0.038 A 
ENDROOT
BRANCH   4  12
HETATM   12  C   UNL     1       6.904  26.353  57.249  1.00  0.00     0.146 C 
BRANCH  12  13
HETATM   13  C   UNL     1       7.985  27.407  57.474  1.00  0.00     0.123 C 
BRANCH  13  14
HETATM   14  C   UNL     1       7.434  28.811  57.371  1.00  0.00     0.219 C 
HETATM   15  N   UNL     1       7.749  29.580  58.466  1.00  0.00    -0.357 N 
HETATM   16  H   UNL     1       8.232  29.157  59.250  1.00  0.00     0.162 HD
HETATM   17  O   UNL     1       6.790  29.218  56.413  1.00  0.00    -0.274 OA
BRANCH  15  18
HETATM   18  C   UNL     1       7.377  30.970  58.578  1.00  0.00     0.161 C 
BRANCH  18  19
HETATM   19  C   UNL     1       7.619  31.449  59.986  1.00  0.00    -0.038 A 
HETATM   20  C   UNL     1       6.744  32.361  60.597  1.00  0.00     0.048 A 
HETATM   21  C   UNL     1       6.997  32.723  61.904  1.00  0.00     0.105 A 
HETATM   22  C   UNL     1       8.064  32.217  62.606  1.00  0.00     0.105 A 
HETATM   23  O   UNL     1       6.251  33.587  62.645  1.00  0.00    -0.323 OA
HETATM   24  O   UNL     1       8.125  32.696  63.877  1.00  0.00    -0.323 OA
HETATM   25  C   UNL     1       8.943  31.321  62.043  1.00  0.00     0.040 A 
HETATM   26  C   UNL     1       6.974  33.566  63.894  1.00  0.00     0.352 A 
HETATM   27  C   UNL     1       8.715  30.934  60.719  1.00  0.00     0.012 A 
ENDBRANCH  18  19
ENDBRANCH  15  18
ENDBRANCH  13  14
ENDBRANCH  12  13
ENDBRANCH   4  12
BRANCH   1  28
HETATM   28  C   UNL     1       5.310  24.729  52.965  1.00  0.00     0.237 C 
BRANCH  28  29
HETATM   29  C   UNL     1       5.775  25.615  51.815  1.00  0.00     0.240 C 
HETATM   30  N   UNL     1       4.782  26.464  51.356  1.00  0.00    -0.325 N 
HETATM   31  H   UNL     1       4.107  26.754  52.066  1.00  0.00     0.169 HD
HETATM   32  O   UNL     1       6.935  25.576  51.413  1.00  0.00    -0.271 OA
BRANCH  30  33
HETATM   33  C   UNL     1       4.831  27.229  50.169  1.00  0.00     0.042 A 
HETATM   34  C   UNL     1       4.366  26.787  48.915  1.00  0.00    -0.035 A 
HETATM   35  C   UNL     1       3.689  25.463  48.681  1.00  0.00     0.050 C 
HETATM   36  C   UNL     1       4.487  27.644  47.802  1.00  0.00     0.011 A 
HETATM   37  C   UNL     1       5.004  28.930  47.936  1.00  0.00     0.024 A 
HETATM   38  C   UNL     1       5.403  29.377  49.189  1.00  0.00     0.036 A 
HETATM   39  C   UNL     1       5.308  28.543  50.302  1.00  0.00     0.053 A 
HETATM   40 CL   UNL     1       6.025  30.973  49.365  1.00  0.00    -0.084 Cl
ENDBRANCH  30  33
ENDBRANCH  28  29
ENDBRANCH   1  28
TORSDOF 8
ENDMDL
MODEL 4
REMARK VINA RESULT:     -10.5      4.121     11.128
REMARK  8 active torsions:
REMARK  status: ('A' for Active; 'I' for Inactive)
REMARK    1  A    between atoms: C_3  and  N_4 
REMARK       I    between atoms: N_4  and  C_5 
REMARK    2  A    between atoms: C_5  and  C_6 
REMARK    3  A    between atoms: C_6  and  N_7 
REMARK    4  A    between atoms: N_10  and  C_11 
REMARK    5  A    between atoms: C_11  and  C_12 
REMARK    6  A    between atoms: C_12  and  C_13 
REMARK       I    between atoms: C_13  and  N_14 
REMARK    7  A    between atoms: N_14  and  C_15 
REMARK    8  A    between atoms: C_15  and  C_16 
ROOT
HETATM    1  N   UNL     1       6.042  31.967  59.158  1.00  0.00    -0.289 N 
HETATM    2  C   UNL     1       5.254  31.102  58.396  1.00  0.00     0.332 C 
HETATM    3  O   UNL     1       4.023  31.217  58.415  1.00  0.00    -0.246 OA
HETATM    4  N   UNL     1       5.903  30.122  57.623  1.00  0.00    -0.265 N 
HETATM    5  C   UNL     1       7.296  29.992  57.538  1.00  0.00     0.271 C 
HETATM    6  O   UNL     1       7.867  29.261  56.732  1.00  0.00    -0.266 OA
HETATM    7  C   UNL     1       8.010  30.812  58.477  1.00  0.00     0.100 A 
HETATM    8  C   UNL     1       7.413  31.761  59.260  1.00  0.00     0.062 A 
HETATM    9  S   UNL     1       9.691  30.724  58.704  1.00  0.00    -0.094 SA
HETATM   10  C   UNL     1       9.640  31.957  59.893  1.00  0.00     0.053 A 
HETATM   11  C   UNL     1       8.359  32.428  60.091  1.00  0.00     0.038 A 
ENDROOT
BRANCH   4  12
HETATM   12  C   UNL     1       5.005  29.331  56.761  1.00  0.00     0.146 C 
BRANCH  12  13
HETATM   13  C   UNL     1       5.186  27.817  56.700  1.00  0.00     0.123 C 
BRANCH  13  14
HETATM   14  C   UNL     1       5.474  27.339  55.295  1.00  0.00     0.219 C 
HETATM   15  N   UNL     1       6.720  26.768  55.180  1.00  0.00    -0.357 N 
HETATM   16  H   UNL     1       7.347  26.775  55.976  1.00  0.00     0.162 HD
HETATM   17  O   UNL     1       4.681  27.439  54.368  1.00  0.00    -0.274 OA
BRANCH  15  18
HETATM   18  C   UNL     1       7.205  26.193  53.948  1.00  0.00     0.161 C 
BRANCH  18  19
HETATM   19  C   UNL     1       7.567  24.747  54.171  1.00  0.00    -0.038 A 
HETATM   20  C   UNL     1       7.755  24.244  55.468  1.00  0.00     0.048 A 
HETATM   21  C   UNL     1       8.040  22.901  55.606  1.00  0.00     0.105 A 
HETATM   22  C   UNL     1       8.138  22.063  54.522  1.00  0.00     0.105 A 
HETATM   23  O   UNL     1       8.245  22.252  56.784  1.00  0.00    -0.323 OA
HETATM   24  O   UNL     1       8.415  20.781  54.879  1.00  0.00    -0.323 OA
HETATM   25  C   UNL     1       7.959  22.517  53.235  1.00  0.00     0.040 A 
HETATM   26  C   UNL     1       8.485  20.908  56.314  1.00  0.00     0.352 A 
HETATM   27  C   UNL     1       7.670  23.874  53.061  1.00  0.00     0.012 A 
ENDBRANCH  18  19
ENDBRANCH  15  18
ENDBRANCH  13  14
ENDBRANCH  12  13
ENDBRANCH   4  12
BRANCH   1  28
HETATM   28  C   UNL     1       5.374  33.099  59.793  1.00  0.00     0.237 C 
BRANCH  28  29
HETATM   29  C   UNL     1       5.184  32.910  61.294  1.00  0.00     0.240 C 
HETATM   30  N   UNL     1       5.646  33.987  62.034  1.00  0.00    -0.325 N 
HETATM   31  H   UNL     1       5.584  34.889  61.556  1.00  0.00     0.169 HD
HETATM   32  O   UNL     1       4.627  31.912  61.743  1.00  0.00    -0.271 OA
BRANCH  30  33
HETATM   33  C   UNL     1       5.820  34.014  63.435  1.00  0.00     0.042 A 
HETATM   34  C   UNL     1       6.909  33.433  64.115  1.00  0.00    -0.035 A 
HETATM   35  C   UNL     1       8.073  32.764  63.434  1.00  0.00     0.050 C 
HETATM   36  C   UNL     1       6.958  33.518  65.521  1.00  0.00     0.011 A 
HETATM   37  C   UNL     1       5.982  34.208  66.235  1.00  0.00     0.024 A 
HETATM   38  C   UNL     1       4.946  34.828  65.550  1.00  0.00     0.036 A 
HETATM   39  C   UNL     1       4.867  34.747  64.160  1.00  0.00     0.053 A 
HETATM   40 CL   UNL     1       3.747  35.700  66.427  1.00  0.00    -0.084 Cl
ENDBRANCH  30  33
ENDBRANCH  28  29
ENDBRANCH   1  28
TORSDOF 8
ENDMDL
MODEL 5
REMARK VINA RESULT:     -10.5      2.656      4.633
REMARK  8 active torsions:
REMARK  status: ('A' for Active; 'I' for Inactive)
REMARK    1  A    between atoms: C_3  and  N_4 
REMARK       I    between atoms: N_4  and  C_5 
REMARK    2  A    between atoms: C_5  and  C_6 
REMARK    3  A    between atoms: C_6  and  N_7 
REMARK    4  A    between atoms: N_10  and  C_11 
REMARK    5  A    between atoms: C_11  and  C_12 
REMARK    6  A    between atoms: C_12  and  C_13 
REMARK       I    between atoms: C_13  and  N_14 
REMARK    7  A    between atoms: N_14  and  C_15 
REMARK    8  A    between atoms: C_15  and  C_16 
ROOT
HETATM    1  N   UNL     1       5.678  28.278  55.256  1.00  0.00    -0.289 N 
HETATM    2  C   UNL     1       4.904  28.873  56.255  1.00  0.00     0.332 C 
HETATM    3  O   UNL     1       5.070  28.544  57.436  1.00  0.00    -0.246 OA
HETATM    4  N   UNL     1       3.955  29.837  55.872  1.00  0.00    -0.265 N 
HETATM    5  C   UNL     1       3.772  30.269  54.551  1.00  0.00     0.271 C 
HETATM    6  O   UNL     1       3.076  31.232  54.237  1.00  0.00    -0.266 OA
HETATM    7  C   UNL     1       4.492  29.488  53.583  1.00  0.00     0.100 A 
HETATM    8  C   UNL     1       5.407  28.528  53.916  1.00  0.00     0.062 A 
HETATM    9  S   UNL     1       4.316  29.688  51.906  1.00  0.00    -0.094 SA
HETATM   10  C   UNL     1       5.463  28.453  51.594  1.00  0.00     0.053 A 
HETATM   11  C   UNL     1       5.973  27.918  52.760  1.00  0.00     0.038 A 
ENDROOT
BRANCH   4  12
HETATM   12  C   UNL     1       3.266  30.497  56.996  1.00  0.00     0.146 C 
BRANCH  12  13
HETATM   13  C   UNL     1       3.385  32.010  57.150  1.00  0.00     0.123 C 
BRANCH  13  14
HETATM   14  C   UNL     1       4.204  32.392  58.362  1.00  0.00     0.219 C 
HETATM   15  N   UNL     1       5.170  31.459  58.658  1.00  0.00    -0.357 N 
HETATM   16  H   UNL     1       5.213  30.600  58.123  1.00  0.00     0.162 HD
HETATM   17  O   UNL     1       4.031  33.423  59.000  1.00  0.00    -0.274 OA
BRANCH  15  18
HETATM   18  C   UNL     1       6.109  31.625  59.742  1.00  0.00     0.161 C 
BRANCH  18  19
HETATM   19  C   UNL     1       7.510  31.389  59.239  1.00  0.00    -0.038 A 
HETATM   20  C   UNL     1       7.767  30.424  58.253  1.00  0.00     0.048 A 
HETATM   21  C   UNL     1       9.065  30.289  57.803  1.00  0.00     0.105 A 
HETATM   22  C   UNL     1      10.088  31.067  58.289  1.00  0.00     0.105 A 
HETATM   23  O   UNL     1       9.487  29.411  56.853  1.00  0.00    -0.323 OA
HETATM   24  O   UNL     1      11.282  30.779  57.706  1.00  0.00    -0.323 OA
HETATM   25  C   UNL     1       9.876  32.024  59.255  1.00  0.00     0.040 A 
HETATM   26  C   UNL     1      10.894  29.727  56.798  1.00  0.00     0.352 A 
HETATM   27  C   UNL     1       8.572  32.185  59.732  1.00  0.00     0.012 A 
ENDBRANCH  18  19
ENDBRANCH  15  18
ENDBRANCH  13  14
ENDBRANCH  12  13
ENDBRANCH   4  12
BRANCH   1  28
HETATM   28  C   UNL     1       6.790  27.433  55.683  1.00  0.00     0.237 C 
BRANCH  28  29
HETATM   29  C   UNL     1       6.538  25.951  55.432  1.00  0.00     0.240 C 
HETATM   30  N   UNL     1       7.693  25.256  55.110  1.00  0.00    -0.325 N 
HETATM   31  H   UNL     1       8.546  25.630  55.531  1.00  0.00     0.169 HD
HETATM   32  O   UNL     1       5.417  25.465  55.568  1.00  0.00    -0.271 OA
BRANCH  30  33
HETATM   33  C   UNL     1       7.752  23.939  54.605  1.00  0.00     0.042 A 
HETATM   34  C   UNL     1       7.802  23.611  53.235  1.00  0.00    -0.035 A 
HETATM   35  C   UNL     1       7.869  24.624  52.124  1.00  0.00     0.050 C 
HETATM   36  C   UNL     1       7.844  22.253  52.860  1.00  0.00     0.011 A 
HETATM   37  C   UNL     1       7.891  21.243  53.817  1.00  0.00     0.024 A 
HETATM   38  C   UNL     1       7.903  21.580  55.164  1.00  0.00     0.036 A 
HETATM   39  C   UNL     1       7.847  22.916  55.561  1.00  0.00     0.053 A 
HETATM   40 CL   UNL     1       7.982  20.336  56.353  1.00  0.00    -0.084 Cl
ENDBRANCH  30  33
ENDBRANCH  28  29
ENDBRANCH   1  28
TORSDOF 8
ENDMDL
MODEL 6
REMARK VINA RESULT:     -10.4      3.463      5.931
REMARK  8 active torsions:
REMARK  status: ('A' for Active; 'I' for Inactive)
REMARK    1  A    between atoms: C_3  and  N_4 
REMARK       I    between atoms: N_4  and  C_5 
REMARK    2  A    between atoms: C_5  and  C_6 
REMARK    3  A    between atoms: C_6  and  N_7 
REMARK    4  A    between atoms: N_10  and  C_11 
REMARK    5  A    between atoms: C_11  and  C_12 
REMARK    6  A    between atoms: C_12  and  C_13 
REMARK       I    between atoms: C_13  and  N_14 
REMARK    7  A    between atoms: N_14  and  C_15 
REMARK    8  A    between atoms: C_15  and  C_16 
ROOT
HETATM    1  N   UNL     1       7.563  25.102  53.350  1.00  0.00    -0.289 N 
HETATM    2  C   UNL     1       7.505  26.236  54.162  1.00  0.00     0.332 C 
HETATM    3  O   UNL     1       7.482  27.359  53.644  1.00  0.00    -0.246 OA
HETATM    4  N   UNL     1       7.473  26.053  55.556  1.00  0.00    -0.265 N 
HETATM    5  C   UNL     1       7.450  24.797  56.177  1.00  0.00     0.271 C 
HETATM    6  O   UNL     1       7.241  24.631  57.377  1.00  0.00    -0.266 OA
HETATM    7  C   UNL     1       7.677  23.703  55.274  1.00  0.00     0.100 A 
HETATM    8  C   UNL     1       7.735  23.843  53.915  1.00  0.00     0.062 A 
HETATM    9  S   UNL     1       7.867  22.094  55.786  1.00  0.00    -0.094 SA
HETATM   10  C   UNL     1       8.060  21.557  54.170  1.00  0.00     0.053 A 
HETATM   11  C   UNL     1       7.963  22.595  53.267  1.00  0.00     0.038 A 
ENDROOT
BRANCH   4  12
HETATM   12  C   UNL     1       7.294  27.295  56.331  1.00  0.00     0.146 C 
BRANCH  12  13
HETATM   13  C   UNL     1       8.487  27.869  57.092  1.00  0.00     0.123 C 
BRANCH  13  14
HETATM   14  C   UNL     1       8.376  29.366  57.269  1.00  0.00     0.219 C 
HETATM   15  N   UNL     1       9.315  29.862  58.142  1.00  0.00    -0.357 N 
HETATM   16  H   UNL     1       9.927  29.222  58.632  1.00  0.00     0.162 HD
HETATM   17  O   UNL     1       7.548  30.058  56.690  1.00  0.00    -0.274 OA
BRANCH  15  18
HETATM   18  C   UNL     1       9.441  31.270  58.436  1.00  0.00     0.161 C 
BRANCH  18  19
HETATM   19  C   UNL     1       8.739  31.582  59.733  1.00  0.00    -0.038 A 
HETATM   20  C   UNL     1       7.362  31.851  59.759  1.00  0.00     0.048 A 
HETATM   21  C   UNL     1       6.771  32.083  60.985  1.00  0.00     0.105 A 
HETATM   22  C   UNL     1       7.490  32.053  62.156  1.00  0.00     0.105 A 
HETATM   23  O   UNL     1       5.454  32.353  61.192  1.00  0.00    -0.323 OA
HETATM   24  O   UNL     1       6.716  32.299  63.247  1.00  0.00    -0.323 OA
HETATM   25  C   UNL     1       8.841  31.792  62.172  1.00  0.00     0.040 A 
HETATM   26  C   UNL     1       5.427  32.491  62.628  1.00  0.00     0.352 A 
HETATM   27  C   UNL     1       9.469  31.553  60.946  1.00  0.00     0.012 A 
ENDBRANCH  18  19
ENDBRANCH  15  18
ENDBRANCH  13  14
ENDBRANCH  12  13
ENDBRANCH   4  12
BRANCH   1  28
HETATM   28  C   UNL     1       7.394  25.295  51.913  1.00  0.00     0.237 C 
BRANCH  28  29
HETATM   29  C   UNL     1       5.947  25.562  51.517  1.00  0.00     0.240 C 
HETATM   30  N   UNL     1       5.835  26.436  50.447  1.00  0.00    -0.325 N 
HETATM   31  H   UNL     1       6.614  26.401  49.786  1.00  0.00     0.169 HD
HETATM   32  O   UNL     1       5.017  24.995  52.086  1.00  0.00    -0.271 OA
BRANCH  30  33
HETATM   33  C   UNL     1       4.644  27.051  50.002  1.00  0.00     0.042 A 
HETATM   34  C   UNL     1       4.065  28.191  50.595  1.00  0.00    -0.035 A 
HETATM   35  C   UNL     1       4.675  28.951  51.742  1.00  0.00     0.050 C 
HETATM   36  C   UNL     1       2.863  28.700  50.063  1.00  0.00     0.011 A 
HETATM   37  C   UNL     1       2.276  28.129  48.937  1.00  0.00     0.024 A 
HETATM   38  C   UNL     1       2.887  27.044  48.325  1.00  0.00     0.036 A 
HETATM   39  C   UNL     1       4.069  26.512  48.840  1.00  0.00     0.053 A 
HETATM   40 CL   UNL     1       2.176  26.346  46.920  1.00  0.00    -0.084 Cl
ENDBRANCH  30  33
ENDBRANCH  28  29
ENDBRANCH   1  28
TORSDOF 8
ENDMDL
MODEL 7
REMARK VINA RESULT:     -10.1      4.020     10.878
REMARK  8 active torsions:
REMARK  status: ('A' for Active; 'I' for Inactive)
REMARK    1  A    between atoms: C_3  and  N_4 
REMARK       I    between atoms: N_4  and  C_5 
REMARK    2  A    between atoms: C_5  and  C_6 
REMARK    3  A    between atoms: C_6  and  N_7 
REMARK    4  A    between atoms: N_10  and  C_11 
REMARK    5  A    between atoms: C_11  and  C_12 
REMARK    6  A    between atoms: C_12  and  C_13 
REMARK       I    between atoms: C_13  and  N_14 
REMARK    7  A    between atoms: N_14  and  C_15 
REMARK    8  A    between atoms: C_15  and  C_16 
ROOT
HETATM    1  N   UNL     1       5.489  31.035  58.013  1.00  0.00    -0.289 N 
HETATM    2  C   UNL     1       5.140  29.862  57.342  1.00  0.00     0.332 C 
HETATM    3  O   UNL     1       3.993  29.729  56.896  1.00  0.00    -0.246 OA
HETATM    4  N   UNL     1       6.120  28.864  57.195  1.00  0.00    -0.265 N 
HETATM    5  C   UNL     1       7.442  28.998  57.644  1.00  0.00     0.271 C 
HETATM    6  O   UNL     1       8.342  28.211  57.362  1.00  0.00    -0.266 OA
HETATM    7  C   UNL     1       7.659  30.160  58.460  1.00  0.00     0.100 A 
HETATM    8  C   UNL     1       6.723  31.141  58.644  1.00  0.00     0.062 A 
HETATM    9  S   UNL     1       9.119  30.472  59.271  1.00  0.00    -0.094 SA
HETATM   10  C   UNL     1       8.501  31.937  59.911  1.00  0.00     0.053 A 
HETATM   11  C   UNL     1       7.209  32.178  59.493  1.00  0.00     0.038 A 
ENDROOT
BRANCH   4  12
HETATM   12  C   UNL     1       5.702  27.713  56.375  1.00  0.00     0.146 C 
BRANCH  12  13
HETATM   13  C   UNL     1       5.629  27.874  54.859  1.00  0.00     0.123 C 
BRANCH  13  14
HETATM   14  C   UNL     1       6.865  27.338  54.173  1.00  0.00     0.219 C 
HETATM   15  N   UNL     1       6.710  26.039  53.751  1.00  0.00    -0.357 N 
HETATM   16  H   UNL     1       5.861  25.538  53.982  1.00  0.00     0.162 HD
HETATM   17  O   UNL     1       7.885  27.995  54.004  1.00  0.00    -0.274 OA
BRANCH  15  18
HETATM   18  C   UNL     1       7.736  25.326  53.027  1.00  0.00     0.161 C 
BRANCH  18  19
HETATM   19  C   UNL     1       7.923  23.957  53.629  1.00  0.00    -0.038 A 
HETATM   20  C   UNL     1       8.130  23.800  55.009  1.00  0.00     0.048 A 
HETATM   21  C   UNL     1       8.249  22.517  55.503  1.00  0.00     0.105 A 
HETATM   22  C   UNL     1       8.165  21.413  54.689  1.00  0.00     0.105 A 
HETATM   23  O   UNL     1       8.446  22.186  56.808  1.00  0.00    -0.323 OA
HETATM   24  O   UNL     1       8.299  20.248  55.378  1.00  0.00    -0.323 OA
HETATM   25  C   UNL     1       7.962  21.526  53.333  1.00  0.00     0.040 A 
HETATM   26  C   UNL     1       8.479  20.746  56.720  1.00  0.00     0.352 A 
HETATM   27  C   UNL     1       7.839  22.812  52.800  1.00  0.00     0.012 A 
ENDBRANCH  18  19
ENDBRANCH  15  18
ENDBRANCH  13  14
ENDBRANCH  12  13
ENDBRANCH   4  12
BRANCH   1  28
HETATM   28  C   UNL     1       4.532  32.137  57.983  1.00  0.00     0.237 C 
BRANCH  28  29
HETATM   29  C   UNL     1       3.745  32.275  59.282  1.00  0.00     0.240 C 
HETATM   30  N   UNL     1       3.993  33.471  59.935  1.00  0.00    -0.325 N 
HETATM   31  H   UNL     1       4.224  34.253  59.318  1.00  0.00     0.169 HD
HETATM   32  O   UNL     1       2.950  31.409  59.638  1.00  0.00    -0.271 OA
BRANCH  30  33
HETATM   33  C   UNL     1       3.601  33.790  61.254  1.00  0.00     0.042 A 
HETATM   34  C   UNL     1       2.351  34.339  61.605  1.00  0.00    -0.035 A 
HETATM   35  C   UNL     1       1.235  34.596  60.629  1.00  0.00     0.050 C 
HETATM   36  C   UNL     1       2.089  34.625  62.960  1.00  0.00     0.011 A 
HETATM   37  C   UNL     1       3.019  34.326  63.952  1.00  0.00     0.024 A 
HETATM   38  C   UNL     1       4.223  33.730  63.602  1.00  0.00     0.036 A 
HETATM   39  C   UNL     1       4.512  33.449  62.267  1.00  0.00     0.053 A 
HETATM   40 CL   UNL     1       5.368  33.339  64.826  1.00  0.00    -0.084 Cl
ENDBRANCH  30  33
ENDBRANCH  28  29
ENDBRANCH   1  28
TORSDOF 8
ENDMDL
MODEL 8
REMARK VINA RESULT:     -10.1      3.346      5.422
REMARK  8 active torsions:
REMARK  status: ('A' for Active; 'I' for Inactive)
REMARK    1  A    between atoms: C_3  and  N_4 
REMARK       I    between atoms: N_4  and  C_5 
REMARK    2  A    between atoms: C_5  and  C_6 
REMARK    3  A    between atoms: C_6  and  N_7 
REMARK    4  A    between atoms: N_10  and  C_11 
REMARK    5  A    between atoms: C_11  and  C_12 
REMARK    6  A    between atoms: C_12  and  C_13 
REMARK       I    between atoms: C_13  and  N_14 
REMARK    7  A    between atoms: N_14  and  C_15 
REMARK    8  A    between atoms: C_15  and  C_16 
ROOT
HETATM    1  N   UNL     1       5.894  25.527  54.660  1.00  0.00    -0.289 N 
HETATM    2  C   UNL     1       5.756  26.778  55.267  1.00  0.00     0.332 C 
HETATM    3  O   UNL     1       5.000  27.620  54.768  1.00  0.00    -0.246 OA
HETATM    4  N   UNL     1       6.491  27.031  56.438  1.00  0.00    -0.265 N 
HETATM    5  C   UNL     1       7.320  26.085  57.059  1.00  0.00     0.271 C 
HETATM    6  O   UNL     1       7.819  26.240  58.170  1.00  0.00    -0.266 OA
HETATM    7  C   UNL     1       7.524  24.897  56.278  1.00  0.00     0.100 A 
HETATM    8  C   UNL     1       6.843  24.624  55.123  1.00  0.00     0.062 A 
HETATM    9  S   UNL     1       8.614  23.669  56.714  1.00  0.00    -0.094 SA
HETATM   10  C   UNL     1       8.203  22.751  55.327  1.00  0.00     0.053 A 
HETATM   11  C   UNL     1       7.240  23.376  54.562  1.00  0.00     0.038 A 
ENDROOT
BRANCH   4  12
HETATM   12  C   UNL     1       6.198  28.328  57.075  1.00  0.00     0.146 C 
BRANCH  12  13
HETATM   13  C   UNL     1       7.046  29.541  56.705  1.00  0.00     0.123 C 
BRANCH  13  14
HETATM   14  C   UNL     1       8.121  29.813  57.733  1.00  0.00     0.219 C 
HETATM   15  N   UNL     1       7.888  30.966  58.445  1.00  0.00    -0.357 N 
HETATM   16  H   UNL     1       7.103  31.555  58.196  1.00  0.00     0.162 HD
HETATM   17  O   UNL     1       9.085  29.080  57.916  1.00  0.00    -0.274 OA
BRANCH  15  18
HETATM   18  C   UNL     1       8.749  31.410  59.515  1.00  0.00     0.161 C 
BRANCH  18  19
HETATM   19  C   UNL     1       7.913  31.905  60.667  1.00  0.00    -0.038 A 
HETATM   20  C   UNL     1       8.490  32.151  61.922  1.00  0.00     0.048 A 
HETATM   21  C   UNL     1       7.678  32.647  62.921  1.00  0.00     0.105 A 
HETATM   22  C   UNL     1       6.343  32.904  62.715  1.00  0.00     0.105 A 
HETATM   23  O   UNL     1       8.072  32.946  64.189  1.00  0.00    -0.323 OA
HETATM   24  O   UNL     1       5.731  33.396  63.824  1.00  0.00    -0.323 OA
HETATM   25  C   UNL     1       5.741  32.677  61.498  1.00  0.00     0.040 A 
HETATM   26  C   UNL     1       6.832  33.417  64.756  1.00  0.00     0.352 A 
HETATM   27  C   UNL     1       6.537  32.173  60.465  1.00  0.00     0.012 A 
ENDBRANCH  18  19
ENDBRANCH  15  18
ENDBRANCH  13  14
ENDBRANCH  12  13
ENDBRANCH   4  12
BRANCH   1  28
HETATM   28  C   UNL     1       4.980  25.207  53.567  1.00  0.00     0.237 C 
BRANCH  28  29
HETATM   29  C   UNL     1       5.413  25.810  52.236  1.00  0.00     0.240 C 
HETATM   30  N   UNL     1       4.481  26.696  51.719  1.00  0.00    -0.325 N 
HETATM   31  H   UNL     1       3.931  27.192  52.423  1.00  0.00     0.169 HD
HETATM   32  O   UNL     1       6.507  25.545  51.744  1.00  0.00    -0.271 OA
BRANCH  30  33
HETATM   33  C   UNL     1       4.486  27.231  50.413  1.00  0.00     0.042 A 
HETATM   34  C   UNL     1       4.998  28.500  50.072  1.00  0.00    -0.035 A 
HETATM   35  C   UNL     1       5.675  29.428  51.044  1.00  0.00     0.050 C 
HETATM   36  C   UNL     1       4.929  28.924  48.730  1.00  0.00     0.011 A 
HETATM   37  C   UNL     1       4.416  28.094  47.737  1.00  0.00     0.024 A 
HETATM   38  C   UNL     1       3.970  26.823  48.074  1.00  0.00     0.036 A 
HETATM   39  C   UNL     1       4.014  26.385  49.398  1.00  0.00     0.053 A 
HETATM   40 CL   UNL     1       3.352  25.784  46.848  1.00  0.00    -0.084 Cl
ENDBRANCH  30  33
ENDBRANCH  28  29
ENDBRANCH   1  28
TORSDOF 8
ENDMDL
MODEL 9
REMARK VINA RESULT:     -10.1      4.141      9.526
REMARK  8 active torsions:
REMARK  status: ('A' for Active; 'I' for Inactive)
REMARK    1  A    between atoms: C_3  and  N_4 
REMARK       I    between atoms: N_4  and  C_5 
REMARK    2  A    between atoms: C_5  and  C_6 
REMARK    3  A    between atoms: C_6  and  N_7 
REMARK    4  A    between atoms: N_10  and  C_11 
REMARK    5  A    between atoms: C_11  and  C_12 
REMARK    6  A    between atoms: C_12  and  C_13 
REMARK       I    between atoms: C_13  and  N_14 
REMARK    7  A    between atoms: N_14  and  C_15 
REMARK    8  A    between atoms: C_15  and  C_16 
ROOT
HETATM    1  N   UNL     1       5.862  27.516  56.459  1.00  0.00    -0.289 N 
HETATM    2  C   UNL     1       5.065  27.771  55.342  1.00  0.00     0.332 C 
HETATM    3  O   UNL     1       4.594  26.826  54.697  1.00  0.00    -0.246 OA
HETATM    4  N   UNL     1       4.824  29.111  54.990  1.00  0.00    -0.265 N 
HETATM    5  C   UNL     1       5.301  30.207  55.724  1.00  0.00     0.271 C 
HETATM    6  O   UNL     1       4.947  31.367  55.526  1.00  0.00    -0.266 OA
HETATM    7  C   UNL     1       6.239  29.849  56.751  1.00  0.00     0.100 A 
HETATM    8  C   UNL     1       6.515  28.558  57.108  1.00  0.00     0.062 A 
HETATM    9  S   UNL     1       7.096  30.991  57.672  1.00  0.00    -0.094 SA
HETATM   10  C   UNL     1       7.882  29.753  58.558  1.00  0.00     0.053 A 
HETATM   11  C   UNL     1       7.476  28.496  58.158  1.00  0.00     0.038 A 
ENDROOT
BRANCH   4  12
HETATM   12  C   UNL     1       3.880  29.290  53.872  1.00  0.00     0.146 C 
BRANCH  12  13
HETATM   13  C   UNL     1       4.329  30.078  52.645  1.00  0.00     0.123 C 
BRANCH  13  14
HETATM   14  C   UNL     1       5.010  29.195  51.624  1.00  0.00     0.219 C 
HETATM   15  N   UNL     1       4.291  28.055  51.354  1.00  0.00    -0.357 N 
HETATM   16  H   UNL     1       3.447  27.861  51.880  1.00  0.00     0.162 HD
HETATM   17  O   UNL     1       6.077  29.473  51.091  1.00  0.00    -0.274 OA
BRANCH  15  18
HETATM   18  C   UNL     1       4.712  27.079  50.377  1.00  0.00     0.161 C 
BRANCH  18  19
HETATM   19  C   UNL     1       3.677  26.974  49.287  1.00  0.00    -0.038 A 
HETATM   20  C   UNL     1       2.728  27.989  49.096  1.00  0.00     0.048 A 
HETATM   21  C   UNL     1       1.837  27.854  48.051  1.00  0.00     0.105 A 
HETATM   22  C   UNL     1       1.863  26.768  47.209  1.00  0.00     0.105 A 
HETATM   23  O   UNL     1       0.860  28.742  47.722  1.00  0.00    -0.323 OA
HETATM   24  O   UNL     1       0.908  26.836  46.244  1.00  0.00    -0.323 OA
HETATM   25  C   UNL     1       2.779  25.753  47.362  1.00  0.00     0.040 A 
HETATM   26  C   UNL     1       0.274  28.088  46.577  1.00  0.00     0.352 A 
HETATM   27  C   UNL     1       3.695  25.860  48.413  1.00  0.00     0.012 A 
ENDBRANCH  18  19
ENDBRANCH  15  18
ENDBRANCH  13  14
ENDBRANCH  12  13
ENDBRANCH   4  12
BRANCH   1  28
HETATM   28  C   UNL     1       5.938  26.135  56.929  1.00  0.00     0.237 C 
BRANCH  28  29
HETATM   29  C   UNL     1       7.003  25.320  56.203  1.00  0.00     0.240 C 
HETATM   30  N   UNL     1       6.469  24.466  55.252  1.00  0.00    -0.325 N 
HETATM   31  H   UNL     1       5.606  24.799  54.818  1.00  0.00     0.169 HD
HETATM   32  O   UNL     1       8.197  25.482  56.440  1.00  0.00    -0.271 OA
BRANCH  30  33
HETATM   33  C   UNL     1       7.163  23.431  54.587  1.00  0.00     0.042 A 
HETATM   34  C   UNL     1       7.592  23.491  53.246  1.00  0.00    -0.035 A 
HETATM   35  C   UNL     1       7.430  24.696  52.358  1.00  0.00     0.050 C 
HETATM   36  C   UNL     1       8.264  22.382  52.695  1.00  0.00     0.011 A 
HETATM   37  C   UNL     1       8.555  21.260  53.467  1.00  0.00     0.024 A 
HETATM   38  C   UNL     1       8.182  21.237  54.804  1.00  0.00     0.036 A 
HETATM   39  C   UNL     1       7.502  22.316  55.369  1.00  0.00     0.053 A 
HETATM   40 CL   UNL     1       8.556  19.860  55.769  1.00  0.00    -0.084 Cl
ENDBRANCH  30  33
ENDBRANCH  28  29
ENDBRANCH   1  28
TORSDOF 8
ENDMDL
MODEL 10
REMARK VINA RESULT:      -9.9      4.361      9.189
REMARK  8 active torsions:
REMARK  status: ('A' for Active; 'I' for Inactive)
REMARK    1  A    between atoms: C_3  and  N_4 
REMARK       I    between atoms: N_4  and  C_5 
REMARK    2  A    between atoms: C_5  and  C_6 
REMARK    3  A    between atoms: C_6  and  N_7 
REMARK    4  A    between atoms: N_10  and  C_11 
REMARK    5  A    between atoms: C_11  and  C_12 
REMARK    6  A    between atoms: C_12  and  C_13 
REMARK       I    between atoms: C_13  and  N_14 
REMARK    7  A    between atoms: N_14  and  C_15 
REMARK    8  A    between atoms: C_15  and  C_16 
ROOT
HETATM    1  N   UNL     1       6.412  28.246  54.140  1.00  0.00    -0.289 N 
HETATM    2  C   UNL     1       5.281  28.889  53.632  1.00  0.00     0.332 C 
HETATM    3  O   UNL     1       4.885  28.622  52.492  1.00  0.00    -0.246 OA
HETATM    4  N   UNL     1       4.629  29.828  54.451  1.00  0.00    -0.265 N 
HETATM    5  C   UNL     1       5.020  30.122  55.765  1.00  0.00     0.271 C 
HETATM    6  O   UNL     1       4.353  30.802  56.541  1.00  0.00    -0.266 OA
HETATM    7  C   UNL     1       6.279  29.537  56.136  1.00  0.00     0.100 A 
HETATM    8  C   UNL     1       6.953  28.637  55.359  1.00  0.00     0.062 A 
HETATM    9  S   UNL     1       7.065  29.870  57.605  1.00  0.00    -0.094 SA
HETATM   10  C   UNL     1       8.355  28.816  57.203  1.00  0.00     0.053 A 
HETATM   11  C   UNL     1       8.168  28.217  55.975  1.00  0.00     0.038 A 
ENDROOT
BRANCH   4  12
HETATM   12  C   UNL     1       3.381  30.372  53.883  1.00  0.00     0.146 C 
BRANCH  12  13
HETATM   13  C   UNL     1       3.385  31.787  53.312  1.00  0.00     0.123 C 
BRANCH  13  14
HETATM   14  C   UNL     1       2.970  31.810  51.858  1.00  0.00     0.219 C 
HETATM   15  N   UNL     1       2.335  30.652  51.475  1.00  0.00    -0.357 N 
HETATM   16  H   UNL     1       2.262  29.883  52.131  1.00  0.00     0.162 HD
HETATM   17  O   UNL     1       3.168  32.759  51.111  1.00  0.00    -0.274 OA
BRANCH  15  18
HETATM   18  C   UNL     1       1.803  30.455  50.148  1.00  0.00     0.161 C 
BRANCH  18  19
HETATM   19  C   UNL     1       2.540  29.332  49.467  1.00  0.00    -0.038 A 
HETATM   20  C   UNL     1       1.863  28.175  49.051  1.00  0.00     0.048 A 
HETATM   21  C   UNL     1       2.588  27.203  48.392  1.00  0.00     0.105 A 
HETATM   22  C   UNL     1       3.931  27.344  48.137  1.00  0.00     0.105 A 
HETATM   23  O   UNL     1       2.092  26.028  47.918  1.00  0.00    -0.323 OA
HETATM   24  O   UNL     1       4.449  26.278  47.470  1.00  0.00    -0.323 OA
HETATM   25  C   UNL     1       4.630  28.464  48.527  1.00  0.00     0.040 A 
HETATM   26  C   UNL     1       3.278  25.446  47.338  1.00  0.00     0.352 A 
HETATM   27  C   UNL     1       3.924  29.467  49.198  1.00  0.00     0.012 A 
ENDBRANCH  18  19
ENDBRANCH  15  18
ENDBRANCH  13  14
ENDBRANCH  12  13
ENDBRANCH   4  12
BRANCH   1  28
HETATM   28  C   UNL     1       6.957  27.136  53.364  1.00  0.00     0.237 C 
BRANCH  28  29
HETATM   29  C   UNL     1       6.814  25.792  54.069  1.00  0.00     0.240 C 
HETATM   30  N   UNL     1       8.022  25.130  54.216  1.00  0.00    -0.325 N 
HETATM   31  H   UNL     1       8.834  25.743  54.310  1.00  0.00     0.169 HD
HETATM   32  O   UNL     1       5.724  25.409  54.490  1.00  0.00    -0.271 OA
BRANCH  30  33
HETATM   33  C   UNL     1       8.185  23.785  54.614  1.00  0.00     0.042 A 
HETATM   34  C   UNL     1       8.352  23.362  55.948  1.00  0.00    -0.035 A 
HETATM   35  C   UNL     1       8.310  24.280  57.139  1.00  0.00     0.050 C 
HETATM   36  C   UNL     1       8.520  21.987  56.211  1.00  0.00     0.011 A 
HETATM   37  C   UNL     1       8.469  21.046  55.186  1.00  0.00     0.024 A 
HETATM   38  C   UNL     1       8.243  21.469  53.883  1.00  0.00     0.036 A 
HETATM   39  C   UNL     1       8.088  22.825  53.594  1.00  0.00     0.053 A 
HETATM   40 CL   UNL     1       8.159  20.309  52.613  1.00  0.00    -0.084 Cl
ENDBRANCH  30  33
ENDBRANCH  28  29
ENDBRANCH   1  28
TORSDOF 8
ENDMDL
