MODEL 1
REMARK VINA RESULT:     -10.2      0.000      0.000
REMARK  8 active torsions:
REMARK  status: ('A' for Active; 'I' for Inactive)
REMARK       I    between atoms: N_2  and  C_3 
REMARK    1  A    between atoms: N_2  and  C_29 
REMARK    2  A    between atoms: C_3  and  C_4 
REMARK    3  A    between atoms: C_7  and  C_8 
REMARK       I    between atoms: C_8  and  N_9 
REMARK    4  A    between atoms: N_9  and  C_10 
REMARK    5  A    between atoms: N_20  and  C_21 
REMARK    6  A    between atoms: C_21  and  C_22 
REMARK    7  A    between atoms: C_29  and  C_30 
REMARK    8  A    between atoms: C_30  and  C_31 
ROOT
HETATM    1  C   UNL     1       7.471  30.483  58.102  1.00  0.00     0.098 C 
HETATM    2  C   UNL     1       7.274  29.022  57.958  1.00  0.00     0.206 C 
HETATM    3  O   UNL     1       7.983  28.209  58.550  1.00  0.00    -0.286 OA
HETATM    4  C   UNL     1       6.193  28.556  57.040  1.00  0.00     0.098 C 
HETATM    5  C   UNL     1       5.286  29.474  56.658  1.00  0.00     0.111 C 
HETATM    6  N   UNL     1       5.339  30.823  56.996  1.00  0.00    -0.362 N 
HETATM    7  C   UNL     1       6.476  31.272  57.662  1.00  0.00     0.111 C 
ENDROOT
BRANCH   1   8
HETATM    8  C   UNL     1       8.633  31.158  58.725  1.00  0.00     0.258 C 
HETATM    9  N   UNL     1       8.611  31.458  60.087  1.00  0.00    -0.352 N 
HETATM   10  C   UNL     1       9.847  31.968  60.665  1.00  0.00     0.152 C 
HETATM   11  O   UNL     1       9.647  31.313  58.040  1.00  0.00    -0.267 OA
BRANCH   9  12
HETATM   12  C   UNL     1       7.418  31.622  60.937  1.00  0.00     0.131 C 
BRANCH  12  13
HETATM   13  C   UNL     1       7.567  31.225  62.406  1.00  0.00     0.079 C 
BRANCH  13  14
HETATM   14  C   UNL     1       6.974  32.239  63.345  1.00  0.00     0.035 A 
HETATM   15  N   UNL     1       5.623  32.345  63.353  1.00  0.00    -0.266 NA
HETATM   16  C   UNL     1       5.078  33.227  64.218  1.00  0.00     0.117 A 
HETATM   17  C   UNL     1       5.818  34.019  65.079  1.00  0.00     0.019 A 
HETATM   18  C   UNL     1       7.203  33.906  65.048  1.00  0.00     0.003 A 
HETATM   19  C   UNL     1       7.793  33.007  64.167  1.00  0.00     0.027 A 
ENDBRANCH  13  14
ENDBRANCH  12  13
ENDBRANCH   9  12
ENDBRANCH   1   8
BRANCH   4  20
HETATM   20  C   UNL     1       6.116  27.180  56.477  1.00  0.00     0.257 C 
HETATM   21  N   UNL     1       7.271  26.752  55.870  1.00  0.00    -0.352 N 
HETATM   22  H   UNL     1       8.120  27.298  56.019  1.00  0.00     0.163 HD
HETATM   23  O   UNL     1       5.077  26.527  56.498  1.00  0.00    -0.267 OA
BRANCH  21  24
HETATM   24  C   UNL     1       7.395  25.509  55.107  1.00  0.00     0.084 C 
HETATM   25  C   UNL     1       7.202  24.349  56.095  1.00  0.00     0.025 C 
HETATM   26  C   UNL     1       7.382  22.920  55.586  1.00  0.00     0.002 C 
HETATM   27  C   UNL     1       8.585  22.699  54.669  1.00  0.00     0.000 C 
HETATM   28  C   UNL     1       8.236  22.608  53.183  1.00  0.00     0.000 C 
HETATM   29  C   UNL     1       7.759  23.896  52.510  1.00  0.00     0.000 C 
HETATM   30  C   UNL     1       6.383  24.379  52.968  1.00  0.00     0.002 C 
HETATM   31  C   UNL     1       6.397  25.556  53.945  1.00  0.00     0.025 C 
ENDBRANCH  21  24
ENDBRANCH   4  20
BRANCH   6  32
HETATM   32  C   UNL     1       4.223  31.748  56.689  1.00  0.00     0.159 C 
BRANCH  32  33
HETATM   33  C   UNL     1       3.500  32.313  57.922  1.00  0.00     0.139 C 
HETATM   34  O   UNL     1       3.355  31.332  58.968  1.00  0.00    -0.384 OA
HETATM   35  C   UNL     1       3.299  32.052  60.202  1.00  0.00     0.168 C 
HETATM   36  C   UNL     1       4.252  33.208  60.022  1.00  0.00     0.029 C 
HETATM   37  C   UNL     1       4.113  33.558  58.557  1.00  0.00     0.035 C 
ENDBRANCH  32  33
ENDBRANCH   6  32
TORSDOF 8
ENDMDL
MODEL 2
REMARK VINA RESULT:     -10.1      1.786      2.508
REMARK  8 active torsions:
REMARK  status: ('A' for Active; 'I' for Inactive)
REMARK       I    between atoms: N_2  and  C_3 
REMARK    1  A    between atoms: N_2  and  C_29 
REMARK    2  A    between atoms: C_3  and  C_4 
REMARK    3  A    between atoms: C_7  and  C_8 
REMARK       I    between atoms: C_8  and  N_9 
REMARK    4  A    between atoms: N_9  and  C_10 
REMARK    5  A    between atoms: N_20  and  C_21 
REMARK    6  A    between atoms: C_21  and  C_22 
REMARK    7  A    between atoms: C_29  and  C_30 
REMARK    8  A    between atoms: C_30  and  C_31 
ROOT
HETATM    1  C   UNL     1       8.040  28.949  56.358  1.00  0.00     0.098 C 
HETATM    2  C   UNL     1       7.945  27.500  56.650  1.00  0.00     0.206 C 
HETATM    3  O   UNL     1       8.778  26.923  57.349  1.00  0.00    -0.286 OA
HETATM    4  C   UNL     1       6.812  26.744  56.042  1.00  0.00     0.098 C 
HETATM    5  C   UNL     1       5.798  27.472  55.539  1.00  0.00     0.111 C 
HETATM    6  N   UNL     1       5.780  28.863  55.482  1.00  0.00    -0.362 N 
HETATM    7  C   UNL     1       6.943  29.534  55.848  1.00  0.00     0.111 C 
ENDROOT
BRANCH   1   8
HETATM    8  C   UNL     1       9.205  29.826  56.618  1.00  0.00     0.258 C 
HETATM    9  N   UNL     1       9.366  30.410  57.874  1.00  0.00    -0.352 N 
HETATM   10  C   UNL     1      10.615  31.122  58.110  1.00  0.00     0.152 C 
HETATM   11  O   UNL     1      10.075  29.904  55.746  1.00  0.00    -0.267 OA
BRANCH   9  12
HETATM   12  C   UNL     1       8.312  30.666  58.873  1.00  0.00     0.131 C 
BRANCH  12  13
HETATM   13  C   UNL     1       8.710  30.509  60.340  1.00  0.00     0.079 C 
BRANCH  13  14
HETATM   14  C   UNL     1       8.073  31.541  61.228  1.00  0.00     0.035 A 
HETATM   15  N   UNL     1       7.035  32.238  60.706  1.00  0.00    -0.266 NA
HETATM   16  C   UNL     1       6.433  33.143  61.507  1.00  0.00     0.117 A 
HETATM   17  C   UNL     1       6.820  33.394  62.812  1.00  0.00     0.019 A 
HETATM   18  C   UNL     1       7.894  32.679  63.327  1.00  0.00     0.003 A 
HETATM   19  C   UNL     1       8.535  31.741  62.526  1.00  0.00     0.027 A 
ENDBRANCH  13  14
ENDBRANCH  12  13
ENDBRANCH   9  12
ENDBRANCH   1   8
BRANCH   4  20
HETATM   20  C   UNL     1       6.784  25.262  55.896  1.00  0.00     0.257 C 
HETATM   21  N   UNL     1       7.968  24.714  55.469  1.00  0.00    -0.352 N 
HETATM   22  H   UNL     1       8.800  25.305  55.479  1.00  0.00     0.163 HD
HETATM   23  O   UNL     1       5.759  24.611  56.074  1.00  0.00    -0.267 OA
BRANCH  21  24
HETATM   24  C   UNL     1       8.146  23.308  55.099  1.00  0.00     0.084 C 
HETATM   25  C   UNL     1       7.629  22.462  56.272  1.00  0.00     0.025 C 
HETATM   26  C   UNL     1       7.787  20.944  56.200  1.00  0.00     0.002 C 
HETATM   27  C   UNL     1       9.139  20.450  55.688  1.00  0.00     0.000 C 
HETATM   28  C   UNL     1       9.127  19.975  54.234  1.00  0.00     0.000 C 
HETATM   29  C   UNL     1       8.935  21.049  53.162  1.00  0.00     0.000 C 
HETATM   30  C   UNL     1       7.542  21.677  53.138  1.00  0.00     0.002 C 
HETATM   31  C   UNL     1       7.444  23.072  53.758  1.00  0.00     0.025 C 
ENDBRANCH  21  24
ENDBRANCH   4  20
BRANCH   6  32
HETATM   32  C   UNL     1       4.566  29.610  55.075  1.00  0.00     0.159 C 
BRANCH  32  33
HETATM   33  C   UNL     1       4.012  30.563  56.146  1.00  0.00     0.139 C 
HETATM   34  O   UNL     1       4.260  30.087  57.484  1.00  0.00    -0.384 OA
HETATM   35  C   UNL     1       4.318  31.241  58.327  1.00  0.00     0.168 C 
HETATM   36  C   UNL     1       4.988  32.301  57.488  1.00  0.00     0.029 C 
HETATM   37  C   UNL     1       4.500  32.008  56.087  1.00  0.00     0.035 C 
ENDBRANCH  32  33
ENDBRANCH   6  32
TORSDOF 8
ENDMDL
MODEL 3
REMARK VINA RESULT:     -10.0      1.955      2.829
REMARK  8 active torsions:
REMARK  status: ('A' for Active; 'I' for Inactive)
REMARK       I    between atoms: N_2  and  C_3 
REMARK    1  A    between atoms: N_2  and  C_29 
REMARK    2  A    between atoms: C_3  and  C_4 
REMARK    3  A    between atoms: C_7  and  C_8 
REMARK       I    between atoms: C_8  and  N_9 
REMARK    4  A    between atoms: N_9  and  C_10 
REMARK    5  A    between atoms: N_20  and  C_21 
REMARK    6  A    between atoms: C_21  and  C_22 
REMARK    7  A    between atoms: C_29  and  C_30 
REMARK    8  A    between atoms: C_30  and  C_31 
ROOT
HETATM    1  C   UNL     1       7.413  29.213  57.214  1.00  0.00     0.098 C 
HETATM    2  C   UNL     1       7.412  27.738  57.346  1.00  0.00     0.206 C 
HETATM    3  O   UNL     1       8.355  27.131  57.852  1.00  0.00    -0.286 OA
HETATM    4  C   UNL     1       6.232  26.995  56.815  1.00  0.00     0.098 C 
HETATM    5  C   UNL     1       5.132  27.722  56.544  1.00  0.00     0.111 C 
HETATM    6  N   UNL     1       5.056  29.107  56.651  1.00  0.00    -0.362 N 
HETATM    7  C   UNL     1       6.235  29.794  56.930  1.00  0.00     0.111 C 
ENDROOT
BRANCH   1   8
HETATM    8  C   UNL     1       8.571  30.115  57.412  1.00  0.00     0.258 C 
HETATM    9  N   UNL     1       8.815  30.663  58.672  1.00  0.00    -0.352 N 
HETATM   10  C   UNL     1      10.059  31.404  58.834  1.00  0.00     0.152 C 
HETATM   11  O   UNL     1       9.368  30.245  56.479  1.00  0.00    -0.267 OA
BRANCH   9  12
HETATM   12  C   UNL     1       7.836  30.856  59.757  1.00  0.00     0.131 C 
BRANCH  12  13
HETATM   13  C   UNL     1       7.367  32.290  60.005  1.00  0.00     0.079 C 
BRANCH  13  14
HETATM   14  C   UNL     1       7.176  32.594  61.465  1.00  0.00     0.035 A 
HETATM   15  N   UNL     1       5.949  33.030  61.841  1.00  0.00    -0.266 NA
HETATM   16  C   UNL     1       5.756  33.273  63.155  1.00  0.00     0.117 A 
HETATM   17  C   UNL     1       6.734  33.106  64.121  1.00  0.00     0.019 A 
HETATM   18  C   UNL     1       7.989  32.670  63.715  1.00  0.00     0.003 A 
HETATM   19  C   UNL     1       8.219  32.414  62.368  1.00  0.00     0.027 A 
ENDBRANCH  13  14
ENDBRANCH  12  13
ENDBRANCH   9  12
ENDBRANCH   1   8
BRANCH   4  20
HETATM   20  C   UNL     1       6.237  25.540  56.502  1.00  0.00     0.257 C 
HETATM   21  N   UNL     1       7.473  25.033  56.189  1.00  0.00    -0.352 N 
HETATM   22  H   UNL     1       8.290  25.612  56.381  1.00  0.00     0.163 HD
HETATM   23  O   UNL     1       5.201  24.881  56.462  1.00  0.00    -0.267 OA
BRANCH  21  24
HETATM   24  C   UNL     1       7.711  23.675  55.693  1.00  0.00     0.084 C 
HETATM   25  C   UNL     1       8.511  23.803  54.389  1.00  0.00     0.025 C 
HETATM   26  C   UNL     1       8.815  22.534  53.594  1.00  0.00     0.002 C 
HETATM   27  C   UNL     1       7.653  21.551  53.461  1.00  0.00     0.000 C 
HETATM   28  C   UNL     1       7.743  20.340  54.391  1.00  0.00     0.000 C 
HETATM   29  C   UNL     1       7.554  20.607  55.885  1.00  0.00     0.000 C 
HETATM   30  C   UNL     1       8.690  21.395  56.537  1.00  0.00     0.002 C 
HETATM   31  C   UNL     1       8.391  22.870  56.806  1.00  0.00     0.025 C 
ENDBRANCH  21  24
ENDBRANCH   4  20
BRANCH   6  32
HETATM   32  C   UNL     1       3.772  29.831  56.504  1.00  0.00     0.159 C 
BRANCH  32  33
HETATM   33  C   UNL     1       3.862  31.140  55.702  1.00  0.00     0.139 C 
HETATM   34  O   UNL     1       4.216  30.913  54.324  1.00  0.00    -0.384 OA
HETATM   35  C   UNL     1       3.663  31.998  53.573  1.00  0.00     0.168 C 
HETATM   36  C   UNL     1       2.346  32.302  54.244  1.00  0.00     0.029 C 
HETATM   37  C   UNL     1       2.619  32.026  55.706  1.00  0.00     0.035 C 
ENDBRANCH  32  33
ENDBRANCH   6  32
TORSDOF 8
ENDMDL
MODEL 4
REMARK VINA RESULT:     -10.0      2.428      3.674
REMARK  8 active torsions:
REMARK  status: ('A' for Active; 'I' for Inactive)
REMARK       I    between atoms: N_2  and  C_3 
REMARK    1  A    between atoms: N_2  and  C_29 
REMARK    2  A    between atoms: C_3  and  C_4 
REMARK    3  A    between atoms: C_7  and  C_8 
REMARK       I    between atoms: C_8  and  N_9 
REMARK    4  A    between atoms: N_9  and  C_10 
REMARK    5  A    between atoms: N_20  and  C_21 
REMARK    6  A    between atoms: C_21  and  C_22 
REMARK    7  A    between atoms: C_29  and  C_30 
REMARK    8  A    between atoms: C_30  and  C_31 
ROOT
HETATM    1  C   UNL     1       8.045  28.905  56.275  1.00  0.00     0.098 C 
HETATM    2  C   UNL     1       7.939  27.466  56.613  1.00  0.00     0.206 C 
HETATM    3  O   UNL     1       8.733  26.919  57.377  1.00  0.00    -0.286 OA
HETATM    4  C   UNL     1       6.844  26.682  55.969  1.00  0.00     0.098 C 
HETATM    5  C   UNL     1       5.859  27.387  55.384  1.00  0.00     0.111 C 
HETATM    6  N   UNL     1       5.838  28.775  55.276  1.00  0.00    -0.362 N 
HETATM    7  C   UNL     1       6.977  29.465  55.683  1.00  0.00     0.111 C 
ENDROOT
BRANCH   1   8
HETATM    8  C   UNL     1       9.191  29.797  56.568  1.00  0.00     0.258 C 
HETATM    9  N   UNL     1       9.341  30.332  57.847  1.00  0.00    -0.352 N 
HETATM   10  C   UNL     1      10.574  31.063  58.110  1.00  0.00     0.152 C 
HETATM   11  O   UNL     1      10.057  29.930  55.699  1.00  0.00    -0.267 OA
BRANCH   9  12
HETATM   12  C   UNL     1       8.284  30.523  58.857  1.00  0.00     0.131 C 
BRANCH  12  13
HETATM   13  C   UNL     1       8.718  30.451  60.320  1.00  0.00     0.079 C 
BRANCH  13  14
HETATM   14  C   UNL     1       8.047  31.489  61.177  1.00  0.00     0.035 A 
HETATM   15  N   UNL     1       6.955  32.098  60.654  1.00  0.00    -0.266 NA
HETATM   16  C   UNL     1       6.324  33.006  61.428  1.00  0.00     0.117 A 
HETATM   17  C   UNL     1       6.733  33.344  62.707  1.00  0.00     0.019 A 
HETATM   18  C   UNL     1       7.861  32.719  63.222  1.00  0.00     0.003 A 
HETATM   19  C   UNL     1       8.534  31.780  62.448  1.00  0.00     0.027 A 
ENDBRANCH  13  14
ENDBRANCH  12  13
ENDBRANCH   9  12
ENDBRANCH   1   8
BRANCH   4  20
HETATM   20  C   UNL     1       6.831  25.196  55.874  1.00  0.00     0.257 C 
HETATM   21  N   UNL     1       7.983  24.651  55.365  1.00  0.00    -0.352 N 
HETATM   22  H   UNL     1       8.802  25.255  55.284  1.00  0.00     0.163 HD
HETATM   23  O   UNL     1       5.836  24.537  56.162  1.00  0.00    -0.267 OA
BRANCH  21  24
HETATM   24  C   UNL     1       8.153  23.237  55.027  1.00  0.00     0.084 C 
HETATM   25  C   UNL     1       7.614  22.420  56.211  1.00  0.00     0.025 C 
HETATM   26  C   UNL     1       7.759  20.900  56.173  1.00  0.00     0.002 C 
HETATM   27  C   UNL     1       9.114  20.384  55.690  1.00  0.00     0.000 C 
HETATM   28  C   UNL     1       9.116  19.877  54.246  1.00  0.00     0.000 C 
HETATM   29  C   UNL     1       8.947  20.930  53.150  1.00  0.00     0.000 C 
HETATM   30  C   UNL     1       7.560  21.569  53.093  1.00  0.00     0.002 C 
HETATM   31  C   UNL     1       7.466  22.978  53.682  1.00  0.00     0.025 C 
ENDBRANCH  21  24
ENDBRANCH   4  20
BRANCH   6  32
HETATM   32  C   UNL     1       4.647  29.500  54.775  1.00  0.00     0.159 C 
BRANCH  32  33
HETATM   33  C   UNL     1       4.426  29.398  53.258  1.00  0.00     0.139 C 
HETATM   34  O   UNL     1       3.295  28.568  52.925  1.00  0.00    -0.384 OA
HETATM   35  C   UNL     1       2.799  29.035  51.667  1.00  0.00     0.168 C 
HETATM   36  C   UNL     1       2.980  30.533  51.710  1.00  0.00     0.029 C 
HETATM   37  C   UNL     1       4.253  30.715  52.506  1.00  0.00     0.035 C 
ENDBRANCH  32  33
ENDBRANCH   6  32
TORSDOF 8
ENDMDL
MODEL 5
REMARK VINA RESULT:     -10.0      1.390      1.937
REMARK  8 active torsions:
REMARK  status: ('A' for Active; 'I' for Inactive)
REMARK       I    between atoms: N_2  and  C_3 
REMARK    1  A    between atoms: N_2  and  C_29 
REMARK    2  A    between atoms: C_3  and  C_4 
REMARK    3  A    between atoms: C_7  and  C_8 
REMARK       I    between atoms: C_8  and  N_9 
REMARK    4  A    between atoms: N_9  and  C_10 
REMARK    5  A    between atoms: N_20  and  C_21 
REMARK    6  A    between atoms: C_21  and  C_22 
REMARK    7  A    between atoms: C_29  and  C_30 
REMARK    8  A    between atoms: C_30  and  C_31 
ROOT
HETATM    1  C   UNL     1       7.996  30.838  58.404  1.00  0.00     0.098 C 
HETATM    2  C   UNL     1       8.196  29.555  57.691  1.00  0.00     0.206 C 
HETATM    3  O   UNL     1       9.204  28.869  57.858  1.00  0.00    -0.286 OA
HETATM    4  C   UNL     1       7.138  29.124  56.730  1.00  0.00     0.098 C 
HETATM    5  C   UNL     1       5.954  29.759  56.808  1.00  0.00     0.111 C 
HETATM    6  N   UNL     1       5.686  30.825  57.662  1.00  0.00    -0.362 N 
HETATM    7  C   UNL     1       6.754  31.351  58.384  1.00  0.00     0.111 C 
ENDROOT
BRANCH   1   8
HETATM    8  C   UNL     1       9.015  31.584  59.177  1.00  0.00     0.258 C 
HETATM    9  N   UNL     1       9.057  31.461  60.566  1.00  0.00    -0.352 N 
HETATM   10  C   UNL     1      10.184  32.089  61.244  1.00  0.00     0.152 C 
HETATM   11  O   UNL     1       9.887  32.191  58.549  1.00  0.00    -0.267 OA
BRANCH   9  12
HETATM   12  C   UNL     1       7.952  31.054  61.453  1.00  0.00     0.131 C 
BRANCH  12  13
HETATM   13  C   UNL     1       8.140  31.326  62.945  1.00  0.00     0.079 C 
BRANCH  13  14
HETATM   14  C   UNL     1       7.163  32.336  63.479  1.00  0.00     0.035 A 
HETATM   15  N   UNL     1       5.901  32.282  62.987  1.00  0.00    -0.266 NA
HETATM   16  C   UNL     1       5.006  33.162  63.486  1.00  0.00     0.117 A 
HETATM   17  C   UNL     1       5.309  34.103  64.455  1.00  0.00     0.019 A 
HETATM   18  C   UNL     1       6.610  34.151  64.939  1.00  0.00     0.003 A 
HETATM   19  C   UNL     1       7.555  33.260  64.443  1.00  0.00     0.027 A 
ENDBRANCH  13  14
ENDBRANCH  12  13
ENDBRANCH   9  12
ENDBRANCH   1   8
BRANCH   4  20
HETATM   20  C   UNL     1       7.349  28.109  55.661  1.00  0.00     0.257 C 
HETATM   21  N   UNL     1       6.831  26.871  55.947  1.00  0.00    -0.352 N 
HETATM   22  H   UNL     1       6.193  26.791  56.740  1.00  0.00     0.163 HD
HETATM   23  O   UNL     1       7.999  28.357  54.650  1.00  0.00    -0.267 OA
BRANCH  21  24
HETATM   24  C   UNL     1       7.046  25.673  55.133  1.00  0.00     0.084 C 
HETATM   25  C   UNL     1       7.031  24.468  56.085  1.00  0.00     0.025 C 
HETATM   26  C   UNL     1       7.336  23.085  55.514  1.00  0.00     0.002 C 
HETATM   27  C   UNL     1       8.505  23.025  54.531  1.00  0.00     0.000 C 
HETATM   28  C   UNL     1       8.090  22.944  53.061  1.00  0.00     0.000 C 
HETATM   29  C   UNL     1       7.443  24.194  52.462  1.00  0.00     0.000 C 
HETATM   30  C   UNL     1       6.050  24.510  53.005  1.00  0.00     0.002 C 
HETATM   31  C   UNL     1       5.990  25.649  54.024  1.00  0.00     0.025 C 
ENDBRANCH  21  24
ENDBRANCH   4  20
BRANCH   6  32
HETATM   32  C   UNL     1       4.317  31.368  57.825  1.00  0.00     0.159 C 
BRANCH  32  33
HETATM   33  C   UNL     1       3.794  32.159  56.615  1.00  0.00     0.139 C 
HETATM   34  O   UNL     1       4.860  32.746  55.842  1.00  0.00    -0.384 OA
HETATM   35  C   UNL     1       4.377  32.867  54.502  1.00  0.00     0.168 C 
HETATM   36  C   UNL     1       3.523  31.642  54.284  1.00  0.00     0.029 C 
HETATM   37  C   UNL     1       2.900  31.397  55.641  1.00  0.00     0.035 C 
ENDBRANCH  32  33
ENDBRANCH   6  32
TORSDOF 8
ENDMDL
MODEL 6
REMARK VINA RESULT:      -9.7      3.542      6.442
REMARK  8 active torsions:
REMARK  status: ('A' for Active; 'I' for Inactive)
REMARK       I    between atoms: N_2  and  C_3 
REMARK    1  A    between atoms: N_2  and  C_29 
REMARK    2  A    between atoms: C_3  and  C_4 
REMARK    3  A    between atoms: C_7  and  C_8 
REMARK       I    between atoms: C_8  and  N_9 
REMARK    4  A    between atoms: N_9  and  C_10 
REMARK    5  A    between atoms: N_20  and  C_21 
REMARK    6  A    between atoms: C_21  and  C_22 
REMARK    7  A    between atoms: C_29  and  C_30 
REMARK    8  A    between atoms: C_30  and  C_31 
ROOT
HETATM    1  C   UNL     1       4.242  28.946  55.199  1.00  0.00     0.098 C 
HETATM    2  C   UNL     1       4.898  27.620  55.272  1.00  0.00     0.206 C 
HETATM    3  O   UNL     1       4.976  26.990  56.326  1.00  0.00    -0.286 OA
HETATM    4  C   UNL     1       5.497  27.074  54.019  1.00  0.00     0.098 C 
HETATM    5  C   UNL     1       5.132  27.665  52.866  1.00  0.00     0.111 C 
HETATM    6  N   UNL     1       4.308  28.783  52.780  1.00  0.00    -0.362 N 
HETATM    7  C   UNL     1       3.948  29.407  53.971  1.00  0.00     0.111 C 
ENDROOT
BRANCH   1   8
HETATM    8  C   UNL     1       3.834  29.791  56.345  1.00  0.00     0.258 C 
HETATM    9  N   UNL     1       4.725  30.729  56.866  1.00  0.00    -0.352 N 
HETATM   10  C   UNL     1       4.202  31.637  57.879  1.00  0.00     0.152 C 
HETATM   11  O   UNL     1       2.659  29.731  56.717  1.00  0.00    -0.267 OA
BRANCH   9  12
HETATM   12  C   UNL     1       6.195  30.710  56.754  1.00  0.00     0.131 C 
BRANCH  12  13
HETATM   13  C   UNL     1       6.960  30.099  57.927  1.00  0.00     0.079 C 
BRANCH  13  14
HETATM   14  C   UNL     1       8.451  30.132  57.729  1.00  0.00     0.035 A 
HETATM   15  N   UNL     1       9.124  31.136  58.341  1.00  0.00    -0.266 NA
HETATM   16  C   UNL     1      10.467  31.156  58.199  1.00  0.00     0.117 A 
HETATM   17  C   UNL     1      11.177  30.219  57.468  1.00  0.00     0.019 A 
HETATM   18  C   UNL     1      10.468  29.204  56.837  1.00  0.00     0.003 A 
HETATM   19  C   UNL     1       9.085  29.159  56.964  1.00  0.00     0.027 A 
ENDBRANCH  13  14
ENDBRANCH  12  13
ENDBRANCH   9  12
ENDBRANCH   1   8
BRANCH   4  20
HETATM   20  C   UNL     1       6.514  25.987  53.988  1.00  0.00     0.257 C 
HETATM   21  N   UNL     1       6.017  24.739  54.272  1.00  0.00    -0.352 N 
HETATM   22  H   UNL     1       5.004  24.618  54.281  1.00  0.00     0.163 HD
HETATM   23  O   UNL     1       7.704  26.218  53.796  1.00  0.00    -0.267 OA
BRANCH  21  24
HETATM   24  C   UNL     1       6.840  23.542  54.459  1.00  0.00     0.084 C 
HETATM   25  C   UNL     1       7.559  23.273  53.129  1.00  0.00     0.025 C 
HETATM   26  C   UNL     1       8.415  22.014  53.006  1.00  0.00     0.002 C 
HETATM   27  C   UNL     1       7.799  20.744  53.591  1.00  0.00     0.000 C 
HETATM   28  C   UNL     1       8.365  20.339  54.954  1.00  0.00     0.000 C 
HETATM   29  C   UNL     1       8.016  21.245  56.137  1.00  0.00     0.000 C 
HETATM   30  C   UNL     1       8.672  22.625  56.094  1.00  0.00     0.002 C 
HETATM   31  C   UNL     1       7.753  23.770  55.668  1.00  0.00     0.025 C 
ENDBRANCH  21  24
ENDBRANCH   4  20
BRANCH   6  32
HETATM   32  C   UNL     1       3.805  29.282  51.478  1.00  0.00     0.159 C 
BRANCH  32  33
HETATM   33  C   UNL     1       4.058  28.341  50.290  1.00  0.00     0.139 C 
HETATM   34  O   UNL     1       2.905  28.218  49.434  1.00  0.00    -0.384 OA
HETATM   35  C   UNL     1       3.395  27.908  48.127  1.00  0.00     0.168 C 
HETATM   36  C   UNL     1       4.676  28.695  47.994  1.00  0.00     0.029 C 
HETATM   37  C   UNL     1       5.247  28.682  49.395  1.00  0.00     0.035 C 
ENDBRANCH  32  33
ENDBRANCH   6  32
TORSDOF 8
ENDMDL
MODEL 7
REMARK VINA RESULT:      -9.6      4.365      9.207
REMARK  8 active torsions:
REMARK  status: ('A' for Active; 'I' for Inactive)
REMARK       I    between atoms: N_2  and  C_3 
REMARK    1  A    between atoms: N_2  and  C_29 
REMARK    2  A    between atoms: C_3  and  C_4 
REMARK    3  A    between atoms: C_7  and  C_8 
REMARK       I    between atoms: C_8  and  N_9 
REMARK    4  A    between atoms: N_9  and  C_10 
REMARK    5  A    between atoms: N_20  and  C_21 
REMARK    6  A    between atoms: C_21  and  C_22 
REMARK    7  A    between atoms: C_29  and  C_30 
REMARK    8  A    between atoms: C_30  and  C_31 
ROOT
HETATM    1  C   UNL     1       4.877  29.150  52.423  1.00  0.00     0.098 C 
HETATM    2  C   UNL     1       5.527  27.820  52.488  1.00  0.00     0.206 C 
HETATM    3  O   UNL     1       6.209  27.384  51.561  1.00  0.00    -0.286 OA
HETATM    4  C   UNL     1       5.306  27.000  53.716  1.00  0.00     0.098 C 
HETATM    5  C   UNL     1       4.802  27.639  54.787  1.00  0.00     0.111 C 
HETATM    6  N   UNL     1       4.408  28.974  54.797  1.00  0.00    -0.362 N 
HETATM    7  C   UNL     1       4.414  29.652  53.581  1.00  0.00     0.111 C 
ENDROOT
BRANCH   1   8
HETATM    8  C   UNL     1       4.730  30.001  51.220  1.00  0.00     0.258 C 
HETATM    9  N   UNL     1       3.477  30.151  50.627  1.00  0.00    -0.352 N 
HETATM   10  C   UNL     1       3.375  31.129  49.552  1.00  0.00     0.152 C 
HETATM   11  O   UNL     1       5.707  30.663  50.858  1.00  0.00    -0.267 OA
BRANCH   9  12
HETATM   12  C   UNL     1       2.331  29.229  50.733  1.00  0.00     0.131 C 
BRANCH  12  13
HETATM   13  C   UNL     1       1.618  28.875  49.428  1.00  0.00     0.079 C 
BRANCH  13  14
HETATM   14  C   UNL     1       2.249  27.710  48.718  1.00  0.00     0.035 A 
HETATM   15  N   UNL     1       3.436  27.271  49.203  1.00  0.00    -0.266 NA
HETATM   16  C   UNL     1       3.994  26.203  48.595  1.00  0.00     0.117 A 
HETATM   17  C   UNL     1       3.427  25.547  47.515  1.00  0.00     0.019 A 
HETATM   18  C   UNL     1       2.216  26.019  47.024  1.00  0.00     0.003 A 
HETATM   19  C   UNL     1       1.617  27.119  47.628  1.00  0.00     0.027 A 
ENDBRANCH  13  14
ENDBRANCH  12  13
ENDBRANCH   9  12
ENDBRANCH   1   8
BRANCH   4  20
HETATM   20  C   UNL     1       5.534  25.531  53.786  1.00  0.00     0.257 C 
HETATM   21  N   UNL     1       6.679  25.167  54.450  1.00  0.00    -0.352 N 
HETATM   22  H   UNL     1       7.162  25.881  54.997  1.00  0.00     0.163 HD
HETATM   23  O   UNL     1       4.788  24.731  53.228  1.00  0.00    -0.267 OA
BRANCH  21  24
HETATM   24  C   UNL     1       7.202  23.801  54.514  1.00  0.00     0.084 C 
HETATM   25  C   UNL     1       8.071  23.588  53.266  1.00  0.00     0.025 C 
HETATM   26  C   UNL     1       8.667  22.204  53.021  1.00  0.00     0.002 C 
HETATM   27  C   UNL     1       7.719  21.030  53.267  1.00  0.00     0.000 C 
HETATM   28  C   UNL     1       7.951  20.300  54.591  1.00  0.00     0.000 C 
HETATM   29  C   UNL     1       7.593  21.063  55.867  1.00  0.00     0.000 C 
HETATM   30  C   UNL     1       8.508  22.248  56.175  1.00  0.00     0.002 C 
HETATM   31  C   UNL     1       7.922  23.625  55.855  1.00  0.00     0.025 C 
ENDBRANCH  21  24
ENDBRANCH   4  20
BRANCH   6  32
HETATM   32  C   UNL     1       4.022  29.665  56.050  1.00  0.00     0.159 C 
BRANCH  32  33
HETATM   33  C   UNL     1       5.051  30.684  56.562  1.00  0.00     0.139 C 
HETATM   34  O   UNL     1       4.665  31.265  57.824  1.00  0.00    -0.384 OA
HETATM   35  C   UNL     1       5.873  31.642  58.490  1.00  0.00     0.168 C 
HETATM   36  C   UNL     1       6.868  30.565  58.132  1.00  0.00     0.029 C 
HETATM   37  C   UNL     1       6.484  30.183  56.719  1.00  0.00     0.035 C 
ENDBRANCH  32  33
ENDBRANCH   6  32
TORSDOF 8
ENDMDL
MODEL 8
REMARK VINA RESULT:      -9.6      2.789      7.042
REMARK  8 active torsions:
REMARK  status: ('A' for Active; 'I' for Inactive)
REMARK       I    between atoms: N_2  and  C_3 
REMARK    1  A    between atoms: N_2  and  C_29 
REMARK    2  A    between atoms: C_3  and  C_4 
REMARK    3  A    between atoms: C_7  and  C_8 
REMARK       I    between atoms: C_8  and  N_9 
REMARK    4  A    between atoms: N_9  and  C_10 
REMARK    5  A    between atoms: N_20  and  C_21 
REMARK    6  A    between atoms: C_21  and  C_22 
REMARK    7  A    between atoms: C_29  and  C_30 
REMARK    8  A    between atoms: C_30  and  C_31 
ROOT
HETATM    1  C   UNL     1       5.111  29.380  56.954  1.00  0.00     0.098 C 
HETATM    2  C   UNL     1       5.211  28.028  56.357  1.00  0.00     0.206 C 
HETATM    3  O   UNL     1       4.382  27.613  55.548  1.00  0.00    -0.286 OA
HETATM    4  C   UNL     1       6.345  27.161  56.792  1.00  0.00     0.098 C 
HETATM    5  C   UNL     1       7.355  27.767  57.443  1.00  0.00     0.111 C 
HETATM    6  N   UNL     1       7.369  29.112  57.799  1.00  0.00    -0.362 N 
HETATM    7  C   UNL     1       6.205  29.844  57.582  1.00  0.00     0.111 C 
ENDROOT
BRANCH   1   8
HETATM    8  C   UNL     1       3.944  30.290  56.885  1.00  0.00     0.258 C 
HETATM    9  N   UNL     1       3.567  30.840  55.660  1.00  0.00    -0.352 N 
HETATM   10  C   UNL     1       2.317  31.589  55.637  1.00  0.00     0.152 C 
HETATM   11  O   UNL     1       3.256  30.425  57.901  1.00  0.00    -0.267 OA
BRANCH   9  12
HETATM   12  C   UNL     1       4.421  31.028  54.474  1.00  0.00     0.131 C 
BRANCH  12  13
HETATM   13  C   UNL     1       3.785  30.716  53.119  1.00  0.00     0.079 C 
BRANCH  13  14
HETATM   14  C   UNL     1       4.374  29.495  52.468  1.00  0.00     0.035 A 
HETATM   15  N   UNL     1       5.549  29.043  52.971  1.00  0.00    -0.266 NA
HETATM   16  C   UNL     1       6.069  27.927  52.417  1.00  0.00     0.117 A 
HETATM   17  C   UNL     1       5.474  27.235  51.376  1.00  0.00     0.019 A 
HETATM   18  C   UNL     1       4.277  27.720  50.865  1.00  0.00     0.003 A 
HETATM   19  C   UNL     1       3.718  28.869  51.413  1.00  0.00     0.027 A 
ENDBRANCH  13  14
ENDBRANCH  12  13
ENDBRANCH   9  12
ENDBRANCH   1   8
BRANCH   4  20
HETATM   20  C   UNL     1       6.376  25.683  56.616  1.00  0.00     0.257 C 
HETATM   21  N   UNL     1       7.527  25.206  56.041  1.00  0.00    -0.352 N 
HETATM   22  H   UNL     1       8.323  25.840  55.965  1.00  0.00     0.163 HD
HETATM   23  O   UNL     1       5.414  24.975  56.900  1.00  0.00    -0.267 OA
BRANCH  21  24
HETATM   24  C   UNL     1       7.731  23.818  55.620  1.00  0.00     0.084 C 
HETATM   25  C   UNL     1       8.541  23.853  54.316  1.00  0.00     0.025 C 
HETATM   26  C   UNL     1       8.814  22.536  53.593  1.00  0.00     0.002 C 
HETATM   27  C   UNL     1       7.627  21.578  53.505  1.00  0.00     0.000 C 
HETATM   28  C   UNL     1       7.678  20.417  54.499  1.00  0.00     0.000 C 
HETATM   29  C   UNL     1       7.488  20.769  55.975  1.00  0.00     0.000 C 
HETATM   30  C   UNL     1       8.642  21.560  56.592  1.00  0.00     0.002 C 
HETATM   31  C   UNL     1       8.382  23.055  56.779  1.00  0.00     0.025 C 
ENDBRANCH  21  24
ENDBRANCH   4  20
BRANCH   6  32
HETATM   32  C   UNL     1       8.579  29.757  58.361  1.00  0.00     0.159 C 
BRANCH  32  33
HETATM   33  C   UNL     1       8.319  30.648  59.586  1.00  0.00     0.139 C 
HETATM   34  O   UNL     1       8.678  29.998  60.822  1.00  0.00    -0.384 OA
HETATM   35  C   UNL     1       9.016  31.033  61.748  1.00  0.00     0.168 C 
HETATM   36  C   UNL     1       9.709  32.086  60.919  1.00  0.00     0.029 C 
HETATM   37  C   UNL     1       8.995  32.016  59.587  1.00  0.00     0.035 C 
ENDBRANCH  32  33
ENDBRANCH   6  32
TORSDOF 8
ENDMDL
MODEL 9
REMARK VINA RESULT:      -9.5      1.690      3.622
REMARK  8 active torsions:
REMARK  status: ('A' for Active; 'I' for Inactive)
REMARK       I    between atoms: N_2  and  C_3 
REMARK    1  A    between atoms: N_2  and  C_29 
REMARK    2  A    between atoms: C_3  and  C_4 
REMARK    3  A    between atoms: C_7  and  C_8 
REMARK       I    between atoms: C_8  and  N_9 
REMARK    4  A    between atoms: N_9  and  C_10 
REMARK    5  A    between atoms: N_20  and  C_21 
REMARK    6  A    between atoms: C_21  and  C_22 
REMARK    7  A    between atoms: C_29  and  C_30 
REMARK    8  A    between atoms: C_30  and  C_31 
ROOT
HETATM    1  C   UNL     1       6.116  31.378  58.211  1.00  0.00     0.098 C 
HETATM    2  C   UNL     1       6.378  30.279  57.252  1.00  0.00     0.206 C 
HETATM    3  O   UNL     1       5.555  29.954  56.396  1.00  0.00    -0.286 OA
HETATM    4  C   UNL     1       7.673  29.548  57.373  1.00  0.00     0.098 C 
HETATM    5  C   UNL     1       8.627  30.128  58.124  1.00  0.00     0.111 C 
HETATM    6  N   UNL     1       8.457  31.307  58.844  1.00  0.00    -0.362 N 
HETATM    7  C   UNL     1       7.174  31.846  58.895  1.00  0.00     0.111 C 
ENDROOT
BRANCH   1   8
HETATM    8  C   UNL     1       4.816  32.044  58.454  1.00  0.00     0.258 C 
HETATM    9  N   UNL     1       4.547  32.602  59.703  1.00  0.00    -0.352 N 
HETATM   10  C   UNL     1       3.322  33.384  59.822  1.00  0.00     0.152 C 
HETATM   11  O   UNL     1       4.060  32.204  57.491  1.00  0.00    -0.267 OA
BRANCH   9  12
HETATM   12  C   UNL     1       5.174  32.240  60.988  1.00  0.00     0.131 C 
BRANCH  12  13
HETATM   13  C   UNL     1       4.270  32.269  62.220  1.00  0.00     0.079 C 
BRANCH  13  14
HETATM   14  C   UNL     1       4.740  33.246  63.262  1.00  0.00     0.035 A 
HETATM   15  N   UNL     1       4.606  32.867  64.557  1.00  0.00    -0.266 NA
HETATM   16  C   UNL     1       5.057  33.721  65.500  1.00  0.00     0.117 A 
HETATM   17  C   UNL     1       5.636  34.946  65.216  1.00  0.00     0.019 A 
HETATM   18  C   UNL     1       5.753  35.323  63.884  1.00  0.00     0.003 A 
HETATM   19  C   UNL     1       5.296  34.466  62.890  1.00  0.00     0.027 A 
ENDBRANCH  13  14
ENDBRANCH  12  13
ENDBRANCH   9  12
ENDBRANCH   1   8
BRANCH   4  20
HETATM   20  C   UNL     1       7.927  28.204  56.786  1.00  0.00     0.257 C 
HETATM   21  N   UNL     1       7.334  27.998  55.565  1.00  0.00    -0.352 N 
HETATM   22  H   UNL     1       6.951  28.809  55.077  1.00  0.00     0.163 HD
HETATM   23  O   UNL     1       8.555  27.339  57.391  1.00  0.00    -0.267 OA
BRANCH  21  24
HETATM   24  C   UNL     1       7.303  26.714  54.864  1.00  0.00     0.084 C 
HETATM   25  C   UNL     1       6.298  25.817  55.602  1.00  0.00     0.025 C 
HETATM   26  C   UNL     1       6.139  24.369  55.143  1.00  0.00     0.002 C 
HETATM   27  C   UNL     1       7.442  23.634  54.830  1.00  0.00     0.000 C 
HETATM   28  C   UNL     1       7.750  23.505  53.338  1.00  0.00     0.000 C 
HETATM   29  C   UNL     1       8.114  24.793  52.598  1.00  0.00     0.000 C 
HETATM   30  C   UNL     1       6.958  25.780  52.438  1.00  0.00     0.002 C 
HETATM   31  C   UNL     1       6.988  26.979  53.388  1.00  0.00     0.025 C 
ENDBRANCH  21  24
ENDBRANCH   4  20
BRANCH   6  32
HETATM   32  C   UNL     1       9.593  31.985  59.511  1.00  0.00     0.159 C 
BRANCH  32  33
HETATM   33  C   UNL     1       9.583  31.892  61.045  1.00  0.00     0.139 C 
HETATM   34  O   UNL     1       8.601  32.764  61.639  1.00  0.00    -0.384 OA
HETATM   35  C   UNL     1       8.225  32.171  62.885  1.00  0.00     0.168 C 
HETATM   36  C   UNL     1       8.237  30.684  62.627  1.00  0.00     0.029 C 
HETATM   37  C   UNL     1       9.369  30.503  61.640  1.00  0.00     0.035 C 
ENDBRANCH  32  33
ENDBRANCH   6  32
TORSDOF 8
ENDMDL
MODEL 10
REMARK VINA RESULT:      -9.4      1.971      4.162
REMARK  8 active torsions:
REMARK  status: ('A' for Active; 'I' for Inactive)
REMARK       I    between atoms: N_2  and  C_3 
REMARK    1  A    between atoms: N_2  and  C_29 
REMARK    2  A    between atoms: C_3  and  C_4 
REMARK    3  A    between atoms: C_7  and  C_8 
REMARK       I    between atoms: C_8  and  N_9 
REMARK    4  A    between atoms: N_9  and  C_10 
REMARK    5  A    between atoms: N_20  and  C_21 
REMARK    6  A    between atoms: C_21  and  C_22 
REMARK    7  A    between atoms: C_29  and  C_30 
REMARK    8  A    between atoms: C_30  and  C_31 
ROOT
HETATM    1  C   UNL     1       5.766  29.568  56.278  1.00  0.00     0.098 C 
HETATM    2  C   UNL     1       5.866  28.160  55.827  1.00  0.00     0.206 C 
HETATM    3  O   UNL     1       5.165  27.719  54.917  1.00  0.00    -0.286 OA
HETATM    4  C   UNL     1       6.833  27.273  56.537  1.00  0.00     0.098 C 
HETATM    5  C   UNL     1       7.753  27.877  57.310  1.00  0.00     0.111 C 
HETATM    6  N   UNL     1       7.809  29.247  57.546  1.00  0.00    -0.362 N 
HETATM    7  C   UNL     1       6.763  30.024  57.056  1.00  0.00     0.111 C 
ENDROOT
BRANCH   1   8
HETATM    8  C   UNL     1       4.705  30.536  55.917  1.00  0.00     0.258 C 
HETATM    9  N   UNL     1       4.105  31.308  56.911  1.00  0.00    -0.352 N 
HETATM   10  C   UNL     1       3.191  32.353  56.467  1.00  0.00     0.152 C 
HETATM   11  O   UNL     1       4.479  30.726  54.718  1.00  0.00    -0.267 OA
BRANCH   9  12
HETATM   12  C   UNL     1       4.032  30.997  58.350  1.00  0.00     0.131 C 
BRANCH  12  13
HETATM   13  C   UNL     1       3.440  32.079  59.253  1.00  0.00     0.079 C 
BRANCH  13  14
HETATM   14  C   UNL     1       4.310  32.385  60.441  1.00  0.00     0.035 A 
HETATM   15  N   UNL     1       3.899  31.900  61.638  1.00  0.00    -0.266 NA
HETATM   16  C   UNL     1       4.691  32.139  62.706  1.00  0.00     0.117 A 
HETATM   17  C   UNL     1       5.879  32.846  62.640  1.00  0.00     0.019 A 
HETATM   18  C   UNL     1       6.278  33.346  61.406  1.00  0.00     0.003 A 
HETATM   19  C   UNL     1       5.483  33.118  60.289  1.00  0.00     0.027 A 
ENDBRANCH  13  14
ENDBRANCH  12  13
ENDBRANCH   9  12
ENDBRANCH   1   8
BRANCH   4  20
HETATM   20  C   UNL     1       6.780  25.785  56.496  1.00  0.00     0.257 C 
HETATM   21  N   UNL     1       7.840  25.199  55.850  1.00  0.00    -0.352 N 
HETATM   22  H   UNL     1       8.649  25.781  55.634  1.00  0.00     0.163 HD
HETATM   23  O   UNL     1       5.824  25.158  56.943  1.00  0.00    -0.267 OA
BRANCH  21  24
HETATM   24  C   UNL     1       7.935  23.771  55.541  1.00  0.00     0.084 C 
HETATM   25  C   UNL     1       8.766  23.639  54.256  1.00  0.00     0.025 C 
HETATM   26  C   UNL     1       8.942  22.252  53.641  1.00  0.00     0.002 C 
HETATM   27  C   UNL     1       7.681  21.390  53.600  1.00  0.00     0.000 C 
HETATM   28  C   UNL     1       7.621  20.309  54.680  1.00  0.00     0.000 C 
HETATM   29  C   UNL     1       7.438  20.789  56.121  1.00  0.00     0.000 C 
HETATM   30  C   UNL     1       8.643  21.529  56.701  1.00  0.00     0.002 C 
HETATM   31  C   UNL     1       8.503  23.050  56.768  1.00  0.00     0.025 C 
ENDBRANCH  21  24
ENDBRANCH   4  20
BRANCH   6  32
HETATM   32  C   UNL     1       8.945  29.869  58.266  1.00  0.00     0.159 C 
BRANCH  32  33
HETATM   33  C   UNL     1       8.551  30.659  59.524  1.00  0.00     0.139 C 
HETATM   34  O   UNL     1       8.756  29.902  60.733  1.00  0.00    -0.384 OA
HETATM   35  C   UNL     1       8.992  30.849  61.777  1.00  0.00     0.168 C 
HETATM   36  C   UNL     1       9.787  31.955  61.126  1.00  0.00     0.029 C 
HETATM   37  C   UNL     1       9.234  32.010  59.719  1.00  0.00     0.035 C 
ENDBRANCH  32  33
ENDBRANCH   6  32
TORSDOF 8
ENDMDL
