MODEL 1
REMARK VINA RESULT:     -10.6      0.000      0.000
REMARK  9 active torsions:
REMARK  status: ('A' for Active; 'I' for Inactive)
REMARK    1  A    between atoms: C_2  and  C_3 
REMARK    2  A    between atoms: C_3  and  C_4 
REMARK    3  A    between atoms: C_3  and  C_39 
REMARK    4  A    between atoms: C_6  and  C_7 
REMARK    5  A    between atoms: C_14  and  C_15 
REMARK    6  A    between atoms: C_18  and  C_19 
REMARK    7  A    between atoms: C_19  and  N_20 
REMARK       I    between atoms: N_20  and  C_21 
REMARK       I    between atoms: C_21  and  N_22 
REMARK    8  A    between atoms: N_22  and  C_23 
REMARK    9  A    between atoms: C_26  and  C_27 
ROOT
HETATM    1  C   UNL     1       4.439  32.306  57.291  1.00  0.00     0.068 C 
HETATM    2  C   UNL     1       3.511  31.061  57.209  1.00  0.00     0.001 C 
HETATM    3  C   UNL     1       4.364  29.790  56.984  1.00  0.00     0.040 C 
HETATM    4  C   UNL     1       5.096  29.861  55.632  1.00  0.00     0.206 C 
HETATM    5  N   UNL     1       4.852  31.259  55.072  1.00  0.00    -0.065 N 
HETATM    6  H   UNL     1       5.447  31.359  54.221  1.00  0.00     0.280 HD
HETATM    7  C   UNL     1       5.297  32.371  56.011  1.00  0.00     0.246 C 
HETATM    8  C   UNL     1       2.582  31.239  55.986  1.00  0.00     0.033 C 
HETATM    9  C   UNL     1       3.403  31.429  54.705  1.00  0.00     0.236 C 
ENDROOT
BRANCH   1  10
HETATM   10  C   UNL     1       5.256  32.323  58.567  1.00  0.00     0.045 A 
HETATM   11  N   UNL     1       4.653  32.745  59.696  1.00  0.00    -0.233 NA
HETATM   12  C   UNL     1       5.414  32.813  60.810  1.00  0.00     0.160 A 
HETATM   13  N   UNL     1       6.731  32.549  60.838  1.00  0.00    -0.233 NA
HETATM   14  C   UNL     1       7.320  32.140  59.696  1.00  0.00     0.043 A 
HETATM   15  C   UNL     1       6.598  31.988  58.528  1.00  0.00     0.055 A 
BRANCH  12  16
HETATM   16  C   UNL     1       4.763  33.200  62.073  1.00  0.00     0.014 A 
HETATM   17  C   UNL     1       3.415  33.586  62.112  1.00  0.00     0.034 A 
HETATM   18  C   UNL     1       2.841  33.944  63.321  1.00  0.00     0.117 A 
HETATM   19  N   UNL     1       3.509  33.948  64.492  1.00  0.00    -0.273 NA
HETATM   20  C   UNL     1       4.807  33.595  64.450  1.00  0.00     0.117 A 
HETATM   21  C   UNL     1       5.464  33.219  63.290  1.00  0.00     0.034 A 
ENDBRANCH  12  16
BRANCH  14  22
HETATM   22  C   UNL     1       8.810  31.856  59.773  1.00  0.00     0.037 C 
BRANCH  22  23
HETATM   23  C   UNL     1       9.228  30.556  59.048  1.00  0.00     0.006 C 
HETATM   24  C   UNL     1      10.204  30.785  57.901  1.00  0.00     0.006 C 
ENDBRANCH  22  23
BRANCH  22  25
HETATM   25  C   UNL     1       9.298  31.822  61.237  1.00  0.00     0.006 C 
HETATM   26  C   UNL     1       9.381  30.412  61.812  1.00  0.00     0.006 C 
ENDBRANCH  22  25
ENDBRANCH  14  22
ENDBRANCH   1  10
BRANCH   4  27
HETATM   27  C   UNL     1       6.595  29.470  55.713  1.00  0.00     0.157 C 
BRANCH  27  28
HETATM   28  N   UNL     1       7.038  28.471  54.737  1.00  0.00    -0.341 N 
HETATM   29  C   UNL     1       7.310  27.171  55.091  1.00  0.00     0.320 C 
HETATM   30  N   UNL     1       7.535  26.369  54.005  1.00  0.00    -0.309 N 
HETATM   31  O   UNL     1       7.384  26.842  56.271  1.00  0.00    -0.247 OA
HETATM   32  H   UNL     1       7.745  26.833  53.133  1.00  0.00     0.170 HD
HETATM   33  H   UNL     1       6.637  28.567  53.812  1.00  0.00     0.164 HD
BRANCH  30  34
HETATM   34  C   UNL     1       7.720  24.969  54.026  1.00  0.00     0.036 A 
HETATM   35  C   UNL     1       7.925  24.238  55.199  1.00  0.00     0.030 A 
HETATM   36  C   UNL     1       8.106  22.849  55.157  1.00  0.00     0.017 A 
HETATM   37  C   UNL     1       8.080  22.173  53.936  1.00  0.00     0.009 A 
HETATM   38  C   UNL     1       7.853  22.901  52.761  1.00  0.00     0.017 A 
HETATM   39  C   UNL     1       7.668  24.289  52.807  1.00  0.00     0.030 A 
BRANCH  37  40
HETATM   40  C   UNL     1       8.286  20.699  53.837  1.00  0.00     0.155 C 
HETATM   41  C   UNL     1       8.565  19.913  55.091  1.00  0.00     0.096 C 
HETATM   42  O   UNL     1       8.226  20.150  52.739  1.00  0.00    -0.293 OA
ENDBRANCH  37  40
ENDBRANCH  30  34
ENDBRANCH  27  28
ENDBRANCH   4  27
TORSDOF 9
ENDMDL
MODEL 2
REMARK VINA RESULT:     -10.1      3.480     10.620
REMARK  9 active torsions:
REMARK  status: ('A' for Active; 'I' for Inactive)
REMARK    1  A    between atoms: C_2  and  C_3 
REMARK    2  A    between atoms: C_3  and  C_4 
REMARK    3  A    between atoms: C_3  and  C_39 
REMARK    4  A    between atoms: C_6  and  C_7 
REMARK    5  A    between atoms: C_14  and  C_15 
REMARK    6  A    between atoms: C_18  and  C_19 
REMARK    7  A    between atoms: C_19  and  N_20 
REMARK       I    between atoms: N_20  and  C_21 
REMARK       I    between atoms: C_21  and  N_22 
REMARK    8  A    between atoms: N_22  and  C_23 
REMARK    9  A    between atoms: C_26  and  C_27 
ROOT
HETATM    1  C   UNL     1       3.930  28.781  55.885  1.00  0.00     0.068 C 
HETATM    2  C   UNL     1       3.889  30.280  55.474  1.00  0.00     0.001 C 
HETATM    3  C   UNL     1       5.288  30.912  55.670  1.00  0.00     0.040 C 
HETATM    4  C   UNL     1       5.688  30.892  57.157  1.00  0.00     0.206 C 
HETATM    5  N   UNL     1       4.621  30.084  57.889  1.00  0.00    -0.065 N 
HETATM    6  H   UNL     1       4.949  29.957  58.870  1.00  0.00     0.280 HD
HETATM    7  C   UNL     1       4.443  28.677  57.335  1.00  0.00     0.246 C 
HETATM    8  C   UNL     1       2.899  31.005  56.414  1.00  0.00     0.033 C 
HETATM    9  C   UNL     1       3.309  30.821  57.880  1.00  0.00     0.236 C 
ENDROOT
BRANCH   1  10
HETATM   10  C   UNL     1       4.723  27.943  54.903  1.00  0.00     0.045 A 
HETATM   11  N   UNL     1       4.369  27.991  53.603  1.00  0.00    -0.233 NA
HETATM   12  C   UNL     1       5.047  27.191  52.752  1.00  0.00     0.160 A 
HETATM   13  N   UNL     1       5.994  26.318  53.133  1.00  0.00    -0.233 NA
HETATM   14  C   UNL     1       6.327  26.276  54.440  1.00  0.00     0.043 A 
HETATM   15  C   UNL     1       5.722  27.105  55.365  1.00  0.00     0.055 A 
BRANCH  12  16
HETATM   16  C   UNL     1       4.729  27.277  51.316  1.00  0.00     0.014 A 
HETATM   17  C   UNL     1       5.021  26.223  50.439  1.00  0.00     0.034 A 
HETATM   18  C   UNL     1       4.707  26.346  49.094  1.00  0.00     0.117 A 
HETATM   19  N   UNL     1       4.127  27.439  48.561  1.00  0.00    -0.273 NA
HETATM   20  C   UNL     1       3.865  28.457  49.401  1.00  0.00     0.117 A 
HETATM   21  C   UNL     1       4.140  28.424  50.759  1.00  0.00     0.034 A 
ENDBRANCH  12  16
BRANCH  14  22
HETATM   22  C   UNL     1       7.400  25.273  54.827  1.00  0.00     0.037 C 
BRANCH  22  23
HETATM   23  C   UNL     1       7.201  23.879  54.188  1.00  0.00     0.006 C 
HETATM   24  C   UNL     1       7.885  23.727  52.835  1.00  0.00     0.006 C 
ENDBRANCH  22  23
BRANCH  22  25
HETATM   25  C   UNL     1       7.511  25.138  56.360  1.00  0.00     0.006 C 
HETATM   26  C   UNL     1       8.139  23.821  56.806  1.00  0.00     0.006 C 
ENDBRANCH  22  25
ENDBRANCH  14  22
ENDBRANCH   1  10
BRANCH   4  27
HETATM   27  C   UNL     1       7.135  30.391  57.406  1.00  0.00     0.157 C 
BRANCH  27  28
HETATM   28  N   UNL     1       7.534  30.302  58.813  1.00  0.00    -0.341 N 
HETATM   29  C   UNL     1       7.256  31.298  59.719  1.00  0.00     0.320 C 
HETATM   30  N   UNL     1       7.558  30.936  61.004  1.00  0.00    -0.309 N 
HETATM   31  O   UNL     1       6.837  32.389  59.346  1.00  0.00    -0.247 OA
HETATM   32  H   UNL     1       8.174  30.144  61.120  1.00  0.00     0.170 HD
HETATM   33  H   UNL     1       7.506  29.370  59.209  1.00  0.00     0.164 HD
BRANCH  30  34
HETATM   34  C   UNL     1       7.280  31.685  62.169  1.00  0.00     0.036 A 
HETATM   35  C   UNL     1       8.269  32.298  62.943  1.00  0.00     0.030 A 
HETATM   36  C   UNL     1       7.933  33.026  64.091  1.00  0.00     0.017 A 
HETATM   37  C   UNL     1       6.597  33.153  64.477  1.00  0.00     0.009 A 
HETATM   38  C   UNL     1       5.603  32.558  63.691  1.00  0.00     0.017 A 
HETATM   39  C   UNL     1       5.942  31.834  62.540  1.00  0.00     0.030 A 
BRANCH  37  40
HETATM   40  C   UNL     1       6.190  33.903  65.701  1.00  0.00     0.155 C 
HETATM   41  C   UNL     1       4.794  34.460  65.789  1.00  0.00     0.096 C 
HETATM   42  O   UNL     1       6.997  34.055  66.615  1.00  0.00    -0.293 OA
ENDBRANCH  37  40
ENDBRANCH  30  34
ENDBRANCH  27  28
ENDBRANCH   4  27
TORSDOF 9
ENDMDL
MODEL 3
REMARK VINA RESULT:      -9.9      1.663      4.196
REMARK  9 active torsions:
REMARK  status: ('A' for Active; 'I' for Inactive)
REMARK    1  A    between atoms: C_2  and  C_3 
REMARK    2  A    between atoms: C_3  and  C_4 
REMARK    3  A    between atoms: C_3  and  C_39 
REMARK    4  A    between atoms: C_6  and  C_7 
REMARK    5  A    between atoms: C_14  and  C_15 
REMARK    6  A    between atoms: C_18  and  C_19 
REMARK    7  A    between atoms: C_19  and  N_20 
REMARK       I    between atoms: N_20  and  C_21 
REMARK       I    between atoms: C_21  and  N_22 
REMARK    8  A    between atoms: N_22  and  C_23 
REMARK    9  A    between atoms: C_26  and  C_27 
ROOT
HETATM    1  C   UNL     1       4.399  32.204  56.899  1.00  0.00     0.068 C 
HETATM    2  C   UNL     1       3.338  31.072  57.012  1.00  0.00     0.001 C 
HETATM    3  C   UNL     1       3.940  29.742  56.501  1.00  0.00     0.040 C 
HETATM    4  C   UNL     1       4.291  29.845  55.005  1.00  0.00     0.206 C 
HETATM    5  N   UNL     1       4.080  31.301  54.603  1.00  0.00    -0.065 N 
HETATM    6  H   UNL     1       4.437  31.407  53.629  1.00  0.00     0.280 HD
HETATM    7  C   UNL     1       4.890  32.282  55.439  1.00  0.00     0.246 C 
HETATM    8  C   UNL     1       2.148  31.443  56.097  1.00  0.00     0.033 C 
HETATM    9  C   UNL     1       2.617  31.650  54.652  1.00  0.00     0.236 C 
ENDROOT
BRANCH   1  10
HETATM   10  C   UNL     1       5.520  32.034  57.904  1.00  0.00     0.045 A 
HETATM   11  N   UNL     1       6.653  31.432  57.490  1.00  0.00    -0.233 NA
HETATM   12  C   UNL     1       7.617  31.233  58.415  1.00  0.00     0.160 A 
HETATM   13  N   UNL     1       7.484  31.538  59.716  1.00  0.00    -0.233 NA
HETATM   14  C   UNL     1       6.339  32.129  60.115  1.00  0.00     0.043 A 
HETATM   15  C   UNL     1       5.329  32.421  59.219  1.00  0.00     0.055 A 
BRANCH  12  16
HETATM   16  C   UNL     1       8.893  30.644  57.973  1.00  0.00     0.014 A 
HETATM   17  C   UNL     1       8.929  29.464  57.216  1.00  0.00     0.034 A 
HETATM   18  C   UNL     1      10.151  28.942  56.822  1.00  0.00     0.117 A 
HETATM   19  N   UNL     1      11.336  29.508  57.125  1.00  0.00    -0.273 NA
HETATM   20  C   UNL     1      11.300  30.630  57.866  1.00  0.00     0.117 A 
HETATM   21  C   UNL     1      10.127  31.226  58.303  1.00  0.00     0.034 A 
ENDBRANCH  12  16
BRANCH  14  22
HETATM   22  C   UNL     1       6.231  32.454  61.595  1.00  0.00     0.037 C 
BRANCH  22  23
HETATM   23  C   UNL     1       7.237  31.674  62.473  1.00  0.00     0.006 C 
HETATM   24  C   UNL     1       8.040  32.563  63.414  1.00  0.00     0.006 C 
ENDBRANCH  22  23
BRANCH  22  25
HETATM   25  C   UNL     1       4.795  32.228  62.113  1.00  0.00     0.006 C 
HETATM   26  C   UNL     1       4.168  33.481  62.716  1.00  0.00     0.006 C 
ENDBRANCH  22  25
ENDBRANCH  14  22
ENDBRANCH   1  10
BRANCH   4  27
HETATM   27  C   UNL     1       5.700  29.295  54.657  1.00  0.00     0.157 C 
BRANCH  27  28
HETATM   28  N   UNL     1       5.716  28.010  53.952  1.00  0.00    -0.341 N 
HETATM   29  C   UNL     1       6.486  26.953  54.373  1.00  0.00     0.320 C 
HETATM   30  N   UNL     1       6.219  25.803  53.681  1.00  0.00    -0.309 N 
HETATM   31  O   UNL     1       7.341  27.102  55.242  1.00  0.00    -0.247 OA
HETATM   32  H   UNL     1       5.727  25.903  52.805  1.00  0.00     0.170 HD
HETATM   33  H   UNL     1       4.832  27.734  53.542  1.00  0.00     0.164 HD
BRANCH  30  34
HETATM   34  C   UNL     1       6.751  24.522  53.953  1.00  0.00     0.036 A 
HETATM   35  C   UNL     1       6.858  23.992  55.242  1.00  0.00     0.030 A 
HETATM   36  C   UNL     1       7.397  22.716  55.450  1.00  0.00     0.017 A 
HETATM   37  C   UNL     1       7.833  21.952  54.367  1.00  0.00     0.009 A 
HETATM   38  C   UNL     1       7.706  22.472  53.073  1.00  0.00     0.017 A 
HETATM   39  C   UNL     1       7.163  23.746  52.867  1.00  0.00     0.030 A 
BRANCH  37  40
HETATM   40  C   UNL     1       8.430  20.595  54.539  1.00  0.00     0.155 C 
HETATM   41  C   UNL     1       8.726  20.095  55.928  1.00  0.00     0.096 C 
HETATM   42  O   UNL     1       8.672  19.909  53.548  1.00  0.00    -0.293 OA
ENDBRANCH  37  40
ENDBRANCH  30  34
ENDBRANCH  27  28
ENDBRANCH   4  27
TORSDOF 9
ENDMDL
MODEL 4
REMARK VINA RESULT:      -9.8      4.494      8.442
REMARK  9 active torsions:
REMARK  status: ('A' for Active; 'I' for Inactive)
REMARK    1  A    between atoms: C_2  and  C_3 
REMARK    2  A    between atoms: C_3  and  C_4 
REMARK    3  A    between atoms: C_3  and  C_39 
REMARK    4  A    between atoms: C_6  and  C_7 
REMARK    5  A    between atoms: C_14  and  C_15 
REMARK    6  A    between atoms: C_18  and  C_19 
REMARK    7  A    between atoms: C_19  and  N_20 
REMARK       I    between atoms: N_20  and  C_21 
REMARK       I    between atoms: C_21  and  N_22 
REMARK    8  A    between atoms: N_22  and  C_23 
REMARK    9  A    between atoms: C_26  and  C_27 
ROOT
HETATM    1  C   UNL     1       3.551  35.814  63.843  1.00  0.00     0.068 C 
HETATM    2  C   UNL     1       4.882  36.109  64.591  1.00  0.00     0.001 C 
HETATM    3  C   UNL     1       5.898  34.975  64.315  1.00  0.00     0.040 C 
HETATM    4  C   UNL     1       5.383  33.638  64.878  1.00  0.00     0.206 C 
HETATM    5  N   UNL     1       3.956  33.882  65.357  1.00  0.00    -0.065 N 
HETATM    6  H   UNL     1       3.556  32.955  65.621  1.00  0.00     0.280 HD
HETATM    7  C   UNL     1       3.038  34.424  64.270  1.00  0.00     0.246 C 
HETATM    8  C   UNL     1       4.581  36.125  66.108  1.00  0.00     0.033 C 
HETATM    9  C   UNL     1       3.954  34.798  66.551  1.00  0.00     0.236 C 
ENDROOT
BRANCH   1  10
HETATM   10  C   UNL     1       3.697  35.968  62.342  1.00  0.00     0.045 A 
HETATM   11  N   UNL     1       3.631  34.855  61.584  1.00  0.00    -0.233 NA
HETATM   12  C   UNL     1       3.825  35.004  60.256  1.00  0.00     0.160 A 
HETATM   13  N   UNL     1       4.139  36.171  59.668  1.00  0.00    -0.233 NA
HETATM   14  C   UNL     1       4.214  37.271  60.444  1.00  0.00     0.043 A 
HETATM   15  C   UNL     1       3.970  37.213  61.802  1.00  0.00     0.055 A 
BRANCH  12  16
HETATM   16  C   UNL     1       3.685  33.817  59.396  1.00  0.00     0.014 A 
HETATM   17  C   UNL     1       3.576  32.529  59.941  1.00  0.00     0.034 A 
HETATM   18  C   UNL     1       3.448  31.438  59.096  1.00  0.00     0.117 A 
HETATM   19  N   UNL     1       3.419  31.535  57.752  1.00  0.00    -0.273 NA
HETATM   20  C   UNL     1       3.541  32.769  57.231  1.00  0.00     0.117 A 
HETATM   21  C   UNL     1       3.672  33.917  57.995  1.00  0.00     0.034 A 
ENDBRANCH  12  16
BRANCH  14  22
HETATM   22  C   UNL     1       4.575  38.567  59.739  1.00  0.00     0.037 C 
BRANCH  22  23
HETATM   23  C   UNL     1       5.356  39.558  60.632  1.00  0.00     0.006 C 
HETATM   24  C   UNL     1       6.831  39.207  60.785  1.00  0.00     0.006 C 
ENDBRANCH  22  23
BRANCH  22  25
HETATM   25  C   UNL     1       3.321  39.257  59.160  1.00  0.00     0.006 C 
HETATM   26  C   UNL     1       3.178  39.081  57.652  1.00  0.00     0.006 C 
ENDBRANCH  22  25
ENDBRANCH  14  22
ENDBRANCH   1  10
BRANCH   4  27
HETATM   27  C   UNL     1       5.519  32.451  63.888  1.00  0.00     0.157 C 
BRANCH  27  28
HETATM   28  N   UNL     1       6.034  32.798  62.560  1.00  0.00    -0.341 N 
HETATM   29  C   UNL     1       6.953  32.015  61.903  1.00  0.00     0.320 C 
HETATM   30  N   UNL     1       7.163  32.424  60.614  1.00  0.00    -0.309 N 
HETATM   31  O   UNL     1       7.527  31.097  62.482  1.00  0.00    -0.247 OA
HETATM   32  H   UNL     1       6.863  33.360  60.380  1.00  0.00     0.170 HD
HETATM   33  H   UNL     1       5.368  33.250  61.945  1.00  0.00     0.164 HD
BRANCH  30  34
HETATM   34  C   UNL     1       7.951  31.762  59.646  1.00  0.00     0.036 A 
HETATM   35  C   UNL     1       7.463  30.740  58.827  1.00  0.00     0.030 A 
HETATM   36  C   UNL     1       8.293  30.118  57.886  1.00  0.00     0.017 A 
HETATM   37  C   UNL     1       9.624  30.516  57.749  1.00  0.00     0.009 A 
HETATM   38  C   UNL     1      10.108  31.556  58.554  1.00  0.00     0.017 A 
HETATM   39  C   UNL     1       9.275  32.179  59.491  1.00  0.00     0.030 A 
BRANCH  37  40
HETATM   40  C   UNL     1      10.552  29.873  56.773  1.00  0.00     0.155 C 
HETATM   41  C   UNL     1      10.009  29.390  55.455  1.00  0.00     0.096 C 
HETATM   42  O   UNL     1      11.740  29.746  57.060  1.00  0.00    -0.293 OA
ENDBRANCH  37  40
ENDBRANCH  30  34
ENDBRANCH  27  28
ENDBRANCH   4  27
TORSDOF 9
ENDMDL
MODEL 5
REMARK VINA RESULT:      -9.7      1.619      4.041
REMARK  9 active torsions:
REMARK  status: ('A' for Active; 'I' for Inactive)
REMARK    1  A    between atoms: C_2  and  C_3 
REMARK    2  A    between atoms: C_3  and  C_4 
REMARK    3  A    between atoms: C_3  and  C_39 
REMARK    4  A    between atoms: C_6  and  C_7 
REMARK    5  A    between atoms: C_14  and  C_15 
REMARK    6  A    between atoms: C_18  and  C_19 
REMARK    7  A    between atoms: C_19  and  N_20 
REMARK       I    between atoms: N_20  and  C_21 
REMARK       I    between atoms: C_21  and  N_22 
REMARK    8  A    between atoms: N_22  and  C_23 
REMARK    9  A    between atoms: C_26  and  C_27 
ROOT
HETATM    1  C   UNL     1       4.357  32.663  56.522  1.00  0.00     0.068 C 
HETATM    2  C   UNL     1       3.019  31.884  56.374  1.00  0.00     0.001 C 
HETATM    3  C   UNL     1       3.170  30.470  56.982  1.00  0.00     0.040 C 
HETATM    4  C   UNL     1       4.220  29.655  56.206  1.00  0.00     0.206 C 
HETATM    5  N   UNL     1       4.872  30.612  55.212  1.00  0.00    -0.065 N 
HETATM    6  H   UNL     1       5.670  30.104  54.772  1.00  0.00     0.280 HD
HETATM    7  C   UNL     1       5.485  31.840  55.869  1.00  0.00     0.246 C 
HETATM    8  C   UNL     1       2.722  31.729  54.865  1.00  0.00     0.033 C 
HETATM    9  C   UNL     1       3.882  31.021  54.155  1.00  0.00     0.236 C 
ENDROOT
BRANCH   1  10
HETATM   10  C   UNL     1       4.640  33.038  57.963  1.00  0.00     0.045 A 
HETATM   11  N   UNL     1       5.632  32.386  58.601  1.00  0.00    -0.233 NA
HETATM   12  C   UNL     1       5.829  32.689  59.903  1.00  0.00     0.160 A 
HETATM   13  N   UNL     1       5.062  33.543  60.600  1.00  0.00    -0.233 NA
HETATM   14  C   UNL     1       4.066  34.178  59.948  1.00  0.00     0.043 A 
HETATM   15  C   UNL     1       3.838  33.967  58.602  1.00  0.00     0.055 A 
BRANCH  12  16
HETATM   16  C   UNL     1       6.953  32.045  60.603  1.00  0.00     0.014 A 
HETATM   17  C   UNL     1       7.185  32.265  61.969  1.00  0.00     0.034 A 
HETATM   18  C   UNL     1       8.255  31.640  62.589  1.00  0.00     0.117 A 
HETATM   19  N   UNL     1       9.110  30.816  61.951  1.00  0.00    -0.273 NA
HETATM   20  C   UNL     1       8.897  30.622  60.637  1.00  0.00     0.117 A 
HETATM   21  C   UNL     1       7.853  31.200  59.934  1.00  0.00     0.034 A 
ENDBRANCH  12  16
BRANCH  14  22
HETATM   22  C   UNL     1       3.222  35.132  60.775  1.00  0.00     0.037 C 
BRANCH  22  23
HETATM   23  C   UNL     1       3.081  34.706  62.255  1.00  0.00     0.006 C 
HETATM   24  C   UNL     1       3.513  35.783  63.242  1.00  0.00     0.006 C 
ENDBRANCH  22  23
BRANCH  22  25
HETATM   25  C   UNL     1       1.825  35.328  60.149  1.00  0.00     0.006 C 
HETATM   26  C   UNL     1       0.699  34.733  60.988  1.00  0.00     0.006 C 
ENDBRANCH  22  25
ENDBRANCH  14  22
ENDBRANCH   1  10
BRANCH   4  27
HETATM   27  C   UNL     1       5.233  28.914  57.118  1.00  0.00     0.157 C 
BRANCH  27  28
HETATM   28  N   UNL     1       6.299  28.194  56.416  1.00  0.00    -0.341 N 
HETATM   29  C   UNL     1       6.330  26.821  56.341  1.00  0.00     0.320 C 
HETATM   30  N   UNL     1       7.307  26.366  55.497  1.00  0.00    -0.309 N 
HETATM   31  O   UNL     1       5.575  26.136  57.023  1.00  0.00    -0.247 OA
HETATM   32  H   UNL     1       8.038  27.019  55.253  1.00  0.00     0.170 HD
HETATM   33  H   UNL     1       6.660  28.657  55.591  1.00  0.00     0.164 HD
BRANCH  30  34
HETATM   34  C   UNL     1       7.517  25.023  55.112  1.00  0.00     0.036 A 
HETATM   35  C   UNL     1       7.096  24.500  53.886  1.00  0.00     0.030 A 
HETATM   36  C   UNL     1       7.331  23.158  53.561  1.00  0.00     0.017 A 
HETATM   37  C   UNL     1       7.997  22.323  54.459  1.00  0.00     0.009 A 
HETATM   38  C   UNL     1       8.440  22.851  55.678  1.00  0.00     0.017 A 
HETATM   39  C   UNL     1       8.208  24.194  55.999  1.00  0.00     0.030 A 
BRANCH  37  40
HETATM   40  C   UNL     1       8.256  20.882  54.165  1.00  0.00     0.155 C 
HETATM   41  C   UNL     1       8.403  20.442  52.733  1.00  0.00     0.096 C 
HETATM   42  O   UNL     1       8.343  20.081  55.093  1.00  0.00    -0.293 OA
ENDBRANCH  37  40
ENDBRANCH  30  34
ENDBRANCH  27  28
ENDBRANCH   4  27
TORSDOF 9
ENDMDL
MODEL 6
REMARK VINA RESULT:      -9.5      4.089     10.640
REMARK  9 active torsions:
REMARK  status: ('A' for Active; 'I' for Inactive)
REMARK    1  A    between atoms: C_2  and  C_3 
REMARK    2  A    between atoms: C_3  and  C_4 
REMARK    3  A    between atoms: C_3  and  C_39 
REMARK    4  A    between atoms: C_6  and  C_7 
REMARK    5  A    between atoms: C_14  and  C_15 
REMARK    6  A    between atoms: C_18  and  C_19 
REMARK    7  A    between atoms: C_19  and  N_20 
REMARK       I    between atoms: N_20  and  C_21 
REMARK       I    between atoms: C_21  and  N_22 
REMARK    8  A    between atoms: N_22  and  C_23 
REMARK    9  A    between atoms: C_26  and  C_27 
ROOT
HETATM    1  C   UNL     1       6.605  25.982  51.893  1.00  0.00     0.068 C 
HETATM    2  C   UNL     1       5.862  24.774  52.531  1.00  0.00     0.001 C 
HETATM    3  C   UNL     1       4.975  25.266  53.699  1.00  0.00     0.040 C 
HETATM    4  C   UNL     1       5.840  25.870  54.820  1.00  0.00     0.206 C 
HETATM    5  N   UNL     1       7.269  25.928  54.290  1.00  0.00    -0.065 N 
HETATM    6  H   UNL     1       7.837  26.453  54.990  1.00  0.00     0.280 HD
HETATM    7  C   UNL     1       7.401  26.714  52.992  1.00  0.00     0.246 C 
HETATM    8  C   UNL     1       6.927  23.813  53.109  1.00  0.00     0.033 C 
HETATM    9  C   UNL     1       7.821  24.539  54.121  1.00  0.00     0.236 C 
ENDROOT
BRANCH   1  10
HETATM   10  C   UNL     1       5.662  26.888  51.127  1.00  0.00     0.045 A 
HETATM   11  N   UNL     1       5.548  28.169  51.534  1.00  0.00    -0.233 NA
HETATM   12  C   UNL     1       4.657  28.944  50.878  1.00  0.00     0.160 A 
HETATM   13  N   UNL     1       3.847  28.499  49.904  1.00  0.00    -0.233 NA
HETATM   14  C   UNL     1       3.966  27.213  49.518  1.00  0.00     0.043 A 
HETATM   15  C   UNL     1       4.896  26.370  50.098  1.00  0.00     0.055 A 
BRANCH  12  16
HETATM   16  C   UNL     1       4.565  30.366  51.254  1.00  0.00     0.014 A 
HETATM   17  C   UNL     1       3.723  30.794  52.290  1.00  0.00     0.034 A 
HETATM   18  C   UNL     1       3.666  32.141  52.611  1.00  0.00     0.117 A 
HETATM   19  N   UNL     1       4.383  33.090  51.977  1.00  0.00    -0.273 NA
HETATM   20  C   UNL     1       5.176  32.679  50.971  1.00  0.00     0.117 A 
HETATM   21  C   UNL     1       5.300  31.355  50.582  1.00  0.00     0.034 A 
ENDBRANCH  12  16
BRANCH  14  22
HETATM   22  C   UNL     1       3.029  26.752  48.415  1.00  0.00     0.037 C 
BRANCH  22  23
HETATM   23  C   UNL     1       3.549  25.520  47.639  1.00  0.00     0.006 C 
HETATM   24  C   UNL     1       2.861  24.218  48.032  1.00  0.00     0.006 C 
ENDBRANCH  22  23
BRANCH  22  25
HETATM   25  C   UNL     1       2.716  27.899  47.432  1.00  0.00     0.006 C 
HETATM   26  C   UNL     1       1.250  27.953  47.015  1.00  0.00     0.006 C 
ENDBRANCH  22  25
ENDBRANCH  14  22
ENDBRANCH   1  10
BRANCH   4  27
HETATM   27  C   UNL     1       5.312  27.230  55.350  1.00  0.00     0.157 C 
BRANCH  27  28
HETATM   28  N   UNL     1       6.332  28.127  55.900  1.00  0.00    -0.341 N 
HETATM   29  C   UNL     1       6.080  28.955  56.968  1.00  0.00     0.320 C 
HETATM   30  N   UNL     1       7.210  29.574  57.429  1.00  0.00    -0.309 N 
HETATM   31  O   UNL     1       4.936  29.121  57.381  1.00  0.00    -0.247 OA
HETATM   32  H   UNL     1       8.008  29.583  56.809  1.00  0.00     0.170 HD
HETATM   33  H   UNL     1       7.279  27.769  55.875  1.00  0.00     0.164 HD
BRANCH  30  34
HETATM   34  C   UNL     1       7.307  30.386  58.581  1.00  0.00     0.036 A 
HETATM   35  C   UNL     1       8.259  30.186  59.585  1.00  0.00     0.030 A 
HETATM   36  C   UNL     1       8.305  31.023  60.706  1.00  0.00     0.017 A 
HETATM   37  C   UNL     1       7.399  32.077  60.835  1.00  0.00     0.009 A 
HETATM   38  C   UNL     1       6.459  32.293  59.819  1.00  0.00     0.017 A 
HETATM   39  C   UNL     1       6.418  31.457  58.696  1.00  0.00     0.030 A 
BRANCH  37  40
HETATM   40  C   UNL     1       7.397  32.985  62.019  1.00  0.00     0.155 C 
HETATM   41  C   UNL     1       8.117  32.559  63.271  1.00  0.00     0.096 C 
HETATM   42  O   UNL     1       6.808  34.062  61.956  1.00  0.00    -0.293 OA
ENDBRANCH  37  40
ENDBRANCH  30  34
ENDBRANCH  27  28
ENDBRANCH   4  27
TORSDOF 9
ENDMDL
MODEL 7
REMARK VINA RESULT:      -9.5      2.195      3.699
REMARK  9 active torsions:
REMARK  status: ('A' for Active; 'I' for Inactive)
REMARK    1  A    between atoms: C_2  and  C_3 
REMARK    2  A    between atoms: C_3  and  C_4 
REMARK    3  A    between atoms: C_3  and  C_39 
REMARK    4  A    between atoms: C_6  and  C_7 
REMARK    5  A    between atoms: C_14  and  C_15 
REMARK    6  A    between atoms: C_18  and  C_19 
REMARK    7  A    between atoms: C_19  and  N_20 
REMARK       I    between atoms: N_20  and  C_21 
REMARK       I    between atoms: C_21  and  N_22 
REMARK    8  A    between atoms: N_22  and  C_23 
REMARK    9  A    between atoms: C_26  and  C_27 
ROOT
HETATM    1  C   UNL     1       4.371  34.295  60.746  1.00  0.00     0.068 C 
HETATM    2  C   UNL     1       3.036  33.497  60.787  1.00  0.00     0.001 C 
HETATM    3  C   UNL     1       3.260  32.078  60.212  1.00  0.00     0.040 C 
HETATM    4  C   UNL     1       3.663  32.152  58.728  1.00  0.00     0.206 C 
HETATM    5  N   UNL     1       3.871  33.627  58.402  1.00  0.00    -0.065 N 
HETATM    6  H   UNL     1       4.267  33.677  57.438  1.00  0.00     0.280 HD
HETATM    7  C   UNL     1       4.899  34.305  59.297  1.00  0.00     0.246 C 
HETATM    8  C   UNL     1       2.017  34.226  59.882  1.00  0.00     0.033 C 
HETATM    9  C   UNL     1       2.561  34.365  58.455  1.00  0.00     0.236 C 
ENDROOT
BRANCH   1  10
HETATM   10  C   UNL     1       5.377  33.772  61.751  1.00  0.00     0.045 A 
HETATM   11  N   UNL     1       5.172  34.055  63.054  1.00  0.00    -0.233 NA
HETATM   12  C   UNL     1       6.111  33.635  63.929  1.00  0.00     0.160 A 
HETATM   13  N   UNL     1       7.249  33.019  63.571  1.00  0.00    -0.233 NA
HETATM   14  C   UNL     1       7.443  32.755  62.263  1.00  0.00     0.043 A 
HETATM   15  C   UNL     1       6.502  33.099  61.312  1.00  0.00     0.055 A 
BRANCH  12  16
HETATM   16  C   UNL     1       5.875  33.866  65.364  1.00  0.00     0.014 A 
HETATM   17  C   UNL     1       6.939  34.063  66.257  1.00  0.00     0.034 A 
HETATM   18  C   UNL     1       6.674  34.275  67.600  1.00  0.00     0.117 A 
HETATM   19  N   UNL     1       5.430  34.307  68.119  1.00  0.00    -0.273 NA
HETATM   20  C   UNL     1       4.412  34.100  67.264  1.00  0.00     0.117 A 
HETATM   21  C   UNL     1       4.580  33.882  65.906  1.00  0.00     0.034 A 
ENDBRANCH  12  16
BRANCH  14  22
HETATM   22  C   UNL     1       8.745  32.059  61.903  1.00  0.00     0.037 C 
BRANCH  22  23
HETATM   23  C   UNL     1       9.312  32.485  60.530  1.00  0.00     0.006 C 
HETATM   24  C   UNL     1       9.130  31.432  59.443  1.00  0.00     0.006 C 
ENDBRANCH  22  23
BRANCH  22  25
HETATM   25  C   UNL     1       8.591  30.524  61.956  1.00  0.00     0.006 C 
HETATM   26  C   UNL     1       9.845  29.810  62.449  1.00  0.00     0.006 C 
ENDBRANCH  22  25
ENDBRANCH  14  22
ENDBRANCH   1  10
BRANCH   4  27
HETATM   27  C   UNL     1       4.873  31.252  58.365  1.00  0.00     0.157 C 
BRANCH  27  28
HETATM   28  N   UNL     1       4.537  29.891  57.936  1.00  0.00    -0.341 N 
HETATM   29  C   UNL     1       5.432  29.093  57.264  1.00  0.00     0.320 C 
HETATM   30  N   UNL     1       4.979  27.810  57.116  1.00  0.00    -0.309 N 
HETATM   31  O   UNL     1       6.480  29.554  56.822  1.00  0.00    -0.247 OA
HETATM   32  H   UNL     1       3.990  27.658  57.251  1.00  0.00     0.170 HD
HETATM   33  H   UNL     1       3.926  29.382  58.563  1.00  0.00     0.164 HD
BRANCH  30  34
HETATM   34  C   UNL     1       5.708  26.724  56.581  1.00  0.00     0.036 A 
HETATM   35  C   UNL     1       5.446  26.166  55.326  1.00  0.00     0.030 A 
HETATM   36  C   UNL     1       6.201  25.088  54.849  1.00  0.00     0.017 A 
HETATM   37  C   UNL     1       7.234  24.555  55.622  1.00  0.00     0.009 A 
HETATM   38  C   UNL     1       7.513  25.127  56.870  1.00  0.00     0.017 A 
HETATM   39  C   UNL     1       6.759  26.208  57.343  1.00  0.00     0.030 A 
BRANCH  37  40
HETATM   40  C   UNL     1       8.055  23.396  55.165  1.00  0.00     0.155 C 
HETATM   41  C   UNL     1       8.040  23.017  53.708  1.00  0.00     0.096 C 
HETATM   42  O   UNL     1       8.727  22.770  55.982  1.00  0.00    -0.293 OA
ENDBRANCH  37  40
ENDBRANCH  30  34
ENDBRANCH  27  28
ENDBRANCH   4  27
TORSDOF 9
ENDMDL
MODEL 8
REMARK VINA RESULT:      -9.5      3.096     10.201
REMARK  9 active torsions:
REMARK  status: ('A' for Active; 'I' for Inactive)
REMARK    1  A    between atoms: C_2  and  C_3 
REMARK    2  A    between atoms: C_3  and  C_4 
REMARK    3  A    between atoms: C_3  and  C_39 
REMARK    4  A    between atoms: C_6  and  C_7 
REMARK    5  A    between atoms: C_14  and  C_15 
REMARK    6  A    between atoms: C_18  and  C_19 
REMARK    7  A    between atoms: C_19  and  N_20 
REMARK       I    between atoms: N_20  and  C_21 
REMARK       I    between atoms: C_21  and  N_22 
REMARK    8  A    between atoms: N_22  and  C_23 
REMARK    9  A    between atoms: C_26  and  C_27 
ROOT
HETATM    1  C   UNL     1       5.571  26.096  52.078  1.00  0.00     0.068 C 
HETATM    2  C   UNL     1       6.199  27.378  51.461  1.00  0.00     0.001 C 
HETATM    3  C   UNL     1       6.097  28.545  52.471  1.00  0.00     0.040 C 
HETATM    4  C   UNL     1       4.624  28.890  52.754  1.00  0.00     0.206 C 
HETATM    5  N   UNL     1       3.781  27.824  52.062  1.00  0.00    -0.065 N 
HETATM    6  H   UNL     1       2.791  27.975  52.354  1.00  0.00     0.280 HD
HETATM    7  C   UNL     1       4.121  26.406  52.501  1.00  0.00     0.246 C 
HETATM    8  C   UNL     1       5.376  27.755  50.207  1.00  0.00     0.033 C 
HETATM    9  C   UNL     1       3.899  27.954  50.568  1.00  0.00     0.236 C 
ENDROOT
BRANCH   1  10
HETATM   10  C   UNL     1       6.419  25.531  53.199  1.00  0.00     0.045 A 
HETATM   11  N   UNL     1       6.765  24.229  53.134  1.00  0.00    -0.233 NA
HETATM   12  C   UNL     1       7.469  23.728  54.173  1.00  0.00     0.160 A 
HETATM   13  N   UNL     1       7.780  24.427  55.277  1.00  0.00    -0.233 NA
HETATM   14  C   UNL     1       7.414  25.724  55.330  1.00  0.00     0.043 A 
HETATM   15  C   UNL     1       6.745  26.327  54.283  1.00  0.00     0.055 A 
BRANCH  12  16
HETATM   16  C   UNL     1       7.923  22.329  54.093  1.00  0.00     0.014 A 
HETATM   17  C   UNL     1       8.027  21.665  52.862  1.00  0.00     0.034 A 
HETATM   18  C   UNL     1       8.457  20.347  52.832  1.00  0.00     0.117 A 
HETATM   19  N   UNL     1       8.790  19.646  53.933  1.00  0.00    -0.273 NA
HETATM   20  C   UNL     1       8.672  20.279  55.114  1.00  0.00     0.117 A 
HETATM   21  C   UNL     1       8.253  21.594  55.242  1.00  0.00     0.034 A 
ENDBRANCH  12  16
BRANCH  14  22
HETATM   22  C   UNL     1       7.784  26.475  56.597  1.00  0.00     0.037 C 
BRANCH  22  23
HETATM   23  C   UNL     1       6.891  26.118  57.808  1.00  0.00     0.006 C 
HETATM   24  C   UNL     1       5.523  25.573  57.415  1.00  0.00     0.006 C 
ENDBRANCH  22  23
BRANCH  22  25
HETATM   25  C   UNL     1       7.771  28.001  56.367  1.00  0.00     0.006 C 
HETATM   26  C   UNL     1       9.095  28.674  56.713  1.00  0.00     0.006 C 
ENDBRANCH  22  25
ENDBRANCH  14  22
ENDBRANCH   1  10
BRANCH   4  27
HETATM   27  C   UNL     1       4.303  29.062  54.263  1.00  0.00     0.157 C 
BRANCH  27  28
HETATM   28  N   UNL     1       4.978  30.182  54.925  1.00  0.00    -0.341 N 
HETATM   29  C   UNL     1       4.932  30.364  56.286  1.00  0.00     0.320 C 
HETATM   30  N   UNL     1       5.769  31.361  56.709  1.00  0.00    -0.309 N 
HETATM   31  O   UNL     1       4.163  29.710  56.984  1.00  0.00    -0.247 OA
HETATM   32  H   UNL     1       6.098  32.007  56.006  1.00  0.00     0.170 HD
HETATM   33  H   UNL     1       5.855  30.465  54.504  1.00  0.00     0.164 HD
BRANCH  30  34
HETATM   34  C   UNL     1       6.041  31.710  58.051  1.00  0.00     0.036 A 
HETATM   35  C   UNL     1       5.226  32.560  58.804  1.00  0.00     0.030 A 
HETATM   36  C   UNL     1       5.548  32.872  60.131  1.00  0.00     0.017 A 
HETATM   37  C   UNL     1       6.691  32.332  60.723  1.00  0.00     0.009 A 
HETATM   38  C   UNL     1       7.496  31.463  59.977  1.00  0.00     0.017 A 
HETATM   39  C   UNL     1       7.170  31.149  58.652  1.00  0.00     0.030 A 
BRANCH  37  40
HETATM   40  C   UNL     1       7.085  32.649  62.127  1.00  0.00     0.155 C 
HETATM   41  C   UNL     1       8.433  32.201  62.628  1.00  0.00     0.096 C 
HETATM   42  O   UNL     1       6.307  33.266  62.851  1.00  0.00    -0.293 OA
ENDBRANCH  37  40
ENDBRANCH  30  34
ENDBRANCH  27  28
ENDBRANCH   4  27
TORSDOF 9
ENDMDL
MODEL 9
REMARK VINA RESULT:      -9.5      2.035      4.257
REMARK  9 active torsions:
REMARK  status: ('A' for Active; 'I' for Inactive)
REMARK    1  A    between atoms: C_2  and  C_3 
REMARK    2  A    between atoms: C_3  and  C_4 
REMARK    3  A    between atoms: C_3  and  C_39 
REMARK    4  A    between atoms: C_6  and  C_7 
REMARK    5  A    between atoms: C_14  and  C_15 
REMARK    6  A    between atoms: C_18  and  C_19 
REMARK    7  A    between atoms: C_19  and  N_20 
REMARK       I    between atoms: N_20  and  C_21 
REMARK       I    between atoms: C_21  and  N_22 
REMARK    8  A    between atoms: N_22  and  C_23 
REMARK    9  A    between atoms: C_26  and  C_27 
ROOT
HETATM    1  C   UNL     1       3.986  33.532  55.573  1.00  0.00     0.068 C 
HETATM    2  C   UNL     1       2.537  32.999  55.378  1.00  0.00     0.001 C 
HETATM    3  C   UNL     1       2.488  31.490  55.716  1.00  0.00     0.040 C 
HETATM    4  C   UNL     1       3.368  30.687  54.741  1.00  0.00     0.206 C 
HETATM    5  N   UNL     1       4.124  31.704  53.891  1.00  0.00    -0.065 N 
HETATM    6  H   UNL     1       4.816  31.174  53.318  1.00  0.00     0.280 HD
HETATM    7  C   UNL     1       4.946  32.687  54.713  1.00  0.00     0.246 C 
HETATM    8  C   UNL     1       2.164  33.170  53.887  1.00  0.00     0.033 C 
HETATM    9  C   UNL     1       3.171  32.441  52.989  1.00  0.00     0.236 C 
ENDROOT
BRANCH   1  10
HETATM   10  C   UNL     1       4.378  33.589  57.035  1.00  0.00     0.045 A 
HETATM   11  N   UNL     1       5.323  32.732  57.469  1.00  0.00    -0.233 NA
HETATM   12  C   UNL     1       5.615  32.755  58.788  1.00  0.00     0.160 A 
HETATM   13  N   UNL     1       4.980  33.527  59.685  1.00  0.00    -0.233 NA
HETATM   14  C   UNL     1       4.029  34.371  59.235  1.00  0.00     0.043 A 
HETATM   15  C   UNL     1       3.713  34.450  57.892  1.00  0.00     0.055 A 
BRANCH  12  16
HETATM   16  C   UNL     1       6.695  31.880  59.276  1.00  0.00     0.014 A 
HETATM   17  C   UNL     1       7.256  32.053  60.549  1.00  0.00     0.034 A 
HETATM   18  C   UNL     1       8.272  31.209  60.969  1.00  0.00     0.117 A 
HETATM   19  N   UNL     1       8.770  30.209  60.215  1.00  0.00    -0.273 NA
HETATM   20  C   UNL     1       8.243  30.057  58.986  1.00  0.00     0.117 A 
HETATM   21  C   UNL     1       7.224  30.850  58.482  1.00  0.00     0.034 A 
ENDBRANCH  12  16
BRANCH  14  22
HETATM   22  C   UNL     1       3.335  35.223  60.283  1.00  0.00     0.037 C 
BRANCH  22  23
HETATM   23  C   UNL     1       1.990  35.816  59.804  1.00  0.00     0.006 C 
HETATM   24  C   UNL     1       2.054  37.308  59.506  1.00  0.00     0.006 C 
ENDBRANCH  22  23
BRANCH  22  25
HETATM   25  C   UNL     1       4.259  36.353  60.785  1.00  0.00     0.006 C 
HETATM   26  C   UNL     1       4.428  36.364  62.301  1.00  0.00     0.006 C 
ENDBRANCH  22  25
ENDBRANCH  14  22
ENDBRANCH   1  10
BRANCH   4  27
HETATM   27  C   UNL     1       4.286  29.650  55.441  1.00  0.00     0.157 C 
BRANCH  27  28
HETATM   28  N   UNL     1       4.219  28.288  54.901  1.00  0.00    -0.341 N 
HETATM   29  C   UNL     1       5.323  27.471  54.837  1.00  0.00     0.320 C 
HETATM   30  N   UNL     1       5.005  26.192  54.467  1.00  0.00    -0.309 N 
HETATM   31  O   UNL     1       6.448  27.914  55.046  1.00  0.00    -0.247 OA
HETATM   32  H   UNL     1       4.103  26.055  54.033  1.00  0.00     0.170 HD
HETATM   33  H   UNL     1       3.355  27.794  55.086  1.00  0.00     0.164 HD
BRANCH  30  34
HETATM   34  C   UNL     1       5.889  25.091  54.426  1.00  0.00     0.036 A 
HETATM   35  C   UNL     1       6.465  24.525  55.567  1.00  0.00     0.030 A 
HETATM   36  C   UNL     1       7.338  23.435  55.463  1.00  0.00     0.017 A 
HETATM   37  C   UNL     1       7.643  22.893  54.213  1.00  0.00     0.009 A 
HETATM   38  C   UNL     1       7.049  23.445  53.071  1.00  0.00     0.017 A 
HETATM   39  C   UNL     1       6.173  24.532  53.177  1.00  0.00     0.030 A 
BRANCH  37  40
HETATM   40  C   UNL     1       8.580  21.743  54.050  1.00  0.00     0.155 C 
HETATM   41  C   UNL     1       8.297  20.712  52.990  1.00  0.00     0.096 C 
HETATM   42  O   UNL     1       9.563  21.655  54.782  1.00  0.00    -0.293 OA
ENDBRANCH  37  40
ENDBRANCH  30  34
ENDBRANCH  27  28
ENDBRANCH   4  27
TORSDOF 9
ENDMDL
MODEL 10
REMARK VINA RESULT:      -9.4      4.593      7.310
REMARK  9 active torsions:
REMARK  status: ('A' for Active; 'I' for Inactive)
REMARK    1  A    between atoms: C_2  and  C_3 
REMARK    2  A    between atoms: C_3  and  C_4 
REMARK    3  A    between atoms: C_3  and  C_39 
REMARK    4  A    between atoms: C_6  and  C_7 
REMARK    5  A    between atoms: C_14  and  C_15 
REMARK    6  A    between atoms: C_18  and  C_19 
REMARK    7  A    between atoms: C_19  and  N_20 
REMARK       I    between atoms: N_20  and  C_21 
REMARK       I    between atoms: C_21  and  N_22 
REMARK    8  A    between atoms: N_22  and  C_23 
REMARK    9  A    between atoms: C_26  and  C_27 
ROOT
HETATM    1  C   UNL     1       6.831  26.630  57.161  1.00  0.00     0.068 C 
HETATM    2  C   UNL     1       7.780  26.280  55.980  1.00  0.00     0.001 C 
HETATM    3  C   UNL     1       7.232  26.897  54.671  1.00  0.00     0.040 C 
HETATM    4  C   UNL     1       5.866  26.283  54.313  1.00  0.00     0.206 C 
HETATM    5  N   UNL     1       5.457  25.403  55.490  1.00  0.00    -0.065 N 
HETATM    6  H   UNL     1       4.479  25.086  55.313  1.00  0.00     0.280 HD
HETATM    7  C   UNL     1       5.407  26.150  56.815  1.00  0.00     0.246 C 
HETATM    8  C   UNL     1       7.790  24.742  55.818  1.00  0.00     0.033 C 
HETATM    9  C   UNL     1       6.370  24.211  55.592  1.00  0.00     0.236 C 
ENDROOT
BRANCH   1  10
HETATM   10  C   UNL     1       6.900  28.099  57.529  1.00  0.00     0.045 A 
HETATM   11  N   UNL     1       5.869  28.888  57.167  1.00  0.00    -0.233 NA
HETATM   12  C   UNL     1       5.976  30.205  57.448  1.00  0.00     0.160 A 
HETATM   13  N   UNL     1       7.062  30.770  58.000  1.00  0.00    -0.233 NA
HETATM   14  C   UNL     1       8.089  29.967  58.343  1.00  0.00     0.043 A 
HETATM   15  C   UNL     1       8.033  28.601  58.144  1.00  0.00     0.055 A 
BRANCH  12  16
HETATM   16  C   UNL     1       4.832  31.078  57.130  1.00  0.00     0.014 A 
HETATM   17  C   UNL     1       3.877  30.710  56.172  1.00  0.00     0.034 A 
HETATM   18  C   UNL     1       2.817  31.561  55.902  1.00  0.00     0.117 A 
HETATM   19  N   UNL     1       2.639  32.749  56.514  1.00  0.00    -0.273 NA
HETATM   20  C   UNL     1       3.567  33.108  57.420  1.00  0.00     0.117 A 
HETATM   21  C   UNL     1       4.658  32.322  57.757  1.00  0.00     0.034 A 
ENDBRANCH  12  16
BRANCH  14  22
HETATM   22  C   UNL     1       9.298  30.648  58.961  1.00  0.00     0.037 C 
BRANCH  22  23
HETATM   23  C   UNL     1       8.934  31.850  59.863  1.00  0.00     0.006 C 
HETATM   24  C   UNL     1       9.709  31.882  61.175  1.00  0.00     0.006 C 
ENDBRANCH  22  23
BRANCH  22  25
HETATM   25  C   UNL     1      10.305  31.089  57.877  1.00  0.00     0.006 C 
HETATM   26  C   UNL     1      11.074  29.926  57.260  1.00  0.00     0.006 C 
ENDBRANCH  22  25
ENDBRANCH  14  22
ENDBRANCH   1  10
BRANCH   4  27
HETATM   27  C   UNL     1       4.796  27.334  53.914  1.00  0.00     0.157 C 
BRANCH  27  28
HETATM   28  N   UNL     1       4.213  27.161  52.581  1.00  0.00    -0.341 N 
HETATM   29  C   UNL     1       4.142  28.191  51.673  1.00  0.00     0.320 C 
HETATM   30  N   UNL     1       3.727  27.772  50.438  1.00  0.00    -0.309 N 
HETATM   31  O   UNL     1       4.384  29.346  52.010  1.00  0.00    -0.247 OA
HETATM   32  H   UNL     1       3.274  26.870  50.393  1.00  0.00     0.170 HD
HETATM   33  H   UNL     1       4.368  26.254  52.158  1.00  0.00     0.164 HD
BRANCH  30  34
HETATM   34  C   UNL     1       3.667  28.559  49.266  1.00  0.00     0.036 A 
HETATM   35  C   UNL     1       4.752  28.737  48.404  1.00  0.00     0.030 A 
HETATM   36  C   UNL     1       4.633  29.532  47.257  1.00  0.00     0.017 A 
HETATM   37  C   UNL     1       3.421  30.157  46.956  1.00  0.00     0.009 A 
HETATM   38  C   UNL     1       2.327  29.962  47.807  1.00  0.00     0.017 A 
HETATM   39  C   UNL     1       2.447  29.163  48.951  1.00  0.00     0.030 A 
BRANCH  37  40
HETATM   40  C   UNL     1       3.250  31.027  45.756  1.00  0.00     0.155 C 
HETATM   41  C   UNL     1       4.473  31.535  45.039  1.00  0.00     0.096 C 
HETATM   42  O   UNL     1       2.119  31.316  45.373  1.00  0.00    -0.293 OA
ENDBRANCH  37  40
ENDBRANCH  30  34
ENDBRANCH  27  28
ENDBRANCH   4  27
TORSDOF 9
ENDMDL
