MODEL 1
REMARK VINA RESULT:     -10.6      0.000      0.000
REMARK  7 active torsions:
REMARK  status: ('A' for Active; 'I' for Inactive)
REMARK    1  A    between atoms: C_4  and  C_5 
REMARK    2  A    between atoms: C_5  and  C_6 
REMARK    3  A    between atoms: C_6  and  C_7 
REMARK    4  A    between atoms: C_7  and  N_8 
REMARK    5  A    between atoms: C_12  and  O_13 
REMARK    6  A    between atoms: C_12  and  C_14 
REMARK    7  A    between atoms: C_19  and  C_20 
REMARK       I    between atoms: C_20  and  N_21 
ROOT
HETATM    1  C   UNL     1       5.926  30.075  57.160  1.00  0.00    -0.023 A 
HETATM    2  C   UNL     1       5.535  28.733  56.944  1.00  0.00     0.024 A 
HETATM    3  C   UNL     1       6.453  27.684  57.145  1.00  0.00     0.001 A 
HETATM    4  C   UNL     1       7.719  27.989  57.620  1.00  0.00     0.086 A 
HETATM    5  O   UNL     1       8.479  26.863  57.712  1.00  0.00    -0.304 OA
HETATM    6  C   UNL     1       7.704  25.814  57.286  1.00  0.00     0.144 A 
HETATM    7  C   UNL     1       6.435  26.277  56.984  1.00  0.00     0.057 A 
HETATM    8  C   UNL     1       8.124  29.275  57.952  1.00  0.00     0.039 A 
HETATM    9  C   UNL     1       7.199  30.307  57.723  1.00  0.00     0.013 A 
ENDROOT
BRANCH   1  10
HETATM   10  C   UNL     1       4.975  31.234  56.814  1.00  0.00     0.088 C 
HETATM   11  C   UNL     1       5.392  32.596  57.402  1.00  0.00     0.071 C 
HETATM   12  C   UNL     1       5.351  32.594  58.920  1.00  0.00     0.238 C 
HETATM   13  N   UNL     1       3.981  32.219  59.437  1.00  0.00    -0.071 N 
HETATM   14  H   UNL     1       3.344  33.005  59.231  1.00  0.00     0.279 HD
HETATM   15  C   UNL     1       3.389  30.988  58.776  1.00  0.00     0.238 C 
HETATM   16  C   UNL     1       3.515  31.040  57.265  1.00  0.00     0.071 C 
BRANCH  13  17
HETATM   17  C   UNL     1       3.960  32.017  60.952  1.00  0.00     0.235 C 
BRANCH  17  18
HETATM   18  C   UNL     1       5.030  32.841  61.665  1.00  0.00     0.038 C 
BRANCH  18  19
HETATM   19  C   UNL     1       5.761  32.011  62.743  1.00  0.00     0.040 C 
HETATM   20  C   UNL     1       7.085  31.474  62.198  1.00  0.00     0.017 C 
BRANCH  19  21
HETATM   21  C   UNL     1       5.993  32.777  64.003  1.00  0.00     0.057 A 
HETATM   22  O   UNL     1       4.902  33.032  64.780  1.00  0.00    -0.319 OA
HETATM   23  C   UNL     1       5.336  33.753  65.852  1.00  0.00     0.049 A 
HETATM   24  C   UNL     1       4.310  34.190  66.822  1.00  0.00     0.076 C 
HETATM   25  C   UNL     1       6.698  33.939  65.779  1.00  0.00     0.035 A 
HETATM   26  C   UNL     1       7.124  33.308  64.586  1.00  0.00     0.035 A 
ENDBRANCH  19  21
ENDBRANCH  18  19
ENDBRANCH  17  18
ENDBRANCH  13  17
BRANCH  10  27
HETATM   27  O   UNL     1       4.951  31.385  55.396  1.00  0.00    -0.385 OA
HETATM   28  H   UNL     1       4.621  30.569  54.976  1.00  0.00     0.211 HD
ENDBRANCH  10  27
ENDBRANCH   1  10
BRANCH   6  29
HETATM   29  C   UNL     1       8.213  24.454  57.275  1.00  0.00     0.277 C 
HETATM   30  N   UNL     1       7.767  23.534  56.303  1.00  0.00    -0.345 N 
HETATM   31  C   UNL     1       8.397  22.211  56.279  1.00  0.00     0.154 C 
HETATM   32  C   UNL     1       6.702  23.789  55.333  1.00  0.00     0.128 C 
HETATM   33  C   UNL     1       9.087  21.878  54.945  1.00  0.00     0.254 C 
HETATM   34  N   UNL     1       8.055  21.650  53.845  1.00  0.00    -0.073 N 
HETATM   35  H   UNL     1       7.221  21.243  54.289  1.00  0.00     0.279 HD
HETATM   36  C   UNL     1       8.524  20.589  52.873  1.00  0.00     0.269 C 
HETATM   37  C   UNL     1       7.616  22.887  53.100  1.00  0.00     0.236 C 
HETATM   38  C   UNL     1       7.295  24.100  53.968  1.00  0.00     0.048 C 
HETATM   39  O   UNL     1       9.021  24.088  58.129  1.00  0.00    -0.265 OA
ENDBRANCH   6  29
TORSDOF 7
ENDMDL
MODEL 2
REMARK VINA RESULT:     -10.4      5.366     10.347
REMARK  7 active torsions:
REMARK  status: ('A' for Active; 'I' for Inactive)
REMARK    1  A    between atoms: C_4  and  C_5 
REMARK    2  A    between atoms: C_5  and  C_6 
REMARK    3  A    between atoms: C_6  and  C_7 
REMARK    4  A    between atoms: C_7  and  N_8 
REMARK    5  A    between atoms: C_12  and  O_13 
REMARK    6  A    between atoms: C_12  and  C_14 
REMARK    7  A    between atoms: C_19  and  C_20 
REMARK       I    between atoms: C_20  and  N_21 
ROOT
HETATM    1  C   UNL     1       5.874  27.680  55.524  1.00  0.00    -0.023 A 
HETATM    2  C   UNL     1       4.664  27.822  54.805  1.00  0.00     0.024 A 
HETATM    3  C   UNL     1       4.682  28.189  53.446  1.00  0.00     0.001 A 
HETATM    4  C   UNL     1       5.907  28.343  52.815  1.00  0.00     0.086 A 
HETATM    5  O   UNL     1       5.732  28.739  51.524  1.00  0.00    -0.304 OA
HETATM    6  C   UNL     1       4.380  28.851  51.313  1.00  0.00     0.144 A 
HETATM    7  C   UNL     1       3.706  28.466  52.459  1.00  0.00     0.057 A 
HETATM    8  C   UNL     1       7.125  28.113  53.438  1.00  0.00     0.039 A 
HETATM    9  C   UNL     1       7.082  27.768  54.799  1.00  0.00     0.013 A 
ENDROOT
BRANCH   1  10
HETATM   10  C   UNL     1       5.861  27.411  57.038  1.00  0.00     0.088 C 
HETATM   11  C   UNL     1       7.229  27.582  57.726  1.00  0.00     0.071 C 
HETATM   12  C   UNL     1       8.242  26.564  57.233  1.00  0.00     0.238 C 
HETATM   13  N   UNL     1       7.749  25.149  57.433  1.00  0.00    -0.071 N 
HETATM   14  H   UNL     1       7.763  24.954  58.447  1.00  0.00     0.279 HD
HETATM   15  C   UNL     1       6.325  24.920  56.960  1.00  0.00     0.238 C 
HETATM   16  C   UNL     1       5.385  26.007  57.450  1.00  0.00     0.071 C 
BRANCH  13  17
HETATM   17  C   UNL     1       8.655  24.112  56.770  1.00  0.00     0.235 C 
BRANCH  17  18
HETATM   18  C   UNL     1       7.864  22.980  56.116  1.00  0.00     0.038 C 
BRANCH  18  19
HETATM   19  C   UNL     1       8.363  22.693  54.684  1.00  0.00     0.040 C 
HETATM   20  C   UNL     1       8.123  21.228  54.318  1.00  0.00     0.017 C 
BRANCH  19  21
HETATM   21  C   UNL     1       7.741  23.589  53.665  1.00  0.00     0.057 A 
HETATM   22  O   UNL     1       6.386  23.731  53.711  1.00  0.00    -0.319 OA
HETATM   23  C   UNL     1       6.036  24.562  52.689  1.00  0.00     0.049 A 
HETATM   24  C   UNL     1       4.594  24.830  52.510  1.00  0.00     0.076 C 
HETATM   25  C   UNL     1       7.160  24.974  52.007  1.00  0.00     0.035 A 
HETATM   26  C   UNL     1       8.261  24.347  52.637  1.00  0.00     0.035 A 
ENDBRANCH  19  21
ENDBRANCH  18  19
ENDBRANCH  17  18
ENDBRANCH  13  17
BRANCH  10  27
HETATM   27  O   UNL     1       4.971  28.344  57.650  1.00  0.00    -0.385 OA
HETATM   28  H   UNL     1       4.933  29.165  57.126  1.00  0.00     0.211 HD
ENDBRANCH  10  27
ENDBRANCH   1  10
BRANCH   6  29
HETATM   29  C   UNL     1       3.847  29.244  50.020  1.00  0.00     0.277 C 
HETATM   30  N   UNL     1       3.993  30.569  49.561  1.00  0.00    -0.345 N 
HETATM   31  C   UNL     1       3.527  30.875  48.205  1.00  0.00     0.154 C 
HETATM   32  C   UNL     1       4.549  31.672  50.345  1.00  0.00     0.128 C 
HETATM   33  C   UNL     1       4.632  31.407  47.277  1.00  0.00     0.254 C 
HETATM   34  N   UNL     1       5.050  32.816  47.688  1.00  0.00    -0.073 N 
HETATM   35  H   UNL     1       4.218  33.279  48.076  1.00  0.00     0.279 HD
HETATM   36  C   UNL     1       5.419  33.647  46.478  1.00  0.00     0.269 C 
HETATM   37  C   UNL     1       6.141  32.891  48.728  1.00  0.00     0.236 C 
HETATM   38  C   UNL     1       5.981  31.952  49.920  1.00  0.00     0.048 C 
HETATM   39  O   UNL     1       3.242  28.425  49.326  1.00  0.00    -0.265 OA
ENDBRANCH   6  29
TORSDOF 7
ENDMDL
MODEL 3
REMARK VINA RESULT:     -10.4      1.553      2.518
REMARK  7 active torsions:
REMARK  status: ('A' for Active; 'I' for Inactive)
REMARK    1  A    between atoms: C_4  and  C_5 
REMARK    2  A    between atoms: C_5  and  C_6 
REMARK    3  A    between atoms: C_6  and  C_7 
REMARK    4  A    between atoms: C_7  and  N_8 
REMARK    5  A    between atoms: C_12  and  O_13 
REMARK    6  A    between atoms: C_12  and  C_14 
REMARK    7  A    between atoms: C_19  and  C_20 
REMARK       I    between atoms: C_20  and  N_21 
ROOT
HETATM    1  C   UNL     1       5.759  29.976  56.921  1.00  0.00    -0.023 A 
HETATM    2  C   UNL     1       5.408  28.609  56.816  1.00  0.00     0.024 A 
HETATM    3  C   UNL     1       6.377  27.608  57.027  1.00  0.00     0.001 A 
HETATM    4  C   UNL     1       7.657  27.988  57.400  1.00  0.00     0.086 A 
HETATM    5  O   UNL     1       8.463  26.898  57.516  1.00  0.00    -0.304 OA
HETATM    6  C   UNL     1       7.705  25.797  57.208  1.00  0.00     0.144 A 
HETATM    7  C   UNL     1       6.403  26.194  56.957  1.00  0.00     0.057 A 
HETATM    8  C   UNL     1       8.031  29.307  57.623  1.00  0.00     0.039 A 
HETATM    9  C   UNL     1       7.054  30.288  57.387  1.00  0.00     0.013 A 
ENDROOT
BRANCH   1  10
HETATM   10  C   UNL     1       4.745  31.076  56.563  1.00  0.00     0.088 C 
HETATM   11  C   UNL     1       5.217  32.505  56.888  1.00  0.00     0.071 C 
HETATM   12  C   UNL     1       5.399  32.717  58.380  1.00  0.00     0.238 C 
HETATM   13  N   UNL     1       4.127  32.419  59.142  1.00  0.00    -0.071 N 
HETATM   14  H   UNL     1       3.451  33.169  58.925  1.00  0.00     0.279 HD
HETATM   15  C   UNL     1       3.469  31.108  58.753  1.00  0.00     0.238 C 
HETATM   16  C   UNL     1       3.371  30.948  57.247  1.00  0.00     0.071 C 
BRANCH  13  17
HETATM   17  C   UNL     1       4.332  32.431  60.656  1.00  0.00     0.235 C 
BRANCH  17  18
HETATM   18  C   UNL     1       5.470  33.356  61.083  1.00  0.00     0.038 C 
BRANCH  18  19
HETATM   19  C   UNL     1       6.251  32.779  62.283  1.00  0.00     0.040 C 
HETATM   20  C   UNL     1       5.387  31.782  63.055  1.00  0.00     0.017 C 
BRANCH  19  21
HETATM   21  C   UNL     1       7.541  32.142  61.881  1.00  0.00     0.057 A 
HETATM   22  O   UNL     1       8.043  32.482  60.660  1.00  0.00    -0.319 OA
HETATM   23  C   UNL     1       9.196  31.776  60.491  1.00  0.00     0.049 A 
HETATM   24  C   UNL     1       9.903  31.949  59.205  1.00  0.00     0.076 C 
HETATM   25  C   UNL     1       9.447  31.006  61.606  1.00  0.00     0.035 A 
HETATM   26  C   UNL     1       8.379  31.243  62.504  1.00  0.00     0.035 A 
ENDBRANCH  19  21
ENDBRANCH  18  19
ENDBRANCH  17  18
ENDBRANCH  13  17
BRANCH  10  27
HETATM   27  O   UNL     1       4.510  31.026  55.157  1.00  0.00    -0.385 OA
HETATM   28  H   UNL     1       4.140  31.873  54.847  1.00  0.00     0.211 HD
ENDBRANCH  10  27
ENDBRANCH   1  10
BRANCH   6  29
HETATM   29  C   UNL     1       8.265  24.457  57.251  1.00  0.00     0.277 C 
HETATM   30  N   UNL     1       7.862  23.486  56.312  1.00  0.00    -0.345 N 
HETATM   31  C   UNL     1       8.541  22.186  56.342  1.00  0.00     0.154 C 
HETATM   32  C   UNL     1       6.796  23.663  55.326  1.00  0.00     0.128 C 
HETATM   33  C   UNL     1       9.254  21.830  55.027  1.00  0.00     0.254 C 
HETATM   34  N   UNL     1       8.240  21.522  53.930  1.00  0.00    -0.073 N 
HETATM   35  H   UNL     1       7.419  21.101  54.383  1.00  0.00     0.279 HD
HETATM   36  C   UNL     1       8.757  20.444  53.001  1.00  0.00     0.269 C 
HETATM   37  C   UNL     1       7.762  22.713  53.135  1.00  0.00     0.236 C 
HETATM   38  C   UNL     1       7.388  23.945  53.954  1.00  0.00     0.048 C 
HETATM   39  O   UNL     1       9.079  24.155  58.124  1.00  0.00    -0.265 OA
ENDBRANCH   6  29
TORSDOF 7
ENDMDL
MODEL 4
REMARK VINA RESULT:     -10.4      4.707      8.892
REMARK  7 active torsions:
REMARK  status: ('A' for Active; 'I' for Inactive)
REMARK    1  A    between atoms: C_4  and  C_5 
REMARK    2  A    between atoms: C_5  and  C_6 
REMARK    3  A    between atoms: C_6  and  C_7 
REMARK    4  A    between atoms: C_7  and  N_8 
REMARK    5  A    between atoms: C_12  and  O_13 
REMARK    6  A    between atoms: C_12  and  C_14 
REMARK    7  A    between atoms: C_19  and  C_20 
REMARK       I    between atoms: C_20  and  N_21 
ROOT
HETATM    1  C   UNL     1       7.520  23.277  53.612  1.00  0.00    -0.023 A 
HETATM    2  C   UNL     1       6.224  23.835  53.726  1.00  0.00     0.024 A 
HETATM    3  C   UNL     1       5.856  24.943  52.939  1.00  0.00     0.001 A 
HETATM    4  C   UNL     1       6.762  25.430  52.010  1.00  0.00     0.086 A 
HETATM    5  O   UNL     1       6.254  26.523  51.376  1.00  0.00    -0.304 OA
HETATM    6  C   UNL     1       5.008  26.754  51.901  1.00  0.00     0.144 A 
HETATM    7  C   UNL     1       4.710  25.767  52.825  1.00  0.00     0.057 A 
HETATM    8  C   UNL     1       8.006  24.859  51.778  1.00  0.00     0.039 A 
HETATM    9  C   UNL     1       8.359  23.768  52.590  1.00  0.00     0.013 A 
ENDROOT
BRANCH   1  10
HETATM   10  C   UNL     1       7.977  22.155  54.561  1.00  0.00     0.088 C 
HETATM   11  C   UNL     1       7.135  22.026  55.844  1.00  0.00     0.071 C 
HETATM   12  C   UNL     1       7.256  23.255  56.727  1.00  0.00     0.238 C 
HETATM   13  N   UNL     1       8.696  23.536  57.093  1.00  0.00    -0.071 N 
HETATM   14  H   UNL     1       8.999  22.800  57.750  1.00  0.00     0.279 HD
HETATM   15  C   UNL     1       9.650  23.495  55.914  1.00  0.00     0.238 C 
HETATM   16  C   UNL     1       9.432  22.264  55.052  1.00  0.00     0.071 C 
BRANCH  13  17
HETATM   17  C   UNL     1       8.869  24.873  57.813  1.00  0.00     0.235 C 
BRANCH  17  18
HETATM   18  C   UNL     1       7.678  25.807  57.603  1.00  0.00     0.038 C 
BRANCH  18  19
HETATM   19  C   UNL     1       7.969  26.860  56.512  1.00  0.00     0.040 C 
HETATM   20  C   UNL     1       6.699  27.174  55.720  1.00  0.00     0.017 C 
BRANCH  19  21
HETATM   21  C   UNL     1       8.557  28.116  57.065  1.00  0.00     0.057 A 
HETATM   22  O   UNL     1       8.034  28.582  58.234  1.00  0.00    -0.319 OA
HETATM   23  C   UNL     1       8.695  29.735  58.537  1.00  0.00     0.049 A 
HETATM   24  C   UNL     1       8.263  30.453  59.754  1.00  0.00     0.076 C 
HETATM   25  C   UNL     1       9.654  29.995  57.583  1.00  0.00     0.035 A 
HETATM   26  C   UNL     1       9.567  28.950  56.632  1.00  0.00     0.035 A 
ENDBRANCH  19  21
ENDBRANCH  18  19
ENDBRANCH  17  18
ENDBRANCH  13  17
BRANCH  10  27
HETATM   27  O   UNL     1       7.869  20.912  53.868  1.00  0.00    -0.385 OA
HETATM   28  H   UNL     1       8.430  20.239  54.295  1.00  0.00     0.211 HD
ENDBRANCH  10  27
ENDBRANCH   1  10
BRANCH   6  29
HETATM   29  C   UNL     1       4.179  27.849  51.426  1.00  0.00     0.277 C 
HETATM   30  N   UNL     1       3.868  27.965  50.056  1.00  0.00    -0.345 N 
HETATM   31  C   UNL     1       2.942  29.029  49.655  1.00  0.00     0.154 C 
HETATM   32  C   UNL     1       4.420  27.122  48.995  1.00  0.00     0.128 C 
HETATM   33  C   UNL     1       1.672  28.513  48.956  1.00  0.00     0.254 C 
HETATM   34  N   UNL     1       2.002  27.976  47.567  1.00  0.00    -0.073 N 
HETATM   35  H   UNL     1       2.790  28.529  47.205  1.00  0.00     0.279 HD
HETATM   36  C   UNL     1       0.870  28.246  46.599  1.00  0.00     0.269 C 
HETATM   37  C   UNL     1       2.402  26.521  47.513  1.00  0.00     0.236 C 
HETATM   38  C   UNL     1       3.405  26.073  48.571  1.00  0.00     0.048 C 
HETATM   39  O   UNL     1       3.762  28.697  52.216  1.00  0.00    -0.265 OA
ENDBRANCH   6  29
TORSDOF 7
ENDMDL
MODEL 5
REMARK VINA RESULT:     -10.3      5.601     10.318
REMARK  7 active torsions:
REMARK  status: ('A' for Active; 'I' for Inactive)
REMARK    1  A    between atoms: C_4  and  C_5 
REMARK    2  A    between atoms: C_5  and  C_6 
REMARK    3  A    between atoms: C_6  and  C_7 
REMARK    4  A    between atoms: C_7  and  N_8 
REMARK    5  A    between atoms: C_12  and  O_13 
REMARK    6  A    between atoms: C_12  and  C_14 
REMARK    7  A    between atoms: C_19  and  C_20 
REMARK       I    between atoms: C_20  and  N_21 
ROOT
HETATM    1  C   UNL     1       5.902  27.485  55.421  1.00  0.00    -0.023 A 
HETATM    2  C   UNL     1       4.762  27.990  54.751  1.00  0.00     0.024 A 
HETATM    3  C   UNL     1       4.888  28.579  53.478  1.00  0.00     0.001 A 
HETATM    4  C   UNL     1       6.134  28.594  52.872  1.00  0.00     0.086 A 
HETATM    5  O   UNL     1       6.074  29.238  51.673  1.00  0.00    -0.304 OA
HETATM    6  C   UNL     1       4.778  29.653  51.500  1.00  0.00     0.144 A 
HETATM    7  C   UNL     1       4.011  29.215  52.566  1.00  0.00     0.057 A 
HETATM    8  C   UNL     1       7.267  28.019  53.432  1.00  0.00     0.039 A 
HETATM    9  C   UNL     1       7.121  27.456  54.711  1.00  0.00     0.013 A 
ENDROOT
BRANCH   1  10
HETATM   10  C   UNL     1       5.797  26.963  56.864  1.00  0.00     0.088 C 
HETATM   11  C   UNL     1       7.114  27.030  57.661  1.00  0.00     0.071 C 
HETATM   12  C   UNL     1       8.179  26.123  57.072  1.00  0.00     0.238 C 
HETATM   13  N   UNL     1       7.707  24.689  56.997  1.00  0.00    -0.071 N 
HETATM   14  H   UNL     1       7.660  24.324  57.962  1.00  0.00     0.279 HD
HETATM   15  C   UNL     1       6.322  24.527  56.398  1.00  0.00     0.238 C 
HETATM   16  C   UNL     1       5.327  25.503  56.999  1.00  0.00     0.071 C 
BRANCH  13  17
HETATM   17  C   UNL     1       8.677  23.790  56.231  1.00  0.00     0.235 C 
BRANCH  17  18
HETATM   18  C   UNL     1       7.973  22.612  55.558  1.00  0.00     0.038 C 
BRANCH  18  19
HETATM   19  C   UNL     1       8.361  22.495  54.068  1.00  0.00     0.040 C 
HETATM   20  C   UNL     1       8.043  21.096  53.541  1.00  0.00     0.017 C 
BRANCH  19  21
HETATM   21  C   UNL     1       7.705  23.531  53.217  1.00  0.00     0.057 A 
HETATM   22  O   UNL     1       6.366  23.717  53.393  1.00  0.00    -0.319 OA
HETATM   23  C   UNL     1       5.977  24.678  52.509  1.00  0.00     0.049 A 
HETATM   24  C   UNL     1       4.539  25.020  52.484  1.00  0.00     0.076 C 
HETATM   25  C   UNL     1       7.061  25.125  51.788  1.00  0.00     0.035 A 
HETATM   26  C   UNL     1       8.178  24.386  52.245  1.00  0.00     0.035 A 
ENDBRANCH  19  21
ENDBRANCH  18  19
ENDBRANCH  17  18
ENDBRANCH  13  17
BRANCH  10  27
HETATM   27  O   UNL     1       4.848  27.767  57.562  1.00  0.00    -0.385 OA
HETATM   28  H   UNL     1       3.961  27.368  57.504  1.00  0.00     0.211 HD
ENDBRANCH  10  27
ENDBRANCH   1  10
BRANCH   6  29
HETATM   29  C   UNL     1       4.366  30.365  50.303  1.00  0.00     0.277 C 
HETATM   30  N   UNL     1       3.805  29.665  49.215  1.00  0.00    -0.345 N 
HETATM   31  C   UNL     1       3.313  30.451  48.080  1.00  0.00     0.154 C 
HETATM   32  C   UNL     1       3.702  28.209  49.118  1.00  0.00     0.128 C 
HETATM   33  C   UNL     1       1.815  30.251  47.792  1.00  0.00     0.254 C 
HETATM   34  N   UNL     1       1.557  28.860  47.222  1.00  0.00    -0.073 N 
HETATM   35  H   UNL     1       2.386  28.595  46.676  1.00  0.00     0.279 HD
HETATM   36  C   UNL     1       0.429  28.888  46.212  1.00  0.00     0.269 C 
HETATM   37  C   UNL     1       1.318  27.775  48.244  1.00  0.00     0.236 C 
HETATM   38  C   UNL     1       2.283  27.758  49.426  1.00  0.00     0.048 C 
HETATM   39  O   UNL     1       4.526  31.583  50.221  1.00  0.00    -0.265 OA
ENDBRANCH   6  29
TORSDOF 7
ENDMDL
MODEL 6
REMARK VINA RESULT:     -10.2      2.697      5.560
REMARK  7 active torsions:
REMARK  status: ('A' for Active; 'I' for Inactive)
REMARK    1  A    between atoms: C_4  and  C_5 
REMARK    2  A    between atoms: C_5  and  C_6 
REMARK    3  A    between atoms: C_6  and  C_7 
REMARK    4  A    between atoms: C_7  and  N_8 
REMARK    5  A    between atoms: C_12  and  O_13 
REMARK    6  A    between atoms: C_12  and  C_14 
REMARK    7  A    between atoms: C_19  and  C_20 
REMARK       I    between atoms: C_20  and  N_21 
ROOT
HETATM    1  C   UNL     1       3.788  32.756  59.269  1.00  0.00    -0.023 A 
HETATM    2  C   UNL     1       3.628  31.414  58.850  1.00  0.00     0.024 A 
HETATM    3  C   UNL     1       4.021  31.021  57.555  1.00  0.00     0.001 A 
HETATM    4  C   UNL     1       4.624  31.958  56.730  1.00  0.00     0.086 A 
HETATM    5  O   UNL     1       4.895  31.415  55.512  1.00  0.00    -0.304 OA
HETATM    6  C   UNL     1       4.458  30.115  55.539  1.00  0.00     0.144 A 
HETATM    7  C   UNL     1       3.966  29.825  56.800  1.00  0.00     0.057 A 
HETATM    8  C   UNL     1       4.905  33.259  57.123  1.00  0.00     0.039 A 
HETATM    9  C   UNL     1       4.485  33.633  58.411  1.00  0.00     0.013 A 
ENDROOT
BRANCH   1  10
HETATM   10  C   UNL     1       3.240  33.224  60.628  1.00  0.00     0.088 C 
HETATM   11  C   UNL     1       3.843  34.548  61.134  1.00  0.00     0.071 C 
HETATM   12  C   UNL     1       5.329  34.422  61.418  1.00  0.00     0.238 C 
HETATM   13  N   UNL     1       5.611  33.324  62.418  1.00  0.00    -0.071 N 
HETATM   14  H   UNL     1       5.269  33.644  63.338  1.00  0.00     0.279 HD
HETATM   15  C   UNL     1       4.901  32.017  62.114  1.00  0.00     0.238 C 
HETATM   16  C   UNL     1       3.434  32.233  61.789  1.00  0.00     0.071 C 
BRANCH  13  17
HETATM   17  C   UNL     1       7.105  33.041  62.575  1.00  0.00     0.235 C 
BRANCH  17  18
HETATM   18  C   UNL     1       7.438  31.559  62.412  1.00  0.00     0.038 C 
BRANCH  18  19
HETATM   19  C   UNL     1       8.720  31.354  61.576  1.00  0.00     0.040 C 
HETATM   20  C   UNL     1       9.613  30.292  62.217  1.00  0.00     0.017 C 
BRANCH  19  21
HETATM   21  C   UNL     1       8.433  30.999  60.155  1.00  0.00     0.057 A 
HETATM   22  O   UNL     1       9.432  30.393  59.455  1.00  0.00    -0.319 OA
HETATM   23  C   UNL     1       8.967  30.184  58.191  1.00  0.00     0.049 A 
HETATM   24  C   UNL     1       9.904  29.571  57.227  1.00  0.00     0.076 C 
HETATM   25  C   UNL     1       7.667  30.628  58.086  1.00  0.00     0.035 A 
HETATM   26  C   UNL     1       7.321  31.154  59.354  1.00  0.00     0.035 A 
ENDBRANCH  19  21
ENDBRANCH  18  19
ENDBRANCH  17  18
ENDBRANCH  13  17
BRANCH  10  27
HETATM   27  O   UNL     1       1.835  33.433  60.495  1.00  0.00    -0.385 OA
HETATM   28  H   UNL     1       1.537  33.164  59.607  1.00  0.00     0.211 HD
ENDBRANCH  10  27
ENDBRANCH   1  10
BRANCH   6  29
HETATM   29  C   UNL     1       4.613  29.240  54.390  1.00  0.00     0.277 C 
HETATM   30  N   UNL     1       5.762  28.433  54.258  1.00  0.00    -0.345 N 
HETATM   31  C   UNL     1       5.810  27.496  53.132  1.00  0.00     0.154 C 
HETATM   32  C   UNL     1       6.925  28.478  55.144  1.00  0.00     0.128 C 
HETATM   33  C   UNL     1       5.951  26.025  53.557  1.00  0.00     0.254 C 
HETATM   34  N   UNL     1       7.342  25.757  54.124  1.00  0.00    -0.073 N 
HETATM   35  H   UNL     1       7.996  26.379  53.631  1.00  0.00     0.279 HD
HETATM   36  C   UNL     1       7.809  24.360  53.776  1.00  0.00     0.269 C 
HETATM   37  C   UNL     1       7.498  26.010  55.604  1.00  0.00     0.236 C 
HETATM   38  C   UNL     1       6.892  27.312  56.118  1.00  0.00     0.048 C 
HETATM   39  O   UNL     1       3.752  29.216  53.510  1.00  0.00    -0.265 OA
ENDBRANCH   6  29
TORSDOF 7
ENDMDL
MODEL 7
REMARK VINA RESULT:     -10.2      3.434      6.983
REMARK  7 active torsions:
REMARK  status: ('A' for Active; 'I' for Inactive)
REMARK    1  A    between atoms: C_4  and  C_5 
REMARK    2  A    between atoms: C_5  and  C_6 
REMARK    3  A    between atoms: C_6  and  C_7 
REMARK    4  A    between atoms: C_7  and  N_8 
REMARK    5  A    between atoms: C_12  and  O_13 
REMARK    6  A    between atoms: C_12  and  C_14 
REMARK    7  A    between atoms: C_19  and  C_20 
REMARK       I    between atoms: C_20  and  N_21 
ROOT
HETATM    1  C   UNL     1       6.691  33.627  63.037  1.00  0.00    -0.023 A 
HETATM    2  C   UNL     1       6.649  33.522  61.627  1.00  0.00     0.024 A 
HETATM    3  C   UNL     1       7.562  32.692  60.948  1.00  0.00     0.001 A 
HETATM    4  C   UNL     1       8.455  31.937  61.691  1.00  0.00     0.086 A 
HETATM    5  O   UNL     1       9.284  31.234  60.871  1.00  0.00    -0.304 OA
HETATM    6  C   UNL     1       8.934  31.540  59.580  1.00  0.00     0.144 A 
HETATM    7  C   UNL     1       7.842  32.390  59.593  1.00  0.00     0.057 A 
HETATM    8  C   UNL     1       8.474  31.917  63.079  1.00  0.00     0.039 A 
HETATM    9  C   UNL     1       7.567  32.768  63.734  1.00  0.00     0.013 A 
ENDROOT
BRANCH   1  10
HETATM   10  C   UNL     1       5.789  34.630  63.777  1.00  0.00     0.088 C 
HETATM   11  C   UNL     1       4.459  34.037  64.280  1.00  0.00     0.071 C 
HETATM   12  C   UNL     1       3.567  33.593  63.134  1.00  0.00     0.238 C 
HETATM   13  N   UNL     1       3.284  34.731  62.179  1.00  0.00    -0.071 N 
HETATM   14  H   UNL     1       2.657  35.394  62.661  1.00  0.00     0.279 HD
HETATM   15  C   UNL     1       4.519  35.511  61.768  1.00  0.00     0.238 C 
HETATM   16  C   UNL     1       5.385  35.871  62.962  1.00  0.00     0.071 C 
BRANCH  13  17
HETATM   17  C   UNL     1       2.556  34.271  60.916  1.00  0.00     0.235 C 
BRANCH  17  18
HETATM   18  C   UNL     1       3.431  34.375  59.668  1.00  0.00     0.038 C 
BRANCH  18  19
HETATM   19  C   UNL     1       4.028  33.006  59.277  1.00  0.00     0.040 C 
HETATM   20  C   UNL     1       3.267  31.874  59.967  1.00  0.00     0.017 C 
BRANCH  19  21
HETATM   21  C   UNL     1       4.053  32.788  57.800  1.00  0.00     0.057 A 
HETATM   22  O   UNL     1       2.851  32.764  57.159  1.00  0.00    -0.319 OA
HETATM   23  C   UNL     1       3.105  32.530  55.840  1.00  0.00     0.049 A 
HETATM   24  C   UNL     1       1.936  32.416  54.944  1.00  0.00     0.076 C 
HETATM   25  C   UNL     1       4.463  32.431  55.631  1.00  0.00     0.035 A 
HETATM   26  C   UNL     1       5.076  32.598  56.895  1.00  0.00     0.035 A 
ENDBRANCH  19  21
ENDBRANCH  18  19
ENDBRANCH  17  18
ENDBRANCH  13  17
BRANCH  10  27
HETATM   27  O   UNL     1       6.493  35.102  64.925  1.00  0.00    -0.385 OA
HETATM   28  H   UNL     1       6.841  35.998  64.761  1.00  0.00     0.211 HD
ENDBRANCH  10  27
ENDBRANCH   1  10
BRANCH   6  29
HETATM   29  C   UNL     1       9.618  30.939  58.448  1.00  0.00     0.277 C 
HETATM   30  N   UNL     1       9.107  29.773  57.843  1.00  0.00    -0.345 N 
HETATM   31  C   UNL     1       9.784  29.277  56.641  1.00  0.00     0.154 C 
HETATM   32  C   UNL     1       7.968  29.001  58.339  1.00  0.00     0.128 C 
HETATM   33  C   UNL     1       8.874  29.210  55.402  1.00  0.00     0.254 C 
HETATM   34  N   UNL     1       7.844  28.094  55.549  1.00  0.00    -0.073 N 
HETATM   35  H   UNL     1       8.282  27.346  56.101  1.00  0.00     0.279 HD
HETATM   36  C   UNL     1       7.544  27.454  54.211  1.00  0.00     0.269 C 
HETATM   37  C   UNL     1       6.561  28.484  56.244  1.00  0.00     0.236 C 
HETATM   38  C   UNL     1       6.725  29.306  57.518  1.00  0.00     0.048 C 
HETATM   39  O   UNL     1      10.664  31.433  58.025  1.00  0.00    -0.265 OA
ENDBRANCH   6  29
TORSDOF 7
ENDMDL
MODEL 8
REMARK VINA RESULT:     -10.2      2.431     10.920
REMARK  7 active torsions:
REMARK  status: ('A' for Active; 'I' for Inactive)
REMARK    1  A    between atoms: C_4  and  C_5 
REMARK    2  A    between atoms: C_5  and  C_6 
REMARK    3  A    between atoms: C_6  and  C_7 
REMARK    4  A    between atoms: C_7  and  N_8 
REMARK    5  A    between atoms: C_12  and  O_13 
REMARK    6  A    between atoms: C_12  and  C_14 
REMARK    7  A    between atoms: C_19  and  C_20 
REMARK       I    between atoms: C_20  and  N_21 
ROOT
HETATM    1  C   UNL     1       6.428  29.593  56.312  1.00  0.00    -0.023 A 
HETATM    2  C   UNL     1       6.208  30.653  57.223  1.00  0.00     0.024 A 
HETATM    3  C   UNL     1       6.994  30.766  58.386  1.00  0.00     0.001 A 
HETATM    4  C   UNL     1       8.024  29.860  58.583  1.00  0.00     0.086 A 
HETATM    5  O   UNL     1       8.644  30.095  59.773  1.00  0.00    -0.304 OA
HETATM    6  C   UNL     1       8.007  31.159  60.360  1.00  0.00     0.144 A 
HETATM    7  C   UNL     1       7.024  31.631  59.507  1.00  0.00     0.057 A 
HETATM    8  C   UNL     1       8.356  28.866  57.674  1.00  0.00     0.039 A 
HETATM    9  C   UNL     1       7.545  28.760  56.531  1.00  0.00     0.013 A 
ENDROOT
BRANCH   1  10
HETATM   10  C   UNL     1       5.490  29.383  55.111  1.00  0.00     0.088 C 
HETATM   11  C   UNL     1       4.211  28.588  55.435  1.00  0.00     0.071 C 
HETATM   12  C   UNL     1       4.521  27.160  55.848  1.00  0.00     0.238 C 
HETATM   13  N   UNL     1       5.312  26.434  54.783  1.00  0.00    -0.071 N 
HETATM   14  H   UNL     1       4.679  26.267  53.985  1.00  0.00     0.279 HD
HETATM   15  C   UNL     1       6.495  27.221  54.251  1.00  0.00     0.238 C 
HETATM   16  C   UNL     1       6.117  28.651  53.910  1.00  0.00     0.071 C 
BRANCH  13  17
HETATM   17  C   UNL     1       5.807  25.066  55.250  1.00  0.00     0.235 C 
BRANCH  17  18
HETATM   18  C   UNL     1       7.184  24.720  54.686  1.00  0.00     0.038 C 
BRANCH  18  19
HETATM   19  C   UNL     1       7.076  23.838  53.423  1.00  0.00     0.040 C 
HETATM   20  C   UNL     1       7.815  24.487  52.253  1.00  0.00     0.017 C 
BRANCH  19  21
HETATM   21  C   UNL     1       7.575  22.449  53.645  1.00  0.00     0.057 A 
HETATM   22  O   UNL     1       7.646  22.016  54.935  1.00  0.00    -0.319 OA
HETATM   23  C   UNL     1       8.144  20.748  54.905  1.00  0.00     0.049 A 
HETATM   24  C   UNL     1       8.355  20.082  56.207  1.00  0.00     0.076 C 
HETATM   25  C   UNL     1       8.367  20.358  53.603  1.00  0.00     0.035 A 
HETATM   26  C   UNL     1       7.999  21.455  52.788  1.00  0.00     0.035 A 
ENDBRANCH  19  21
ENDBRANCH  18  19
ENDBRANCH  17  18
ENDBRANCH  13  17
BRANCH  10  27
HETATM   27  O   UNL     1       5.073  30.664  54.640  1.00  0.00    -0.385 OA
HETATM   28  H   UNL     1       4.933  30.638  53.675  1.00  0.00     0.211 HD
ENDBRANCH  10  27
ENDBRANCH   1  10
BRANCH   6  29
HETATM   29  C   UNL     1       8.437  31.682  61.645  1.00  0.00     0.277 C 
HETATM   30  N   UNL     1       7.674  32.668  62.304  1.00  0.00    -0.345 N 
HETATM   31  C   UNL     1       8.104  33.077  63.646  1.00  0.00     0.154 C 
HETATM   32  C   UNL     1       6.502  33.337  61.742  1.00  0.00     0.128 C 
HETATM   33  C   UNL     1       7.043  32.840  64.734  1.00  0.00     0.254 C 
HETATM   34  N   UNL     1       5.877  33.811  64.571  1.00  0.00    -0.073 N 
HETATM   35  H   UNL     1       6.260  34.684  64.185  1.00  0.00     0.279 HD
HETATM   36  C   UNL     1       5.310  34.207  65.918  1.00  0.00     0.269 C 
HETATM   37  C   UNL     1       4.773  33.351  63.652  1.00  0.00     0.236 C 
HETATM   38  C   UNL     1       5.227  32.748  62.325  1.00  0.00     0.048 C 
HETATM   39  O   UNL     1       9.484  31.283  62.157  1.00  0.00    -0.265 OA
ENDBRANCH   6  29
TORSDOF 7
ENDMDL
MODEL 9
REMARK VINA RESULT:     -10.0      2.314     11.433
REMARK  7 active torsions:
REMARK  status: ('A' for Active; 'I' for Inactive)
REMARK    1  A    between atoms: C_4  and  C_5 
REMARK    2  A    between atoms: C_5  and  C_6 
REMARK    3  A    between atoms: C_6  and  C_7 
REMARK    4  A    between atoms: C_7  and  N_8 
REMARK    5  A    between atoms: C_12  and  O_13 
REMARK    6  A    between atoms: C_12  and  C_14 
REMARK    7  A    between atoms: C_19  and  C_20 
REMARK       I    between atoms: C_20  and  N_21 
ROOT
HETATM    1  C   UNL     1       7.204  29.434  57.399  1.00  0.00    -0.023 A 
HETATM    2  C   UNL     1       7.336  30.519  58.298  1.00  0.00     0.024 A 
HETATM    3  C   UNL     1       6.210  31.283  58.661  1.00  0.00     0.001 A 
HETATM    4  C   UNL     1       4.967  30.910  58.172  1.00  0.00     0.086 A 
HETATM    5  O   UNL     1       4.009  31.782  58.590  1.00  0.00    -0.304 OA
HETATM    6  C   UNL     1       4.634  32.738  59.351  1.00  0.00     0.144 A 
HETATM    7  C   UNL     1       5.979  32.428  59.461  1.00  0.00     0.057 A 
HETATM    8  C   UNL     1       4.760  29.793  57.374  1.00  0.00     0.039 A 
HETATM    9  C   UNL     1       5.901  29.059  57.009  1.00  0.00     0.013 A 
ENDROOT
BRANCH   1  10
HETATM   10  C   UNL     1       8.445  28.679  56.893  1.00  0.00     0.088 C 
HETATM   11  C   UNL     1       8.764  28.907  55.403  1.00  0.00     0.071 C 
HETATM   12  C   UNL     1       7.671  28.362  54.500  1.00  0.00     0.238 C 
HETATM   13  N   UNL     1       7.432  26.889  54.746  1.00  0.00    -0.071 N 
HETATM   14  H   UNL     1       8.251  26.375  54.384  1.00  0.00     0.279 HD
HETATM   15  C   UNL     1       7.296  26.524  56.213  1.00  0.00     0.238 C 
HETATM   16  C   UNL     1       8.393  27.149  57.056  1.00  0.00     0.071 C 
BRANCH  13  17
HETATM   17  C   UNL     1       6.210  26.359  53.997  1.00  0.00     0.235 C 
BRANCH  17  18
HETATM   18  C   UNL     1       5.993  24.864  54.220  1.00  0.00     0.038 C 
BRANCH  18  19
HETATM   19  C   UNL     1       6.633  24.023  53.094  1.00  0.00     0.040 C 
HETATM   20  C   UNL     1       7.572  24.886  52.251  1.00  0.00     0.017 C 
BRANCH  19  21
HETATM   21  C   UNL     1       7.355  22.822  53.608  1.00  0.00     0.057 A 
HETATM   22  O   UNL     1       7.419  22.673  54.961  1.00  0.00    -0.319 OA
HETATM   23  C   UNL     1       8.134  21.538  55.205  1.00  0.00     0.049 A 
HETATM   24  C   UNL     1       8.376  21.192  56.621  1.00  0.00     0.076 C 
HETATM   25  C   UNL     1       8.506  20.949  54.017  1.00  0.00     0.035 A 
HETATM   26  C   UNL     1       8.003  21.777  52.985  1.00  0.00     0.035 A 
ENDBRANCH  19  21
ENDBRANCH  18  19
ENDBRANCH  17  18
ENDBRANCH  13  17
BRANCH  10  27
HETATM   27  O   UNL     1       9.578  29.133  57.632  1.00  0.00    -0.385 OA
HETATM   28  H   UNL     1       9.741  30.077  57.451  1.00  0.00     0.211 HD
ENDBRANCH  10  27
ENDBRANCH   1  10
BRANCH   6  29
HETATM   29  C   UNL     1       3.887  33.819  59.969  1.00  0.00     0.277 C 
HETATM   30  N   UNL     1       3.547  33.760  61.337  1.00  0.00    -0.345 N 
HETATM   31  C   UNL     1       2.886  34.929  61.925  1.00  0.00     0.154 C 
HETATM   32  C   UNL     1       3.778  32.610  62.210  1.00  0.00     0.128 C 
HETATM   33  C   UNL     1       3.666  35.559  63.092  1.00  0.00     0.254 C 
HETATM   34  N   UNL     1       3.633  34.650  64.316  1.00  0.00    -0.073 N 
HETATM   35  H   UNL     1       2.734  34.152  64.302  1.00  0.00     0.279 HD
HETATM   36  C   UNL     1       3.598  35.462  65.593  1.00  0.00     0.269 C 
HETATM   37  C   UNL     1       4.729  33.614  64.384  1.00  0.00     0.236 C 
HETATM   38  C   UNL     1       4.995  32.850  63.089  1.00  0.00     0.048 C 
HETATM   39  O   UNL     1       3.524  34.785  59.296  1.00  0.00    -0.265 OA
ENDBRANCH   6  29
TORSDOF 7
ENDMDL
MODEL 10
REMARK VINA RESULT:      -9.9      5.006      7.784
REMARK  7 active torsions:
REMARK  status: ('A' for Active; 'I' for Inactive)
REMARK    1  A    between atoms: C_4  and  C_5 
REMARK    2  A    between atoms: C_5  and  C_6 
REMARK    3  A    between atoms: C_6  and  C_7 
REMARK    4  A    between atoms: C_7  and  N_8 
REMARK    5  A    between atoms: C_12  and  O_13 
REMARK    6  A    between atoms: C_12  and  C_14 
REMARK    7  A    between atoms: C_19  and  C_20 
REMARK       I    between atoms: C_20  and  N_21 
ROOT
HETATM    1  C   UNL     1       6.927  24.738  54.624  1.00  0.00    -0.023 A 
HETATM    2  C   UNL     1       5.662  25.102  54.104  1.00  0.00     0.024 A 
HETATM    3  C   UNL     1       5.532  25.490  52.756  1.00  0.00     0.001 A 
HETATM    4  C   UNL     1       6.652  25.444  51.939  1.00  0.00     0.086 A 
HETATM    5  O   UNL     1       6.349  25.893  50.690  1.00  0.00    -0.304 OA
HETATM    6  C   UNL     1       5.022  26.241  50.693  1.00  0.00     0.144 A 
HETATM    7  C   UNL     1       4.477  25.952  51.933  1.00  0.00     0.057 A 
HETATM    8  C   UNL     1       7.894  24.995  52.365  1.00  0.00     0.039 A 
HETATM    9  C   UNL     1       8.004  24.633  53.718  1.00  0.00     0.013 A 
ENDROOT
BRANCH   1  10
HETATM   10  C   UNL     1       7.103  24.443  56.123  1.00  0.00     0.088 C 
HETATM   11  C   UNL     1       5.896  24.839  56.995  1.00  0.00     0.071 C 
HETATM   12  C   UNL     1       5.663  26.339  56.992  1.00  0.00     0.238 C 
HETATM   13  N   UNL     1       6.889  27.092  57.456  1.00  0.00    -0.071 N 
HETATM   14  H   UNL     1       6.997  26.919  58.468  1.00  0.00     0.279 HD
HETATM   15  C   UNL     1       8.177  26.640  56.792  1.00  0.00     0.238 C 
HETATM   16  C   UNL     1       8.311  25.128  56.788  1.00  0.00     0.071 C 
BRANCH  13  17
HETATM   17  C   UNL     1       6.754  28.604  57.277  1.00  0.00     0.235 C 
BRANCH  17  18
HETATM   18  C   UNL     1       8.046  29.250  56.780  1.00  0.00     0.038 C 
BRANCH  18  19
HETATM   19  C   UNL     1       9.031  29.514  57.939  1.00  0.00     0.040 C 
HETATM   20  C   UNL     1      10.352  30.067  57.404  1.00  0.00     0.017 C 
BRANCH  19  21
HETATM   21  C   UNL     1       8.470  30.430  58.976  1.00  0.00     0.057 A 
HETATM   22  O   UNL     1       8.804  30.174  60.273  1.00  0.00    -0.319 OA
HETATM   23  C   UNL     1       8.171  31.105  61.040  1.00  0.00     0.049 A 
HETATM   24  C   UNL     1       8.350  30.999  62.503  1.00  0.00     0.076 C 
HETATM   25  C   UNL     1       7.456  31.970  60.242  1.00  0.00     0.035 A 
HETATM   26  C   UNL     1       7.648  31.536  58.909  1.00  0.00     0.035 A 
ENDBRANCH  19  21
ENDBRANCH  18  19
ENDBRANCH  17  18
ENDBRANCH  13  17
BRANCH  10  27
HETATM   27  O   UNL     1       7.287  23.037  56.284  1.00  0.00    -0.385 OA
HETATM   28  H   UNL     1       6.606  22.675  56.880  1.00  0.00     0.211 HD
ENDBRANCH  10  27
ENDBRANCH   1  10
BRANCH   6  29
HETATM   29  C   UNL     1       4.370  26.747  49.498  1.00  0.00     0.277 C 
HETATM   30  N   UNL     1       4.139  28.129  49.343  1.00  0.00    -0.345 N 
HETATM   31  C   UNL     1       3.575  28.587  48.070  1.00  0.00     0.154 C 
HETATM   32  C   UNL     1       4.394  29.142  50.367  1.00  0.00     0.128 C 
HETATM   33  C   UNL     1       4.470  29.587  47.320  1.00  0.00     0.254 C 
HETATM   34  N   UNL     1       4.499  30.931  48.041  1.00  0.00    -0.073 N 
HETATM   35  H   UNL     1       3.583  31.056  48.490  1.00  0.00     0.279 HD
HETATM   36  C   UNL     1       4.598  32.075  47.054  1.00  0.00     0.269 C 
HETATM   37  C   UNL     1       5.554  31.069  49.112  1.00  0.00     0.236 C 
HETATM   38  C   UNL     1       5.685  29.885  50.065  1.00  0.00     0.048 C 
HETATM   39  O   UNL     1       3.993  25.968  48.622  1.00  0.00    -0.265 OA
ENDBRANCH   6  29
TORSDOF 7
ENDMDL
