MODEL 1
REMARK VINA RESULT:      -8.3      0.000      0.000
REMARK  3 active torsions:
REMARK  status: ('A' for Active; 'I' for Inactive)
REMARK    1  A    between atoms: C_4  and  C_5 
REMARK    2  A    between atoms: C_5  and  N_6 
REMARK    3  A    between atoms: N_10  and  S_11 
ROOT
HETATM    1  N   UNL     1       5.030  26.369  55.374  1.00  0.00    -0.063 N 
HETATM    2  H   UNL     1       5.098  26.081  54.393  1.00  0.00     0.280 HD
HETATM    3  C   UNL     1       5.418  28.194  55.570  1.00  0.00     0.267 C 
HETATM    4  C   UNL     1       7.033  28.470  56.608  1.00  0.00     0.067 C 
HETATM    5  N   UNL     1       6.894  29.531  57.690  1.00  0.00    -0.300 N 
HETATM    6  C   UNL     1       8.124  29.798  58.492  1.00  0.00     0.136 C 
HETATM    7  C   UNL     1       9.283  30.215  57.592  1.00  0.00     0.021 C 
HETATM    8  C   UNL     1       9.446  29.338  56.355  1.00  0.00     0.004 C 
HETATM    9  C   UNL     1       8.116  29.066  55.645  1.00  0.00     0.033 C 
HETATM   10  C   UNL     1       7.796  26.882  57.373  1.00  0.00     0.035 C 
HETATM   11  C   UNL     1       6.878  25.229  57.561  1.00  0.00     0.030 C 
HETATM   12  C   UNL     1       5.293  24.946  56.532  1.00  0.00     0.235 C 
ENDROOT
BRANCH   5  13
HETATM   13  S   UNL     1       5.755  30.797  57.645  1.00  0.00     0.225 S 
HETATM   14  C   UNL     1       6.295  31.967  58.877  1.00  0.00     0.186 C 
HETATM   15  O   UNL     1       5.872  31.483  56.380  1.00  0.00    -0.206 OA
HETATM   16  O   UNL     1       4.500  30.244  58.097  1.00  0.00    -0.206 OA
ENDBRANCH   5  13
BRANCH   1  17
HETATM   17  C   UNL     1       6.211  26.508  55.966  1.00  0.00     0.299 C 
BRANCH  17  18
HETATM   18  C   UNL     1       7.048  25.860  54.373  1.00  0.00     0.079 A 
HETATM   19  O   UNL     1       7.069  24.461  54.277  1.00  0.00    -0.318 OA
HETATM   20  C   UNL     1       7.694  24.088  53.135  1.00  0.00     0.049 A 
HETATM   21  C   UNL     1       7.882  22.639  52.924  1.00  0.00     0.076 C 
HETATM   22  C   UNL     1       8.041  25.196  52.411  1.00  0.00     0.035 A 
HETATM   23  C   UNL     1       7.617  26.317  53.170  1.00  0.00     0.037 A 
ENDBRANCH  17  18
ENDBRANCH   1  17
TORSDOF 3
ENDMDL
MODEL 2
REMARK VINA RESULT:      -7.0      5.469      8.664
REMARK  3 active torsions:
REMARK  status: ('A' for Active; 'I' for Inactive)
REMARK    1  A    between atoms: C_4  and  C_5 
REMARK    2  A    between atoms: C_5  and  N_6 
REMARK    3  A    between atoms: N_10  and  S_11 
ROOT
HETATM    1  N   UNL     1       4.590  33.569  59.971  1.00  0.00    -0.063 N 
HETATM    2  H   UNL     1       5.258  33.455  59.203  1.00  0.00     0.280 HD
HETATM    3  C   UNL     1       5.254  34.741  61.277  1.00  0.00     0.267 C 
HETATM    4  C   UNL     1       5.556  33.831  62.962  1.00  0.00     0.067 C 
HETATM    5  N   UNL     1       5.014  34.579  64.171  1.00  0.00    -0.300 N 
HETATM    6  C   UNL     1       5.253  33.929  65.492  1.00  0.00     0.136 C 
HETATM    7  C   UNL     1       6.745  33.705  65.728  1.00  0.00     0.021 C 
HETATM    8  C   UNL     1       7.473  33.110  64.527  1.00  0.00     0.004 C 
HETATM    9  C   UNL     1       7.104  33.802  63.211  1.00  0.00     0.033 C 
HETATM   10  C   UNL     1       4.958  32.007  63.027  1.00  0.00     0.035 C 
HETATM   11  C   UNL     1       3.747  31.227  61.788  1.00  0.00     0.030 C 
HETATM   12  C   UNL     1       3.453  32.112  60.121  1.00  0.00     0.235 C 
ENDROOT
BRANCH   5  13
HETATM   13  S   UNL     1       4.756  36.263  64.215  1.00  0.00     0.225 S 
HETATM   14  C   UNL     1       4.599  36.676  65.941  1.00  0.00     0.186 C 
HETATM   15  O   UNL     1       5.955  36.929  63.763  1.00  0.00    -0.206 OA
HETATM   16  O   UNL     1       3.474  36.504  63.595  1.00  0.00    -0.206 OA
ENDBRANCH   5  13
BRANCH   1  17
HETATM   17  C   UNL     1       4.913  32.879  61.060  1.00  0.00     0.299 C 
BRANCH  17  18
HETATM   18  C   UNL     1       6.460  32.226  60.145  1.00  0.00     0.079 A 
HETATM   19  O   UNL     1       6.161  31.403  59.049  1.00  0.00    -0.318 OA
HETATM   20  C   UNL     1       7.306  30.969  58.473  1.00  0.00     0.049 A 
HETATM   21  C   UNL     1       7.167  30.015  57.354  1.00  0.00     0.076 C 
HETATM   22  C   UNL     1       8.384  31.528  59.102  1.00  0.00     0.035 A 
HETATM   23  C   UNL     1       7.862  32.341  60.142  1.00  0.00     0.037 A 
ENDBRANCH  17  18
ENDBRANCH   1  17
TORSDOF 3
ENDMDL
MODEL 3
REMARK VINA RESULT:      -6.9      2.773      4.648
REMARK  3 active torsions:
REMARK  status: ('A' for Active; 'I' for Inactive)
REMARK    1  A    between atoms: C_4  and  C_5 
REMARK    2  A    between atoms: C_5  and  N_6 
REMARK    3  A    between atoms: N_10  and  S_11 
ROOT
HETATM    1  N   UNL     1       6.359  27.859  57.098  1.00  0.00    -0.063 N 
HETATM    2  H   UNL     1       6.379  26.991  57.642  1.00  0.00     0.280 HD
HETATM    3  C   UNL     1       5.059  27.780  55.748  1.00  0.00     0.267 C 
HETATM    4  C   UNL     1       5.863  27.832  53.984  1.00  0.00     0.067 C 
HETATM    5  N   UNL     1       5.185  28.803  53.028  1.00  0.00    -0.300 N 
HETATM    6  C   UNL     1       5.752  28.851  51.649  1.00  0.00     0.136 C 
HETATM    7  C   UNL     1       5.717  27.472  50.996  1.00  0.00     0.021 C 
HETATM    8  C   UNL     1       6.212  26.351  51.904  1.00  0.00     0.004 C 
HETATM    9  C   UNL     1       5.626  26.433  53.317  1.00  0.00     0.033 C 
HETATM   10  C   UNL     1       7.759  28.137  53.956  1.00  0.00     0.035 C 
HETATM   11  C   UNL     1       8.762  28.813  55.421  1.00  0.00     0.030 C 
HETATM   12  C   UNL     1       7.981  28.754  57.164  1.00  0.00     0.235 C 
ENDROOT
BRANCH   5  13
HETATM   13  S   UNL     1       3.567  29.317  53.177  1.00  0.00     0.225 S 
HETATM   14  C   UNL     1       3.264  30.354  51.760  1.00  0.00     0.186 C 
HETATM   15  O   UNL     1       2.700  28.175  53.015  1.00  0.00    -0.206 OA
HETATM   16  O   UNL     1       3.505  30.159  54.350  1.00  0.00    -0.206 OA
ENDBRANCH   5  13
BRANCH   1  17
HETATM   17  C   UNL     1       6.957  27.756  55.916  1.00  0.00     0.299 C 
BRANCH  17  18
HETATM   18  C   UNL     1       7.628  26.044  56.443  1.00  0.00     0.079 A 
HETATM   19  O   UNL     1       7.303  25.012  55.550  1.00  0.00    -0.318 OA
HETATM   20  C   UNL     1       7.796  23.837  56.006  1.00  0.00     0.049 A 
HETATM   21  C   UNL     1       7.464  22.629  55.225  1.00  0.00     0.076 C 
HETATM   22  C   UNL     1       8.511  24.046  57.153  1.00  0.00     0.035 A 
HETATM   23  C   UNL     1       8.432  25.437  57.425  1.00  0.00     0.037 A 
ENDBRANCH  17  18
ENDBRANCH   1  17
TORSDOF 3
ENDMDL
MODEL 4
REMARK VINA RESULT:      -6.8      5.250      7.212
REMARK  3 active torsions:
REMARK  status: ('A' for Active; 'I' for Inactive)
REMARK    1  A    between atoms: C_4  and  C_5 
REMARK    2  A    between atoms: C_5  and  N_6 
REMARK    3  A    between atoms: N_10  and  S_11 
ROOT
HETATM    1  N   UNL     1       4.972  26.933  48.926  1.00  0.00    -0.063 N 
HETATM    2  H   UNL     1       4.051  26.777  48.505  1.00  0.00     0.280 HD
HETATM    3  C   UNL     1       5.088  26.123  50.615  1.00  0.00     0.267 C 
HETATM    4  C   UNL     1       5.295  27.440  52.023  1.00  0.00     0.067 C 
HETATM    5  N   UNL     1       6.388  27.102  53.025  1.00  0.00    -0.300 N 
HETATM    6  C   UNL     1       6.559  28.074  54.145  1.00  0.00     0.136 C 
HETATM    7  C   UNL     1       5.259  28.239  54.927  1.00  0.00     0.021 C 
HETATM    8  C   UNL     1       4.029  28.418  54.043  1.00  0.00     0.004 C 
HETATM    9  C   UNL     1       3.985  27.417  52.884  1.00  0.00     0.033 C 
HETATM   10  C   UNL     1       5.523  29.251  51.424  1.00  0.00     0.035 C 
HETATM   11  C   UNL     1       5.999  29.746  49.652  1.00  0.00     0.030 C 
HETATM   12  C   UNL     1       5.788  28.457  48.258  1.00  0.00     0.235 C 
ENDROOT
BRANCH   5  13
HETATM   13  S   UNL     1       6.949  25.522  53.331  1.00  0.00     0.225 S 
HETATM   14  C   UNL     1       7.650  25.574  54.968  1.00  0.00     0.186 C 
HETATM   15  O   UNL     1       5.813  24.636  53.422  1.00  0.00    -0.206 OA
HETATM   16  O   UNL     1       8.031  25.279  52.405  1.00  0.00    -0.206 OA
ENDBRANCH   5  13
BRANCH   1  17
HETATM   17  C   UNL     1       4.970  27.871  49.867  1.00  0.00     0.299 C 
BRANCH  17  18
HETATM   18  C   UNL     1       3.168  28.300  49.388  1.00  0.00     0.079 A 
HETATM   19  O   UNL     1       2.666  27.523  48.334  1.00  0.00    -0.318 OA
HETATM   20  C   UNL     1       1.399  27.903  48.046  1.00  0.00     0.049 A 
HETATM   21  C   UNL     1       0.753  27.242  46.895  1.00  0.00     0.076 C 
HETATM   22  C   UNL     1       0.994  28.872  48.922  1.00  0.00     0.035 A 
HETATM   23  C   UNL     1       2.092  29.113  49.787  1.00  0.00     0.037 A 
ENDBRANCH  17  18
ENDBRANCH   1  17
TORSDOF 3
ENDMDL
MODEL 5
REMARK VINA RESULT:      -6.8      2.979      5.526
REMARK  3 active torsions:
REMARK  status: ('A' for Active; 'I' for Inactive)
REMARK    1  A    between atoms: C_4  and  C_5 
REMARK    2  A    between atoms: C_5  and  N_6 
REMARK    3  A    between atoms: N_10  and  S_11 
ROOT
HETATM    1  N   UNL     1       7.875  26.330  55.658  1.00  0.00    -0.063 N 
HETATM    2  H   UNL     1       8.676  26.716  56.168  1.00  0.00     0.280 HD
HETATM    3  C   UNL     1       7.379  27.446  54.235  1.00  0.00     0.267 C 
HETATM    4  C   UNL     1       5.611  28.197  54.503  1.00  0.00     0.067 C 
HETATM    5  N   UNL     1       4.714  28.111  53.277  1.00  0.00    -0.300 N 
HETATM    6  C   UNL     1       3.355  28.707  53.430  1.00  0.00     0.136 C 
HETATM    7  C   UNL     1       3.445  30.178  53.824  1.00  0.00     0.021 C 
HETATM    8  C   UNL     1       4.446  30.453  54.941  1.00  0.00     0.004 C 
HETATM    9  C   UNL     1       5.784  29.739  54.725  1.00  0.00     0.033 C 
HETATM   10  C   UNL     1       4.660  27.528  56.031  1.00  0.00     0.035 C 
HETATM   11  C   UNL     1       5.114  25.941  56.972  1.00  0.00     0.030 C 
HETATM   12  C   UNL     1       6.858  25.202  56.722  1.00  0.00     0.235 C 
ENDROOT
BRANCH   5  13
HETATM   13  S   UNL     1       5.291  27.994  51.678  1.00  0.00     0.225 S 
HETATM   14  C   UNL     1       3.860  28.208  50.638  1.00  0.00     0.186 C 
HETATM   15  O   UNL     1       6.142  29.128  51.406  1.00  0.00    -0.206 OA
HETATM   16  O   UNL     1       5.754  26.637  51.501  1.00  0.00    -0.206 OA
ENDBRANCH   5  13
BRANCH   1  17
HETATM   17  C   UNL     1       6.726  26.930  55.948  1.00  0.00     0.299 C 
BRANCH  17  18
HETATM   18  C   UNL     1       7.689  28.176  57.033  1.00  0.00     0.079 A 
HETATM   19  O   UNL     1       8.953  28.508  56.523  1.00  0.00    -0.318 OA
HETATM   20  C   UNL     1       9.572  29.375  57.358  1.00  0.00     0.049 A 
HETATM   21  C   UNL     1      10.956  29.757  57.011  1.00  0.00     0.076 C 
HETATM   22  C   UNL     1       8.739  29.701  58.392  1.00  0.00     0.035 A 
HETATM   23  C   UNL     1       7.541  28.970  58.185  1.00  0.00     0.037 A 
ENDBRANCH  17  18
ENDBRANCH   1  17
TORSDOF 3
ENDMDL
MODEL 6
REMARK VINA RESULT:      -6.5      8.560     11.235
REMARK  3 active torsions:
REMARK  status: ('A' for Active; 'I' for Inactive)
REMARK    1  A    between atoms: C_4  and  C_5 
REMARK    2  A    between atoms: C_5  and  N_6 
REMARK    3  A    between atoms: N_10  and  S_11 
ROOT
HETATM    1  N   UNL     1       3.790  34.022  62.642  1.00  0.00    -0.063 N 
HETATM    2  H   UNL     1       4.464  33.253  62.571  1.00  0.00     0.280 HD
HETATM    3  C   UNL     1       4.047  35.275  61.270  1.00  0.00     0.267 C 
HETATM    4  C   UNL     1       4.613  36.992  61.972  1.00  0.00     0.067 C 
HETATM    5  N   UNL     1       3.857  38.175  61.385  1.00  0.00    -0.300 N 
HETATM    6  C   UNL     1       4.283  39.519  61.874  1.00  0.00     0.136 C 
HETATM    7  C   UNL     1       5.768  39.751  61.609  1.00  0.00     0.021 C 
HETATM    8  C   UNL     1       6.652  38.568  61.991  1.00  0.00     0.004 C 
HETATM    9  C   UNL     1       6.089  37.229  61.503  1.00  0.00     0.033 C 
HETATM   10  C   UNL     1       4.618  37.133  63.888  1.00  0.00     0.035 C 
HETATM   11  C   UNL     1       3.719  35.936  65.057  1.00  0.00     0.030 C 
HETATM   12  C   UNL     1       3.169  34.237  64.376  1.00  0.00     0.235 C 
ENDROOT
BRANCH   5  13
HETATM   13  S   UNL     1       3.083  38.156  59.867  1.00  0.00     0.225 S 
HETATM   14  C   UNL     1       2.656  39.853  59.528  1.00  0.00     0.186 C 
HETATM   15  O   UNL     1       4.048  37.789  58.858  1.00  0.00    -0.206 OA
HETATM   16  O   UNL     1       1.848  37.426  60.039  1.00  0.00    -0.206 OA
ENDBRANCH   5  13
BRANCH   1  17
HETATM   17  C   UNL     1       4.309  35.134  63.152  1.00  0.00     0.299 C 
BRANCH  17  18
HETATM   18  C   UNL     1       5.912  34.165  63.544  1.00  0.00     0.079 A 
HETATM   19  O   UNL     1       6.506  33.579  62.417  1.00  0.00    -0.318 OA
HETATM   20  C   UNL     1       7.617  32.899  62.784  1.00  0.00     0.049 A 
HETATM   21  C   UNL     1       8.315  32.145  61.723  1.00  0.00     0.076 C 
HETATM   22  C   UNL     1       7.841  33.062  64.123  1.00  0.00     0.035 A 
HETATM   23  C   UNL     1       6.786  33.878  64.608  1.00  0.00     0.037 A 
ENDBRANCH  17  18
ENDBRANCH   1  17
TORSDOF 3
ENDMDL
MODEL 7
REMARK VINA RESULT:      -6.5      7.464      9.961
REMARK  3 active torsions:
REMARK  status: ('A' for Active; 'I' for Inactive)
REMARK    1  A    between atoms: C_4  and  C_5 
REMARK    2  A    between atoms: C_5  and  N_6 
REMARK    3  A    between atoms: N_10  and  S_11 
ROOT
HETATM    1  N   UNL     1       5.619  30.452  50.927  1.00  0.00    -0.063 N 
HETATM    2  H   UNL     1       6.240  31.221  50.659  1.00  0.00     0.280 HD
HETATM    3  C   UNL     1       5.453  29.202  49.538  1.00  0.00     0.267 C 
HETATM    4  C   UNL     1       3.641  29.141  48.850  1.00  0.00     0.067 C 
HETATM    5  N   UNL     1       3.097  27.731  48.676  1.00  0.00    -0.300 N 
HETATM    6  C   UNL     1       1.716  27.637  48.118  1.00  0.00     0.136 C 
HETATM    7  C   UNL     1       1.628  28.329  46.760  1.00  0.00     0.021 C 
HETATM    8  C   UNL     1       2.291  29.701  46.727  1.00  0.00     0.004 C 
HETATM    9  C   UNL     1       3.674  29.706  47.388  1.00  0.00     0.033 C 
HETATM   10  C   UNL     1       2.361  30.198  49.816  1.00  0.00     0.035 C 
HETATM   11  C   UNL     1       2.635  30.886  51.565  1.00  0.00     0.030 C 
HETATM   12  C   UNL     1       4.419  30.961  52.246  1.00  0.00     0.235 C 
ENDROOT
BRANCH   5  13
HETATM   13  S   UNL     1       4.072  26.350  48.462  1.00  0.00     0.225 S 
HETATM   14  C   UNL     1       2.963  25.059  47.935  1.00  0.00     0.186 C 
HETATM   15  O   UNL     1       4.962  26.577  47.348  1.00  0.00    -0.206 OA
HETATM   16  O   UNL     1       4.569  25.985  49.769  1.00  0.00    -0.206 OA
ENDBRANCH   5  13
BRANCH   1  17
HETATM   17  C   UNL     1       4.405  30.543  50.394  1.00  0.00     0.299 C 
BRANCH  17  18
HETATM   18  C   UNL     1       4.865  32.277  49.729  1.00  0.00     0.079 A 
HETATM   19  O   UNL     1       5.938  32.267  48.826  1.00  0.00    -0.318 OA
HETATM   20  C   UNL     1       6.211  33.530  48.422  1.00  0.00     0.049 A 
HETATM   21  C   UNL     1       7.377  33.706  47.534  1.00  0.00     0.076 C 
HETATM   22  C   UNL     1       5.307  34.399  48.969  1.00  0.00     0.035 A 
HETATM   23  C   UNL     1       4.440  33.617  49.775  1.00  0.00     0.037 A 
ENDBRANCH  17  18
ENDBRANCH   1  17
TORSDOF 3
ENDMDL
MODEL 8
REMARK VINA RESULT:      -6.3      5.884      7.415
REMARK  3 active torsions:
REMARK  status: ('A' for Active; 'I' for Inactive)
REMARK    1  A    between atoms: C_4  and  C_5 
REMARK    2  A    between atoms: C_5  and  N_6 
REMARK    3  A    between atoms: N_10  and  S_11 
ROOT
HETATM    1  N   UNL     1       5.587  27.370  48.579  1.00  0.00    -0.063 N 
HETATM    2  H   UNL     1       6.186  26.707  49.079  1.00  0.00     0.280 HD
HETATM    3  C   UNL     1       5.828  29.116  49.222  1.00  0.00     0.267 C 
HETATM    4  C   UNL     1       4.219  29.791  50.068  1.00  0.00     0.067 C 
HETATM    5  N   UNL     1       3.843  31.201  49.638  1.00  0.00    -0.300 N 
HETATM    6  C   UNL     1       2.628  31.771  50.290  1.00  0.00     0.136 C 
HETATM    7  C   UNL     1       2.779  31.784  51.809  1.00  0.00     0.021 C 
HETATM    8  C   UNL     1       3.318  30.478  52.383  1.00  0.00     0.004 C 
HETATM    9  C   UNL     1       4.520  29.941  51.599  1.00  0.00     0.033 C 
HETATM   10  C   UNL     1       2.678  28.653  49.923  1.00  0.00     0.035 C 
HETATM   11  C   UNL     1       2.511  27.221  48.686  1.00  0.00     0.030 C 
HETATM   12  C   UNL     1       4.093  26.544  47.856  1.00  0.00     0.235 C 
ENDROOT
BRANCH   5  13
HETATM   13  S   UNL     1       4.952  32.340  49.024  1.00  0.00     0.225 S 
HETATM   14  C   UNL     1       4.088  33.898  49.030  1.00  0.00     0.186 C 
HETATM   15  O   UNL     1       6.034  32.491  49.968  1.00  0.00    -0.206 OA
HETATM   16  O   UNL     1       5.192  31.984  47.644  1.00  0.00    -0.206 OA
ENDBRANCH   5  13
BRANCH   1  17
HETATM   17  C   UNL     1       4.514  27.738  49.270  1.00  0.00     0.299 C 
BRANCH  17  18
HETATM   18  C   UNL     1       5.028  26.519  50.652  1.00  0.00     0.079 A 
HETATM   19  O   UNL     1       6.061  26.999  51.471  1.00  0.00    -0.318 OA
HETATM   20  C   UNL     1       6.377  26.071  52.404  1.00  0.00     0.049 A 
HETATM   21  C   UNL     1       7.512  26.384  53.294  1.00  0.00     0.076 C 
HETATM   22  C   UNL     1       5.540  24.995  52.292  1.00  0.00     0.035 A 
HETATM   23  C   UNL     1       4.670  25.277  51.207  1.00  0.00     0.037 A 
ENDBRANCH  17  18
ENDBRANCH   1  17
TORSDOF 3
ENDMDL
MODEL 9
REMARK VINA RESULT:      -6.3     11.468     12.785
REMARK  3 active torsions:
REMARK  status: ('A' for Active; 'I' for Inactive)
REMARK    1  A    between atoms: C_4  and  C_5 
REMARK    2  A    between atoms: C_5  and  N_6 
REMARK    3  A    between atoms: N_10  and  S_11 
ROOT
HETATM    1  N   UNL     1      13.539  38.920  55.464  1.00  0.00    -0.063 N 
HETATM    2  H   UNL     1      14.128  38.096  55.619  1.00  0.00     0.280 HD
HETATM    3  C   UNL     1      11.735  38.436  55.288  1.00  0.00     0.267 C 
HETATM    4  C   UNL     1      11.065  38.822  53.509  1.00  0.00     0.067 C 
HETATM    5  N   UNL     1       9.717  39.526  53.500  1.00  0.00    -0.300 N 
HETATM    6  C   UNL     1       9.149  39.813  52.150  1.00  0.00     0.136 C 
HETATM    7  C   UNL     1       8.998  38.530  51.337  1.00  0.00     0.021 C 
HETATM    8  C   UNL     1      10.223  37.624  51.389  1.00  0.00     0.004 C 
HETATM    9  C   UNL     1      10.770  37.451  52.810  1.00  0.00     0.033 C 
HETATM   10  C   UNL     1      12.282  39.769  52.364  1.00  0.00     0.035 C 
HETATM   11  C   UNL     1      13.821  40.705  52.968  1.00  0.00     0.030 C 
HETATM   12  C   UNL     1      14.493  40.321  54.715  1.00  0.00     0.235 C 
ENDROOT
BRANCH   5  13
HETATM   13  S   UNL     1       8.585  39.439  54.770  1.00  0.00     0.225 S 
HETATM   14  C   UNL     1       7.027  39.926  54.055  1.00  0.00     0.186 C 
HETATM   15  O   UNL     1       8.421  38.056  55.153  1.00  0.00    -0.206 OA
HETATM   16  O   UNL     1       8.956  40.454  55.729  1.00  0.00    -0.206 OA
ENDBRANCH   5  13
BRANCH   1  17
HETATM   17  C   UNL     1      13.163  39.070  54.198  1.00  0.00     0.299 C 
BRANCH  17  18
HETATM   18  C   UNL     1      14.101  37.459  53.765  1.00  0.00     0.079 A 
HETATM   19  O   UNL     1      14.613  36.787  54.885  1.00  0.00    -0.318 OA
HETATM   20  C   UNL     1      15.276  35.675  54.490  1.00  0.00     0.049 A 
HETATM   21  C   UNL     1      15.956  34.898  55.545  1.00  0.00     0.076 C 
HETATM   22  C   UNL     1      15.173  35.529  53.134  1.00  0.00     0.035 A 
HETATM   23  C   UNL     1      14.414  36.634  52.670  1.00  0.00     0.037 A 
ENDBRANCH  17  18
ENDBRANCH   1  17
TORSDOF 3
ENDMDL
MODEL 10
REMARK VINA RESULT:      -6.1      7.467      9.173
REMARK  3 active torsions:
REMARK  status: ('A' for Active; 'I' for Inactive)
REMARK    1  A    between atoms: C_4  and  C_5 
REMARK    2  A    between atoms: C_5  and  N_6 
REMARK    3  A    between atoms: N_10  and  S_11 
ROOT
HETATM    1  N   UNL     1       5.466  27.816  48.116  1.00  0.00    -0.063 N 
HETATM    2  H   UNL     1       6.145  27.715  48.876  1.00  0.00     0.280 HD
HETATM    3  C   UNL     1       4.814  29.573  48.021  1.00  0.00     0.267 C 
HETATM    4  C   UNL     1       2.919  29.651  48.425  1.00  0.00     0.067 C 
HETATM    5  N   UNL     1       2.116  30.492  47.444  1.00  0.00    -0.300 N 
HETATM    6  C   UNL     1       0.657  30.605  47.736  1.00  0.00     0.136 C 
HETATM    7  C   UNL     1       0.423  31.184  49.129  1.00  0.00     0.021 C 
HETATM    8  C   UNL     1       1.293  30.552  50.210  1.00  0.00     0.004 C 
HETATM    9  C   UNL     1       2.759  30.416  49.783  1.00  0.00     0.033 C 
HETATM   10  C   UNL     1       2.058  27.949  48.652  1.00  0.00     0.035 C 
HETATM   11  C   UNL     1       2.788  26.290  48.083  1.00  0.00     0.030 C 
HETATM   12  C   UNL     1       4.657  26.202  47.694  1.00  0.00     0.235 C 
ENDROOT
BRANCH   5  13
HETATM   13  S   UNL     1       2.775  31.744  46.496  1.00  0.00     0.225 S 
HETATM   14  C   UNL     1       1.377  32.646  45.856  1.00  0.00     0.186 C 
HETATM   15  O   UNL     1       3.470  32.667  47.362  1.00  0.00    -0.206 OA
HETATM   16  O   UNL     1       3.433  31.114  45.374  1.00  0.00    -0.206 OA
ENDBRANCH   5  13
BRANCH   1  17
HETATM   17  C   UNL     1       4.205  27.842  48.535  1.00  0.00     0.299 C 
BRANCH  17  18
HETATM   18  C   UNL     1       4.830  27.595  50.326  1.00  0.00     0.079 A 
HETATM   19  O   UNL     1       4.929  26.248  50.707  1.00  0.00    -0.318 OA
HETATM   20  C   UNL     1       5.356  26.163  51.988  1.00  0.00     0.049 A 
HETATM   21  C   UNL     1       5.428  24.811  52.576  1.00  0.00     0.076 C 
HETATM   22  C   UNL     1       5.622  27.414  52.474  1.00  0.00     0.035 A 
HETATM   23  C   UNL     1       5.317  28.322  51.427  1.00  0.00     0.037 A 
ENDBRANCH  17  18
ENDBRANCH   1  17
TORSDOF 3
ENDMDL
