MODEL 1
REMARK VINA RESULT:     -10.4      0.000      0.000
REMARK  7 active torsions:
REMARK  status: ('A' for Active; 'I' for Inactive)
REMARK    1  A    between atoms: C_2  and  O_3 
REMARK    2  A    between atoms: O_3  and  C_4 
REMARK    3  A    between atoms: C_4  and  C_5 
REMARK    4  A    between atoms: C_10  and  N_11 
REMARK       I    between atoms: N_11  and  C_12 
REMARK    5  A    between atoms: C_12  and  C_13 
REMARK    6  A    between atoms: C_13  and  N_14 
REMARK    7  A    between atoms: N_18  and  C_19 
ROOT
HETATM    1  N   UNL     1       6.560  31.063  58.910  1.00  0.00    -0.323 N 
HETATM    2  C   UNL     1       5.947  31.835  57.956  1.00  0.00     0.248 C 
HETATM    3  O   UNL     1       5.775  33.053  57.966  1.00  0.00    -0.271 OA
HETATM    4  H   UNL     1       6.352  30.063  58.948  1.00  0.00     0.169 HD
ENDROOT
BRANCH   1   5
HETATM    5  C   UNL     1       7.280  31.530  60.008  1.00  0.00     0.080 A 
HETATM    6  C   UNL     1       8.656  31.701  59.929  1.00  0.00     0.137 A 
HETATM    7  N   UNL     1       9.086  32.137  61.158  1.00  0.00    -0.349 N 
HETATM    8  H   UNL     1      10.053  32.327  61.389  1.00  0.00     0.166 HD
HETATM    9  C   UNL     1       8.025  32.340  62.005  1.00  0.00     0.048 A 
HETATM   10  C   UNL     1       6.860  31.969  61.309  1.00  0.00     0.023 A 
HETATM   11  C   UNL     1       8.027  32.837  63.319  1.00  0.00     0.070 A 
HETATM   12  C   UNL     1       5.617  32.143  61.964  1.00  0.00     0.055 A 
HETATM   13  C   UNL     1       5.628  32.643  63.255  1.00  0.00     0.106 A 
HETATM   14  C   UNL     1       6.786  32.972  63.906  1.00  0.00     0.107 A 
HETATM   15  O   UNL     1       4.520  32.879  64.011  1.00  0.00    -0.323 OA
HETATM   16  O   UNL     1       6.560  33.454  65.158  1.00  0.00    -0.323 OA
HETATM   17  C   UNL     1       5.121  33.392  65.220  1.00  0.00     0.352 A 
BRANCH   6  18
HETATM   18  C   UNL     1       9.525  31.466  58.802  1.00  0.00     0.312 C 
HETATM   19  O   UNL     1      10.335  32.286  58.386  1.00  0.00    -0.258 OA
BRANCH  18  20
HETATM   20  O   UNL     1       9.310  30.220  58.306  1.00  0.00    -0.317 OA
BRANCH  20  21
HETATM   21  C   UNL     1      10.430  29.566  57.690  1.00  0.00     0.175 C 
HETATM   22  C   UNL     1      10.431  29.886  56.208  1.00  0.00     0.034 C 
ENDBRANCH  20  21
ENDBRANCH  18  20
ENDBRANCH   6  18
ENDBRANCH   1   5
BRANCH   2  23
HETATM   23  C   UNL     1       5.423  31.050  56.750  1.00  0.00     0.337 C 
BRANCH  23  24
HETATM   24  N   UNL     1       5.863  29.591  56.848  1.00  0.00    -0.060 N 
HETATM   25  H   UNL     1       6.161  29.477  57.833  1.00  0.00     0.280 HD
HETATM   26  C   UNL     1       4.704  28.611  56.666  1.00  0.00     0.255 C 
HETATM   27  C   UNL     1       5.179  27.167  56.925  1.00  0.00     0.150 C 
HETATM   28  N   UNL     1       6.386  26.830  56.153  1.00  0.00    -0.377 N 
HETATM   29  C   UNL     1       7.503  27.793  56.221  1.00  0.00     0.150 C 
HETATM   30  C   UNL     1       7.027  29.235  55.945  1.00  0.00     0.255 C 
BRANCH  28  31
HETATM   31  C   UNL     1       6.286  26.068  54.988  1.00  0.00     0.037 A 
HETATM   32  C   UNL     1       6.712  24.717  54.964  1.00  0.00    -0.035 A 
HETATM   33  C   UNL     1       7.224  24.008  56.193  1.00  0.00     0.050 C 
HETATM   34  C   UNL     1       6.652  23.975  53.768  1.00  0.00     0.011 A 
HETATM   35  C   UNL     1       6.137  24.536  52.604  1.00  0.00     0.024 A 
HETATM   36  C   UNL     1       5.679  25.844  52.630  1.00  0.00     0.036 A 
HETATM   37 CL   UNL     1       5.032  26.556  51.204  1.00  0.00    -0.084 Cl
HETATM   38  C   UNL     1       5.749  26.600  53.804  1.00  0.00     0.053 A 
ENDBRANCH  28  31
ENDBRANCH  23  24
ENDBRANCH   2  23
TORSDOF 7
ENDMDL
MODEL 2
REMARK VINA RESULT:      -9.6      5.040      9.077
REMARK  7 active torsions:
REMARK  status: ('A' for Active; 'I' for Inactive)
REMARK    1  A    between atoms: C_2  and  O_3 
REMARK    2  A    between atoms: O_3  and  C_4 
REMARK    3  A    between atoms: C_4  and  C_5 
REMARK    4  A    between atoms: C_10  and  N_11 
REMARK       I    between atoms: N_11  and  C_12 
REMARK    5  A    between atoms: C_12  and  C_13 
REMARK    6  A    between atoms: C_13  and  N_14 
REMARK    7  A    between atoms: N_18  and  C_19 
ROOT
HETATM    1  N   UNL     1       6.450  26.933  54.557  1.00  0.00    -0.323 N 
HETATM    2  C   UNL     1       6.930  27.966  53.793  1.00  0.00     0.248 C 
HETATM    3  O   UNL     1       8.098  28.332  53.665  1.00  0.00    -0.271 OA
HETATM    4  H   UNL     1       5.467  26.938  54.837  1.00  0.00     0.169 HD
ENDROOT
BRANCH   1   5
HETATM    5  C   UNL     1       7.214  25.965  55.205  1.00  0.00     0.080 A 
HETATM    6  C   UNL     1       7.727  26.203  56.473  1.00  0.00     0.137 A 
HETATM    7  N   UNL     1       8.455  25.095  56.836  1.00  0.00    -0.349 N 
HETATM    8  H   UNL     1       8.955  25.004  57.711  1.00  0.00     0.166 HD
HETATM    9  C   UNL     1       8.357  24.112  55.883  1.00  0.00     0.048 A 
HETATM   10  C   UNL     1       7.574  24.625  54.833  1.00  0.00     0.023 A 
HETATM   11  C   UNL     1       8.894  22.814  55.897  1.00  0.00     0.070 A 
HETATM   12  C   UNL     1       7.284  23.766  53.746  1.00  0.00     0.055 A 
HETATM   13  C   UNL     1       7.809  22.485  53.773  1.00  0.00     0.106 A 
HETATM   14  C   UNL     1       8.585  22.031  54.804  1.00  0.00     0.107 A 
HETATM   15  O   UNL     1       7.611  21.539  52.812  1.00  0.00    -0.323 OA
HETATM   16  O   UNL     1       8.981  20.741  54.627  1.00  0.00    -0.323 OA
HETATM   17  C   UNL     1       8.361  20.435  53.362  1.00  0.00     0.352 A 
BRANCH   6  18
HETATM   18  C   UNL     1       7.573  27.377  57.296  1.00  0.00     0.312 C 
HETATM   19  O   UNL     1       6.489  27.799  57.682  1.00  0.00    -0.258 OA
BRANCH  18  20
HETATM   20  O   UNL     1       8.792  27.909  57.573  1.00  0.00    -0.317 OA
BRANCH  20  21
HETATM   21  C   UNL     1       9.077  29.200  57.011  1.00  0.00     0.175 C 
HETATM   22  C   UNL     1      10.580  29.370  56.909  1.00  0.00     0.034 C 
ENDBRANCH  20  21
ENDBRANCH  18  20
ENDBRANCH   6  18
ENDBRANCH   1   5
BRANCH   2  23
HETATM   23  C   UNL     1       5.852  28.737  53.025  1.00  0.00     0.337 C 
BRANCH  23  24
HETATM   24  N   UNL     1       5.696  28.156  51.622  1.00  0.00    -0.060 N 
HETATM   25  H   UNL     1       6.603  27.694  51.432  1.00  0.00     0.280 HD
HETATM   26  C   UNL     1       4.658  27.036  51.559  1.00  0.00     0.255 C 
HETATM   27  C   UNL     1       4.654  26.389  50.160  1.00  0.00     0.150 C 
HETATM   28  N   UNL     1       4.537  27.386  49.083  1.00  0.00    -0.377 N 
HETATM   29  C   UNL     1       5.458  28.538  49.150  1.00  0.00     0.150 C 
HETATM   30  C   UNL     1       5.447  29.194  50.547  1.00  0.00     0.255 C 
BRANCH  28  31
HETATM   31  C   UNL     1       3.311  27.600  48.451  1.00  0.00     0.037 A 
HETATM   32  C   UNL     1       2.714  26.586  47.664  1.00  0.00    -0.035 A 
HETATM   33  C   UNL     1       3.318  25.212  47.519  1.00  0.00     0.050 C 
HETATM   34  C   UNL     1       1.500  26.832  46.991  1.00  0.00     0.011 A 
HETATM   35  C   UNL     1       0.847  28.054  47.119  1.00  0.00     0.024 A 
HETATM   36  C   UNL     1       1.404  29.037  47.923  1.00  0.00     0.036 A 
HETATM   37 CL   UNL     1       0.610  30.552  48.103  1.00  0.00    -0.084 Cl
HETATM   38  C   UNL     1       2.617  28.814  48.582  1.00  0.00     0.053 A 
ENDBRANCH  28  31
ENDBRANCH  23  24
ENDBRANCH   2  23
TORSDOF 7
ENDMDL
MODEL 3
REMARK VINA RESULT:      -9.5      1.722      1.957
REMARK  7 active torsions:
REMARK  status: ('A' for Active; 'I' for Inactive)
REMARK    1  A    between atoms: C_2  and  O_3 
REMARK    2  A    between atoms: O_3  and  C_4 
REMARK    3  A    between atoms: C_4  and  C_5 
REMARK    4  A    between atoms: C_10  and  N_11 
REMARK       I    between atoms: N_11  and  C_12 
REMARK    5  A    between atoms: C_12  and  C_13 
REMARK    6  A    between atoms: C_13  and  N_14 
REMARK    7  A    between atoms: N_18  and  C_19 
ROOT
HETATM    1  N   UNL     1       5.842  31.311  58.633  1.00  0.00    -0.323 N 
HETATM    2  C   UNL     1       5.602  31.853  57.395  1.00  0.00     0.248 C 
HETATM    3  O   UNL     1       5.533  33.044  57.092  1.00  0.00    -0.271 OA
HETATM    4  H   UNL     1       5.552  30.349  58.817  1.00  0.00     0.169 HD
ENDROOT
BRANCH   1   5
HETATM    5  C   UNL     1       6.240  32.008  59.772  1.00  0.00     0.080 A 
HETATM    6  C   UNL     1       7.503  31.812  60.314  1.00  0.00     0.137 A 
HETATM    7  N   UNL     1       7.595  32.601  61.435  1.00  0.00    -0.349 N 
HETATM    8  H   UNL     1       8.407  32.642  62.037  1.00  0.00     0.166 HD
HETATM    9  C   UNL     1       6.467  33.368  61.587  1.00  0.00     0.048 A 
HETATM   10  C   UNL     1       5.585  33.023  60.548  1.00  0.00     0.023 A 
HETATM   11  C   UNL     1       6.189  34.343  62.560  1.00  0.00     0.070 A 
HETATM   12  C   UNL     1       4.360  33.729  60.462  1.00  0.00     0.055 A 
HETATM   13  C   UNL     1       4.098  34.695  61.417  1.00  0.00     0.106 A 
HETATM   14  C   UNL     1       4.975  34.986  62.427  1.00  0.00     0.107 A 
HETATM   15  O   UNL     1       2.976  35.465  61.463  1.00  0.00    -0.323 OA
HETATM   16  O   UNL     1       4.519  35.975  63.243  1.00  0.00    -0.323 OA
HETATM   17  C   UNL     1       3.251  36.275  62.627  1.00  0.00     0.352 A 
BRANCH   6  18
HETATM   18  C   UNL     1       8.556  30.945  59.843  1.00  0.00     0.312 C 
HETATM   19  O   UNL     1       9.068  30.065  60.525  1.00  0.00    -0.258 OA
BRANCH  18  20
HETATM   20  O   UNL     1       8.862  31.251  58.555  1.00  0.00    -0.317 OA
BRANCH  20  21
HETATM   21  C   UNL     1      10.255  31.408  58.242  1.00  0.00     0.175 C 
HETATM   22  C   UNL     1      10.689  30.264  57.346  1.00  0.00     0.034 C 
ENDBRANCH  20  21
ENDBRANCH  18  20
ENDBRANCH   6  18
ENDBRANCH   1   5
BRANCH   2  23
HETATM   23  C   UNL     1       5.397  30.820  56.283  1.00  0.00     0.337 C 
BRANCH  23  24
HETATM   24  N   UNL     1       6.052  29.498  56.674  1.00  0.00    -0.060 N 
HETATM   25  H   UNL     1       6.381  29.650  57.644  1.00  0.00     0.280 HD
HETATM   26  C   UNL     1       5.050  28.348  56.768  1.00  0.00     0.255 C 
HETATM   27  C   UNL     1       5.739  27.080  57.311  1.00  0.00     0.150 C 
HETATM   28  N   UNL     1       6.970  26.754  56.572  1.00  0.00    -0.377 N 
HETATM   29  C   UNL     1       7.931  27.857  56.373  1.00  0.00     0.150 C 
HETATM   30  C   UNL     1       7.240  29.119  55.814  1.00  0.00     0.255 C 
BRANCH  28  31
HETATM   31  C   UNL     1       6.965  25.745  55.607  1.00  0.00     0.037 A 
HETATM   32  C   UNL     1       7.829  24.629  55.719  1.00  0.00    -0.035 A 
HETATM   33  C   UNL     1       8.742  24.427  56.903  1.00  0.00     0.050 C 
HETATM   34  C   UNL     1       7.850  23.643  54.712  1.00  0.00     0.011 A 
HETATM   35  C   UNL     1       6.996  23.724  53.616  1.00  0.00     0.024 A 
HETATM   36  C   UNL     1       6.117  24.792  53.521  1.00  0.00     0.036 A 
HETATM   37 CL   UNL     1       5.048  24.907  52.179  1.00  0.00    -0.084 Cl
HETATM   38  C   UNL     1       6.098  25.787  54.503  1.00  0.00     0.053 A 
ENDBRANCH  28  31
ENDBRANCH  23  24
ENDBRANCH   2  23
TORSDOF 7
ENDMDL
MODEL 4
REMARK VINA RESULT:      -9.3      1.763      2.361
REMARK  7 active torsions:
REMARK  status: ('A' for Active; 'I' for Inactive)
REMARK    1  A    between atoms: C_2  and  O_3 
REMARK    2  A    between atoms: O_3  and  C_4 
REMARK    3  A    between atoms: C_4  and  C_5 
REMARK    4  A    between atoms: C_10  and  N_11 
REMARK       I    between atoms: N_11  and  C_12 
REMARK    5  A    between atoms: C_12  and  C_13 
REMARK    6  A    between atoms: C_13  and  N_14 
REMARK    7  A    between atoms: N_18  and  C_19 
ROOT
HETATM    1  N   UNL     1       6.662  31.607  58.179  1.00  0.00    -0.323 N 
HETATM    2  C   UNL     1       6.097  30.457  57.689  1.00  0.00     0.248 C 
HETATM    3  O   UNL     1       6.177  29.320  58.151  1.00  0.00    -0.271 OA
HETATM    4  H   UNL     1       6.800  32.400  57.548  1.00  0.00     0.169 HD
ENDROOT
BRANCH   1   5
HETATM    5  C   UNL     1       7.295  31.751  59.412  1.00  0.00     0.080 A 
HETATM    6  C   UNL     1       8.675  31.639  59.514  1.00  0.00     0.137 A 
HETATM    7  N   UNL     1       9.003  31.795  60.839  1.00  0.00    -0.349 N 
HETATM    8  H   UNL     1       9.946  31.742  61.202  1.00  0.00     0.166 HD
HETATM    9  C   UNL     1       7.891  32.093  61.586  1.00  0.00     0.048 A 
HETATM   10  C   UNL     1       6.787  32.079  60.715  1.00  0.00     0.023 A 
HETATM   11  C   UNL     1       7.802  32.385  62.957  1.00  0.00     0.070 A 
HETATM   12  C   UNL     1       5.520  32.414  61.250  1.00  0.00     0.055 A 
HETATM   13  C   UNL     1       5.443  32.712  62.599  1.00  0.00     0.106 A 
HETATM   14  C   UNL     1       6.539  32.693  63.419  1.00  0.00     0.107 A 
HETATM   15  O   UNL     1       4.304  33.065  63.259  1.00  0.00    -0.323 OA
HETATM   16  O   UNL     1       6.234  33.028  64.702  1.00  0.00    -0.323 OA
HETATM   17  C   UNL     1       4.815  33.262  64.595  1.00  0.00     0.352 A 
BRANCH   6  18
HETATM   18  C   UNL     1       9.634  31.390  58.465  1.00  0.00     0.312 C 
HETATM   19  O   UNL     1      10.510  32.184  58.142  1.00  0.00    -0.258 OA
BRANCH  18  20
HETATM   20  O   UNL     1       9.418  30.162  57.925  1.00  0.00    -0.317 OA
BRANCH  20  21
HETATM   21  C   UNL     1      10.532  29.539  57.268  1.00  0.00     0.175 C 
HETATM   22  C   UNL     1      10.341  29.647  55.768  1.00  0.00     0.034 C 
ENDBRANCH  20  21
ENDBRANCH  18  20
ENDBRANCH   6  18
ENDBRANCH   1   5
BRANCH   2  23
HETATM   23  C   UNL     1       5.279  30.652  56.409  1.00  0.00     0.337 C 
BRANCH  23  24
HETATM   24  N   UNL     1       5.607  29.547  55.408  1.00  0.00    -0.060 N 
HETATM   25  H   UNL     1       5.412  29.970  54.484  1.00  0.00     0.280 HD
HETATM   26  C   UNL     1       7.094  29.196  55.381  1.00  0.00     0.255 C 
HETATM   27  C   UNL     1       7.386  28.188  54.252  1.00  0.00     0.150 C 
HETATM   28  N   UNL     1       6.488  27.022  54.298  1.00  0.00    -0.377 N 
HETATM   29  C   UNL     1       5.045  27.307  54.418  1.00  0.00     0.150 C 
HETATM   30  C   UNL     1       4.754  28.303  55.560  1.00  0.00     0.255 C 
BRANCH  28  31
HETATM   31  C   UNL     1       6.934  25.811  54.829  1.00  0.00     0.037 A 
HETATM   32  C   UNL     1       6.701  24.591  54.151  1.00  0.00    -0.035 A 
HETATM   33  C   UNL     1       6.030  24.530  52.801  1.00  0.00     0.050 C 
HETATM   34  C   UNL     1       7.113  23.370  54.723  1.00  0.00     0.011 A 
HETATM   35  C   UNL     1       7.791  23.343  55.937  1.00  0.00     0.024 A 
HETATM   36  C   UNL     1       8.060  24.538  56.587  1.00  0.00     0.036 A 
HETATM   37 CL   UNL     1       8.904  24.529  58.086  1.00  0.00    -0.084 Cl
HETATM   38  C   UNL     1       7.642  25.755  56.042  1.00  0.00     0.053 A 
ENDBRANCH  28  31
ENDBRANCH  23  24
ENDBRANCH   2  23
TORSDOF 7
ENDMDL
MODEL 5
REMARK VINA RESULT:      -9.2      2.104      3.629
REMARK  7 active torsions:
REMARK  status: ('A' for Active; 'I' for Inactive)
REMARK    1  A    between atoms: C_2  and  O_3 
REMARK    2  A    between atoms: O_3  and  C_4 
REMARK    3  A    between atoms: C_4  and  C_5 
REMARK    4  A    between atoms: C_10  and  N_11 
REMARK       I    between atoms: N_11  and  C_12 
REMARK    5  A    between atoms: C_12  and  C_13 
REMARK    6  A    between atoms: C_13  and  N_14 
REMARK    7  A    between atoms: N_18  and  C_19 
ROOT
HETATM    1  N   UNL     1       6.111  31.129  59.059  1.00  0.00    -0.323 N 
HETATM    2  C   UNL     1       7.450  30.990  58.794  1.00  0.00     0.248 C 
HETATM    3  O   UNL     1       8.306  31.873  58.747  1.00  0.00    -0.271 OA
HETATM    4  H   UNL     1       5.466  30.399  58.750  1.00  0.00     0.169 HD
ENDROOT
BRANCH   1   5
HETATM    5  C   UNL     1       5.478  32.284  59.513  1.00  0.00     0.080 A 
HETATM    6  C   UNL     1       4.927  33.187  58.613  1.00  0.00     0.137 A 
HETATM    7  N   UNL     1       4.407  34.228  59.343  1.00  0.00    -0.349 N 
HETATM    8  H   UNL     1       3.957  35.039  58.938  1.00  0.00     0.166 HD
HETATM    9  C   UNL     1       4.524  33.988  60.689  1.00  0.00     0.048 A 
HETATM   10  C   UNL     1       5.195  32.761  60.838  1.00  0.00     0.023 A 
HETATM   11  C   UNL     1       4.067  34.766  61.767  1.00  0.00     0.070 A 
HETATM   12  C   UNL     1       5.387  32.269  62.151  1.00  0.00     0.055 A 
HETATM   13  C   UNL     1       4.924  33.036  63.206  1.00  0.00     0.106 A 
HETATM   14  C   UNL     1       4.295  34.237  63.021  1.00  0.00     0.107 A 
HETATM   15  O   UNL     1       5.021  32.696  64.522  1.00  0.00    -0.323 OA
HETATM   16  O   UNL     1       3.916  34.812  64.194  1.00  0.00    -0.323 OA
HETATM   17  C   UNL     1       4.379  33.830  65.143  1.00  0.00     0.352 A 
BRANCH   6  18
HETATM   18  C   UNL     1       4.891  33.108  57.173  1.00  0.00     0.312 C 
HETATM   19  O   UNL     1       5.308  33.993  56.434  1.00  0.00    -0.258 OA
BRANCH  18  20
HETATM   20  O   UNL     1       4.349  31.923  56.790  1.00  0.00    -0.317 OA
BRANCH  20  21
HETATM   21  C   UNL     1       4.907  31.305  55.621  1.00  0.00     0.175 C 
HETATM   22  C   UNL     1       3.843  31.243  54.542  1.00  0.00     0.034 C 
ENDBRANCH  20  21
ENDBRANCH  18  20
ENDBRANCH   6  18
ENDBRANCH   1   5
BRANCH   2  23
HETATM   23  C   UNL     1       7.894  29.549  58.525  1.00  0.00     0.337 C 
BRANCH  23  24
HETATM   24  N   UNL     1       7.369  29.087  57.168  1.00  0.00    -0.060 N 
HETATM   25  H   UNL     1       6.913  29.927  56.769  1.00  0.00     0.280 HD
HETATM   26  C   UNL     1       8.488  28.737  56.189  1.00  0.00     0.255 C 
HETATM   27  C   UNL     1       7.904  28.425  54.797  1.00  0.00     0.150 C 
HETATM   28  N   UNL     1       6.817  27.433  54.857  1.00  0.00    -0.377 N 
HETATM   29  C   UNL     1       5.756  27.678  55.854  1.00  0.00     0.150 C 
HETATM   30  C   UNL     1       6.344  27.973  57.250  1.00  0.00     0.255 C 
BRANCH  28  31
HETATM   31  C   UNL     1       7.059  26.102  54.514  1.00  0.00     0.037 A 
HETATM   32  C   UNL     1       6.705  25.606  53.236  1.00  0.00    -0.035 A 
HETATM   33  C   UNL     1       6.121  26.485  52.159  1.00  0.00     0.050 C 
HETATM   34  C   UNL     1       6.910  24.248  52.920  1.00  0.00     0.011 A 
HETATM   35  C   UNL     1       7.499  23.382  53.836  1.00  0.00     0.024 A 
HETATM   36  C   UNL     1       7.886  23.870  55.074  1.00  0.00     0.036 A 
HETATM   37 CL   UNL     1       8.624  22.820  56.220  1.00  0.00    -0.084 Cl
HETATM   38  C   UNL     1       7.674  25.211  55.409  1.00  0.00     0.053 A 
ENDBRANCH  28  31
ENDBRANCH  23  24
ENDBRANCH   2  23
TORSDOF 7
ENDMDL
MODEL 6
REMARK VINA RESULT:      -9.2      4.133     10.107
REMARK  7 active torsions:
REMARK  status: ('A' for Active; 'I' for Inactive)
REMARK    1  A    between atoms: C_2  and  O_3 
REMARK    2  A    between atoms: O_3  and  C_4 
REMARK    3  A    between atoms: C_4  and  C_5 
REMARK    4  A    between atoms: C_10  and  N_11 
REMARK       I    between atoms: N_11  and  C_12 
REMARK    5  A    between atoms: C_12  and  C_13 
REMARK    6  A    between atoms: C_13  and  N_14 
REMARK    7  A    between atoms: N_18  and  C_19 
ROOT
HETATM    1  N   UNL     1       5.555  26.383  55.659  1.00  0.00    -0.323 N 
HETATM    2  C   UNL     1       6.117  27.607  55.923  1.00  0.00     0.248 C 
HETATM    3  O   UNL     1       7.178  28.059  55.497  1.00  0.00    -0.271 OA
HETATM    4  H   UNL     1       4.866  26.002  56.311  1.00  0.00     0.169 HD
ENDROOT
BRANCH   1   5
HETATM    5  C   UNL     1       5.989  25.470  54.700  1.00  0.00     0.080 A 
HETATM    6  C   UNL     1       5.759  25.700  53.350  1.00  0.00     0.137 A 
HETATM    7  N   UNL     1       6.265  24.626  52.659  1.00  0.00    -0.349 N 
HETATM    8  H   UNL     1       6.219  24.523  51.653  1.00  0.00     0.166 HD
HETATM    9  C   UNL     1       6.894  23.750  53.508  1.00  0.00     0.048 A 
HETATM   10  C   UNL     1       6.744  24.253  54.813  1.00  0.00     0.023 A 
HETATM   11  C   UNL     1       7.591  22.569  53.200  1.00  0.00     0.070 A 
HETATM   12  C   UNL     1       7.363  23.542  55.869  1.00  0.00     0.055 A 
HETATM   13  C   UNL     1       8.056  22.386  55.555  1.00  0.00     0.106 A 
HETATM   14  C   UNL     1       8.161  21.917  54.274  1.00  0.00     0.107 A 
HETATM   15  O   UNL     1       8.714  21.601  56.453  1.00  0.00    -0.323 OA
HETATM   16  O   UNL     1       8.895  20.775  54.197  1.00  0.00    -0.323 OA
HETATM   17  C   UNL     1       9.243  20.578  55.582  1.00  0.00     0.352 A 
BRANCH   6  18
HETATM   18  C   UNL     1       5.103  26.826  52.732  1.00  0.00     0.312 C 
HETATM   19  O   UNL     1       4.044  27.298  53.129  1.00  0.00    -0.258 OA
BRANCH  18  20
HETATM   20  O   UNL     1       5.841  27.269  51.681  1.00  0.00    -0.317 OA
BRANCH  20  21
HETATM   21  C   UNL     1       5.124  27.603  50.483  1.00  0.00     0.175 C 
HETATM   22  C   UNL     1       4.713  26.322  49.783  1.00  0.00     0.034 C 
ENDBRANCH  20  21
ENDBRANCH  18  20
ENDBRANCH   6  18
ENDBRANCH   1   5
BRANCH   2  23
HETATM   23  C   UNL     1       5.295  28.486  56.871  1.00  0.00     0.337 C 
BRANCH  23  24
HETATM   24  N   UNL     1       6.123  29.691  57.312  1.00  0.00    -0.060 N 
HETATM   25  H   UNL     1       6.490  30.088  56.429  1.00  0.00     0.280 HD
HETATM   26  C   UNL     1       5.271  30.801  57.925  1.00  0.00     0.255 C 
HETATM   27  C   UNL     1       6.136  32.045  58.210  1.00  0.00     0.150 C 
HETATM   28  N   UNL     1       7.349  31.717  58.977  1.00  0.00    -0.377 N 
HETATM   29  C   UNL     1       8.160  30.589  58.477  1.00  0.00     0.150 C 
HETATM   30  C   UNL     1       7.293  29.341  58.209  1.00  0.00     0.255 C 
BRANCH  28  31
HETATM   31  C   UNL     1       7.404  31.969  60.348  1.00  0.00     0.037 A 
HETATM   32  C   UNL     1       8.647  32.058  61.022  1.00  0.00    -0.035 A 
HETATM   33  C   UNL     1       9.968  31.960  60.300  1.00  0.00     0.050 C 
HETATM   34  C   UNL     1       8.686  32.263  62.415  1.00  0.00     0.011 A 
HETATM   35  C   UNL     1       7.514  32.424  63.147  1.00  0.00     0.024 A 
HETATM   36  C   UNL     1       6.295  32.380  62.489  1.00  0.00     0.036 A 
HETATM   37 CL   UNL     1       4.833  32.583  63.372  1.00  0.00    -0.084 Cl
HETATM   38  C   UNL     1       6.238  32.159  61.109  1.00  0.00     0.053 A 
ENDBRANCH  28  31
ENDBRANCH  23  24
ENDBRANCH   2  23
TORSDOF 7
ENDMDL
MODEL 7
REMARK VINA RESULT:      -9.1      2.180      3.812
REMARK  7 active torsions:
REMARK  status: ('A' for Active; 'I' for Inactive)
REMARK    1  A    between atoms: C_2  and  O_3 
REMARK    2  A    between atoms: O_3  and  C_4 
REMARK    3  A    between atoms: C_4  and  C_5 
REMARK    4  A    between atoms: C_10  and  N_11 
REMARK       I    between atoms: N_11  and  C_12 
REMARK    5  A    between atoms: C_12  and  C_13 
REMARK    6  A    between atoms: C_13  and  N_14 
REMARK    7  A    between atoms: N_18  and  C_19 
ROOT
HETATM    1  N   UNL     1       6.988  31.064  57.985  1.00  0.00    -0.323 N 
HETATM    2  C   UNL     1       7.903  30.050  58.107  1.00  0.00     0.248 C 
HETATM    3  O   UNL     1       8.246  29.461  59.131  1.00  0.00    -0.271 OA
HETATM    4  H   UNL     1       7.033  31.678  57.168  1.00  0.00     0.169 HD
ENDROOT
BRANCH   1   5
HETATM    5  C   UNL     1       6.120  31.512  58.978  1.00  0.00     0.080 A 
HETATM    6  C   UNL     1       4.747  31.501  58.774  1.00  0.00     0.137 A 
HETATM    7  N   UNL     1       4.160  32.023  59.901  1.00  0.00    -0.349 N 
HETATM    8  H   UNL     1       3.163  32.147  60.019  1.00  0.00     0.166 HD
HETATM    9  C   UNL     1       5.102  32.290  60.864  1.00  0.00     0.048 A 
HETATM   10  C   UNL     1       6.358  31.975  60.317  1.00  0.00     0.023 A 
HETATM   11  C   UNL     1       4.915  32.769  62.171  1.00  0.00     0.070 A 
HETATM   12  C   UNL     1       7.494  32.118  61.150  1.00  0.00     0.055 A 
HETATM   13  C   UNL     1       7.300  32.580  62.440  1.00  0.00     0.106 A 
HETATM   14  C   UNL     1       6.062  32.897  62.928  1.00  0.00     0.107 A 
HETATM   15  O   UNL     1       8.286  32.758  63.363  1.00  0.00    -0.323 OA
HETATM   16  O   UNL     1       6.105  33.319  64.220  1.00  0.00    -0.323 OA
HETATM   17  C   UNL     1       7.518  33.229  64.491  1.00  0.00     0.352 A 
BRANCH   6  18
HETATM   18  C   UNL     1       4.017  31.053  57.613  1.00  0.00     0.312 C 
HETATM   19  O   UNL     1       3.043  31.638  57.156  1.00  0.00    -0.258 OA
BRANCH  18  20
HETATM   20  O   UNL     1       4.582  29.918  57.124  1.00  0.00    -0.317 OA
BRANCH  20  21
HETATM   21  C   UNL     1       3.997  29.366  55.935  1.00  0.00     0.175 C 
HETATM   22  C   UNL     1       4.620  30.033  54.725  1.00  0.00     0.034 C 
ENDBRANCH  20  21
ENDBRANCH  18  20
ENDBRANCH   6  18
ENDBRANCH   1   5
BRANCH   2  23
HETATM   23  C   UNL     1       8.559  29.630  56.788  1.00  0.00     0.337 C 
BRANCH  23  24
HETATM   24  N   UNL     1       7.644  28.669  56.034  1.00  0.00    -0.060 N 
HETATM   25  H   UNL     1       6.788  29.221  55.847  1.00  0.00     0.280 HD
HETATM   26  C   UNL     1       8.186  28.295  54.654  1.00  0.00     0.255 C 
HETATM   27  C   UNL     1       7.152  27.449  53.884  1.00  0.00     0.150 C 
HETATM   28  N   UNL     1       6.665  26.307  54.675  1.00  0.00    -0.377 N 
HETATM   29  C   UNL     1       6.216  26.601  56.050  1.00  0.00     0.150 C 
HETATM   30  C   UNL     1       7.260  27.434  56.824  1.00  0.00     0.255 C 
BRANCH  28  31
HETATM   31  C   UNL     1       7.163  25.025  54.440  1.00  0.00     0.037 A 
HETATM   32  C   UNL     1       7.282  24.522  53.121  1.00  0.00    -0.035 A 
HETATM   33  C   UNL     1       6.951  25.352  51.906  1.00  0.00     0.050 C 
HETATM   34  C   UNL     1       7.739  23.207  52.901  1.00  0.00     0.011 A 
HETATM   35  C   UNL     1       8.121  22.396  53.964  1.00  0.00     0.024 A 
HETATM   36  C   UNL     1       8.048  22.896  55.255  1.00  0.00     0.036 A 
HETATM   37 CL   UNL     1       8.523  21.914  56.585  1.00  0.00    -0.084 Cl
HETATM   38  C   UNL     1       7.579  24.192  55.492  1.00  0.00     0.053 A 
ENDBRANCH  28  31
ENDBRANCH  23  24
ENDBRANCH   2  23
TORSDOF 7
ENDMDL
MODEL 8
REMARK VINA RESULT:      -9.1      5.139      9.224
REMARK  7 active torsions:
REMARK  status: ('A' for Active; 'I' for Inactive)
REMARK    1  A    between atoms: C_2  and  O_3 
REMARK    2  A    between atoms: O_3  and  C_4 
REMARK    3  A    between atoms: C_4  and  C_5 
REMARK    4  A    between atoms: C_10  and  N_11 
REMARK       I    between atoms: N_11  and  C_12 
REMARK    5  A    between atoms: C_12  and  C_13 
REMARK    6  A    between atoms: C_13  and  N_14 
REMARK    7  A    between atoms: N_18  and  C_19 
ROOT
HETATM    1  N   UNL     1       7.213  26.789  54.496  1.00  0.00    -0.323 N 
HETATM    2  C   UNL     1       6.057  26.905  53.765  1.00  0.00     0.248 C 
HETATM    3  O   UNL     1       5.116  26.115  53.710  1.00  0.00    -0.271 OA
HETATM    4  H   UNL     1       8.036  27.324  54.211  1.00  0.00     0.169 HD
ENDROOT
BRANCH   1   5
HETATM    5  C   UNL     1       7.474  25.831  55.473  1.00  0.00     0.080 A 
HETATM    6  C   UNL     1       7.350  26.144  56.820  1.00  0.00     0.137 A 
HETATM    7  N   UNL     1       7.699  25.025  57.536  1.00  0.00    -0.349 N 
HETATM    8  H   UNL     1       7.714  24.977  58.547  1.00  0.00     0.166 HD
HETATM    9  C   UNL     1       7.959  23.970  56.697  1.00  0.00     0.048 A 
HETATM   10  C   UNL     1       7.823  24.441  55.379  1.00  0.00     0.023 A 
HETATM   11  C   UNL     1       8.287  22.643  57.025  1.00  0.00     0.070 A 
HETATM   12  C   UNL     1       7.993  23.510  54.326  1.00  0.00     0.055 A 
HETATM   13  C   UNL     1       8.304  22.203  54.657  1.00  0.00     0.106 A 
HETATM   14  C   UNL     1       8.450  21.789  55.954  1.00  0.00     0.107 A 
HETATM   15  O   UNL     1       8.485  21.191  53.763  1.00  0.00    -0.323 OA
HETATM   16  O   UNL     1       8.744  20.464  56.046  1.00  0.00    -0.323 OA
HETATM   17  C   UNL     1       8.765  20.090  54.653  1.00  0.00     0.352 A 
BRANCH   6  18
HETATM   18  C   UNL     1       6.950  27.396  57.416  1.00  0.00     0.312 C 
HETATM   19  O   UNL     1       5.849  27.908  57.246  1.00  0.00    -0.258 OA
BRANCH  18  20
HETATM   20  O   UNL     1       7.960  27.886  58.181  1.00  0.00    -0.317 OA
BRANCH  20  21
HETATM   21  C   UNL     1       8.408  29.217  57.885  1.00  0.00     0.175 C 
HETATM   22  C   UNL     1       9.674  29.137  57.054  1.00  0.00     0.034 C 
ENDBRANCH  20  21
ENDBRANCH  18  20
ENDBRANCH   6  18
ENDBRANCH   1   5
BRANCH   2  23
HETATM   23  C   UNL     1       5.967  28.183  52.926  1.00  0.00     0.337 C 
BRANCH  23  24
HETATM   24  N   UNL     1       4.849  28.051  51.895  1.00  0.00    -0.060 N 
HETATM   25  H   UNL     1       4.257  27.281  52.254  1.00  0.00     0.280 HD
HETATM   26  C   UNL     1       3.933  29.274  51.857  1.00  0.00     0.255 C 
HETATM   27  C   UNL     1       2.742  29.021  50.912  1.00  0.00     0.150 C 
HETATM   28  N   UNL     1       3.172  28.544  49.587  1.00  0.00    -0.377 N 
HETATM   29  C   UNL     1       4.130  27.421  49.571  1.00  0.00     0.150 C 
HETATM   30  C   UNL     1       5.330  27.685  50.506  1.00  0.00     0.255 C 
BRANCH  28  31
HETATM   31  C   UNL     1       3.216  29.421  48.502  1.00  0.00     0.037 A 
HETATM   32  C   UNL     1       2.266  29.331  47.457  1.00  0.00    -0.035 A 
HETATM   33  C   UNL     1       1.123  28.346  47.483  1.00  0.00     0.050 C 
HETATM   34  C   UNL     1       2.351  30.190  46.343  1.00  0.00     0.011 A 
HETATM   35  C   UNL     1       3.340  31.167  46.269  1.00  0.00     0.024 A 
HETATM   36  C   UNL     1       4.248  31.288  47.309  1.00  0.00     0.036 A 
HETATM   37 CL   UNL     1       5.474  32.493  47.243  1.00  0.00    -0.084 Cl
HETATM   38  C   UNL     1       4.187  30.431  48.412  1.00  0.00     0.053 A 
ENDBRANCH  28  31
ENDBRANCH  23  24
ENDBRANCH   2  23
TORSDOF 7
ENDMDL
MODEL 9
REMARK VINA RESULT:      -8.7      4.025      9.533
REMARK  7 active torsions:
REMARK  status: ('A' for Active; 'I' for Inactive)
REMARK    1  A    between atoms: C_2  and  O_3 
REMARK    2  A    between atoms: O_3  and  C_4 
REMARK    3  A    between atoms: C_4  and  C_5 
REMARK    4  A    between atoms: C_10  and  N_11 
REMARK       I    between atoms: N_11  and  C_12 
REMARK    5  A    between atoms: C_12  and  C_13 
REMARK    6  A    between atoms: C_13  and  N_14 
REMARK    7  A    between atoms: N_18  and  C_19 
ROOT
HETATM    1  N   UNL     1       5.878  31.581  57.787  1.00  0.00    -0.323 N 
HETATM    2  C   UNL     1       4.562  31.520  58.169  1.00  0.00     0.248 C 
HETATM    3  O   UNL     1       3.894  30.518  58.421  1.00  0.00    -0.271 OA
HETATM    4  H   UNL     1       6.214  32.413  57.298  1.00  0.00     0.169 HD
ENDROOT
BRANCH   1   5
HETATM    5  C   UNL     1       6.783  30.522  57.785  1.00  0.00     0.080 A 
HETATM    6  C   UNL     1       7.935  30.576  58.559  1.00  0.00     0.137 A 
HETATM    7  N   UNL     1       8.638  29.418  58.329  1.00  0.00    -0.349 N 
HETATM    8  H   UNL     1       9.530  29.200  58.754  1.00  0.00     0.166 HD
HETATM    9  C   UNL     1       7.938  28.577  57.501  1.00  0.00     0.048 A 
HETATM   10  C   UNL     1       6.753  29.240  57.137  1.00  0.00     0.023 A 
HETATM   11  C   UNL     1       8.273  27.281  57.074  1.00  0.00     0.070 A 
HETATM   12  C   UNL     1       5.831  28.543  56.320  1.00  0.00     0.055 A 
HETATM   13  C   UNL     1       6.163  27.262  55.912  1.00  0.00     0.106 A 
HETATM   14  C   UNL     1       7.338  26.659  56.271  1.00  0.00     0.107 A 
HETATM   15  O   UNL     1       5.380  26.460  55.138  1.00  0.00    -0.323 OA
HETATM   16  O   UNL     1       7.451  25.401  55.768  1.00  0.00    -0.323 OA
HETATM   17  C   UNL     1       6.206  25.280  55.050  1.00  0.00     0.352 A 
BRANCH   6  18
HETATM   18  C   UNL     1       8.372  31.629  59.443  1.00  0.00     0.312 C 
HETATM   19  O   UNL     1       9.192  32.484  59.128  1.00  0.00    -0.258 OA
BRANCH  18  20
HETATM   20  O   UNL     1       7.733  31.522  60.637  1.00  0.00    -0.317 OA
BRANCH  20  21
HETATM   21  C   UNL     1       8.555  31.298  61.793  1.00  0.00     0.175 C 
HETATM   22  C   UNL     1       8.102  32.224  62.904  1.00  0.00     0.034 C 
ENDBRANCH  20  21
ENDBRANCH  18  20
ENDBRANCH   6  18
ENDBRANCH   1   5
BRANCH   2  23
HETATM   23  C   UNL     1       3.873  32.883  58.280  1.00  0.00     0.337 C 
BRANCH  23  24
HETATM   24  N   UNL     1       3.584  33.203  59.744  1.00  0.00    -0.060 N 
HETATM   25  H   UNL     1       2.912  32.473  60.040  1.00  0.00     0.280 HD
HETATM   26  C   UNL     1       4.805  33.010  60.643  1.00  0.00     0.255 C 
HETATM   27  C   UNL     1       4.415  33.200  62.123  1.00  0.00     0.150 C 
HETATM   28  N   UNL     1       3.685  34.458  62.351  1.00  0.00    -0.377 N 
HETATM   29  C   UNL     1       2.552  34.736  61.447  1.00  0.00     0.150 C 
HETATM   30  C   UNL     1       2.950  34.561  59.966  1.00  0.00     0.255 C 
BRANCH  28  31
HETATM   31  C   UNL     1       4.342  35.565  62.890  1.00  0.00     0.037 A 
HETATM   32  C   UNL     1       4.211  35.891  64.262  1.00  0.00    -0.035 A 
HETATM   33  C   UNL     1       3.424  35.037  65.225  1.00  0.00     0.050 C 
HETATM   34  C   UNL     1       4.839  37.040  64.782  1.00  0.00     0.011 A 
HETATM   35  C   UNL     1       5.632  37.848  63.974  1.00  0.00     0.024 A 
HETATM   36  C   UNL     1       5.800  37.512  62.640  1.00  0.00     0.036 A 
HETATM   37 CL   UNL     1       6.782  38.493  61.623  1.00  0.00    -0.084 Cl
HETATM   38  C   UNL     1       5.168  36.386  62.104  1.00  0.00     0.053 A 
ENDBRANCH  28  31
ENDBRANCH  23  24
ENDBRANCH   2  23
TORSDOF 7
ENDMDL
MODEL 10
REMARK VINA RESULT:      -8.6      4.030      9.645
REMARK  7 active torsions:
REMARK  status: ('A' for Active; 'I' for Inactive)
REMARK    1  A    between atoms: C_2  and  O_3 
REMARK    2  A    between atoms: O_3  and  C_4 
REMARK    3  A    between atoms: C_4  and  C_5 
REMARK    4  A    between atoms: C_10  and  N_11 
REMARK       I    between atoms: N_11  and  C_12 
REMARK    5  A    between atoms: C_12  and  C_13 
REMARK    6  A    between atoms: C_13  and  N_14 
REMARK    7  A    between atoms: N_18  and  C_19 
ROOT
HETATM    1  N   UNL     1       6.484  31.277  59.101  1.00  0.00    -0.323 N 
HETATM    2  C   UNL     1       5.495  32.063  58.566  1.00  0.00     0.248 C 
HETATM    3  O   UNL     1       5.251  32.265  57.377  1.00  0.00    -0.271 OA
HETATM    4  H   UNL     1       6.788  31.448  60.062  1.00  0.00     0.169 HD
ENDROOT
BRANCH   1   5
HETATM    5  C   UNL     1       7.305  30.397  58.398  1.00  0.00     0.080 A 
HETATM    6  C   UNL     1       8.678  30.596  58.353  1.00  0.00     0.137 A 
HETATM    7  N   UNL     1       9.212  29.601  57.572  1.00  0.00    -0.349 N 
HETATM    8  H   UNL     1      10.196  29.512  57.355  1.00  0.00     0.166 HD
HETATM    9  C   UNL     1       8.241  28.712  57.182  1.00  0.00     0.048 A 
HETATM   10  C   UNL     1       7.017  29.181  57.690  1.00  0.00     0.023 A 
HETATM   11  C   UNL     1       8.377  27.530  56.434  1.00  0.00     0.070 A 
HETATM   12  C   UNL     1       5.863  28.393  57.462  1.00  0.00     0.055 A 
HETATM   13  C   UNL     1       6.007  27.225  56.734  1.00  0.00     0.106 A 
HETATM   14  C   UNL     1       7.214  26.814  56.237  1.00  0.00     0.107 A 
HETATM   15  O   UNL     1       4.999  26.356  56.442  1.00  0.00    -0.323 OA
HETATM   16  O   UNL     1       7.124  25.635  55.564  1.00  0.00    -0.323 OA
HETATM   17  C   UNL     1       5.717  25.349  55.697  1.00  0.00     0.352 A 
BRANCH   6  18
HETATM   18  C   UNL     1       9.453  31.642  58.975  1.00  0.00     0.312 C 
HETATM   19  O   UNL     1      10.484  32.100  58.497  1.00  0.00    -0.258 OA
BRANCH  18  20
HETATM   20  O   UNL     1       8.858  32.029  60.134  1.00  0.00    -0.317 OA
BRANCH  20  21
HETATM   21  C   UNL     1       9.581  31.775  61.348  1.00  0.00     0.175 C 
HETATM   22  C   UNL     1       8.943  30.599  62.063  1.00  0.00     0.034 C 
ENDBRANCH  20  21
ENDBRANCH  18  20
ENDBRANCH   6  18
ENDBRANCH   1   5
BRANCH   2  23
HETATM   23  C   UNL     1       4.610  32.759  59.605  1.00  0.00     0.337 C 
BRANCH  23  24
HETATM   24  N   UNL     1       5.272  32.694  60.979  1.00  0.00    -0.060 N 
HETATM   25  H   UNL     1       6.055  32.027  60.856  1.00  0.00     0.280 HD
HETATM   26  C   UNL     1       5.931  34.013  61.381  1.00  0.00     0.255 C 
HETATM   27  C   UNL     1       6.708  33.842  62.701  1.00  0.00     0.150 C 
HETATM   28  N   UNL     1       5.887  33.227  63.757  1.00  0.00    -0.377 N 
HETATM   29  C   UNL     1       5.156  31.998  63.391  1.00  0.00     0.150 C 
HETATM   30  C   UNL     1       4.365  32.178  62.077  1.00  0.00     0.255 C 
BRANCH  28  31
HETATM   31  C   UNL     1       5.323  34.016  64.761  1.00  0.00     0.037 A 
HETATM   32  C   UNL     1       4.222  34.862  64.486  1.00  0.00    -0.035 A 
HETATM   33  C   UNL     1       3.554  34.909  63.135  1.00  0.00     0.050 C 
HETATM   34  C   UNL     1       3.694  35.691  65.496  1.00  0.00     0.011 A 
HETATM   35  C   UNL     1       4.214  35.665  66.786  1.00  0.00     0.024 A 
HETATM   36  C   UNL     1       5.266  34.808  67.073  1.00  0.00     0.036 A 
HETATM   37 CL   UNL     1       5.920  34.753  68.663  1.00  0.00    -0.084 Cl
HETATM   38  C   UNL     1       5.812  33.993  66.078  1.00  0.00     0.053 A 
ENDBRANCH  28  31
ENDBRANCH  23  24
ENDBRANCH   2  23
TORSDOF 7
ENDMDL
