MODEL 1
REMARK VINA RESULT:     -10.5      0.000      0.000
REMARK  6 active torsions:
REMARK  status: ('A' for Active; 'I' for Inactive)
REMARK    1  A    between atoms: N_2  and  C_4 
REMARK    2  A    between atoms: N_2  and  C_23 
REMARK    3  A    between atoms: C_4  and  C_5 
REMARK       I    between atoms: C_5  and  N_6 
REMARK    4  A    between atoms: N_6  and  C_7 
REMARK    5  A    between atoms: C_8  and  O_9 
REMARK    6  A    between atoms: C_23  and  C_24 
ROOT
HETATM    1  C   UNL     1       7.507  28.631  57.369  1.00  0.00     0.248 C 
HETATM    2  N   UNL     1       6.995  28.247  56.150  1.00  0.00    -0.323 N 
HETATM    3  O   UNL     1       7.923  27.865  58.237  1.00  0.00    -0.271 OA
HETATM    4  H   UNL     1       6.353  28.856  55.646  1.00  0.00     0.169 HD
ENDROOT
BRANCH   2   5
HETATM    5  C   UNL     1       7.109  26.958  55.577  1.00  0.00     0.071 A 
HETATM    6  C   UNL     1       7.267  26.885  54.181  1.00  0.00     0.096 A 
HETATM    7  C   UNL     1       7.488  25.664  53.524  1.00  0.00     0.054 A 
HETATM    8  C   UNL     1       7.521  24.487  54.296  1.00  0.00     0.014 A 
HETATM    9  C   UNL     1       7.333  24.595  55.669  1.00  0.00     0.089 A 
HETATM   10  C   UNL     1       7.722  23.099  54.039  1.00  0.00     0.011 A 
HETATM   11  O   UNL     1       7.408  23.372  56.261  1.00  0.00    -0.309 OA
HETATM   12  C   UNL     1       7.118  25.792  56.349  1.00  0.00     0.070 A 
HETATM   13  C   UNL     1       7.647  22.466  55.275  1.00  0.00     0.087 A 
HETATM   14  C   UNL     1       7.799  21.094  55.466  1.00  0.00     0.038 A 
HETATM   15  C   UNL     1       8.041  20.330  54.322  1.00  0.00     0.003 A 
HETATM   16  C   UNL     1       8.122  20.923  53.060  1.00  0.00     0.001 A 
HETATM   17  C   UNL     1       7.966  22.309  52.899  1.00  0.00     0.015 A 
BRANCH   6  18
HETATM   18  O   UNL     1       7.223  28.074  53.484  1.00  0.00    -0.354 OA
HETATM   19  C   UNL     1       6.070  28.142  52.640  1.00  0.00     0.210 C 
ENDBRANCH   6  18
ENDBRANCH   2   5
BRANCH   1  20
HETATM   20  C   UNL     1       7.509  30.142  57.608  1.00  0.00     0.337 C 
BRANCH  20  21
HETATM   21  N   UNL     1       6.373  30.629  58.520  1.00  0.00    -0.063 N 
HETATM   22  C   UNL     1       5.031  30.308  57.940  1.00  0.00     0.270 C 
HETATM   23  H   UNL     1       6.480  30.081  59.384  1.00  0.00     0.280 HD
BRANCH  21  24
HETATM   24  C   UNL     1       6.477  32.067  59.007  1.00  0.00     0.273 C 
BRANCH  24  25
HETATM   25  C   UNL     1       6.916  32.261  60.433  1.00  0.00    -0.032 A 
HETATM   26  C   UNL     1       8.206  31.876  60.841  1.00  0.00     0.012 A 
HETATM   27  C   UNL     1       8.624  32.086  62.157  1.00  0.00     0.043 A 
HETATM   28  C   UNL     1       7.757  32.676  63.067  1.00  0.00     0.116 A 
HETATM   29  F   UNL     1       8.163  32.881  64.326  1.00  0.00    -0.206 F 
HETATM   30  C   UNL     1       6.479  33.067  62.686  1.00  0.00     0.043 A 
HETATM   31  C   UNL     1       6.060  32.866  61.370  1.00  0.00     0.012 A 
ENDBRANCH  24  25
ENDBRANCH  21  24
ENDBRANCH  20  21
ENDBRANCH   1  20
TORSDOF 6
ENDMDL
MODEL 2
REMARK VINA RESULT:     -10.2      1.301      1.887
REMARK  6 active torsions:
REMARK  status: ('A' for Active; 'I' for Inactive)
REMARK    1  A    between atoms: N_2  and  C_4 
REMARK    2  A    between atoms: N_2  and  C_23 
REMARK    3  A    between atoms: C_4  and  C_5 
REMARK       I    between atoms: C_5  and  N_6 
REMARK    4  A    between atoms: N_6  and  C_7 
REMARK    5  A    between atoms: C_8  and  O_9 
REMARK    6  A    between atoms: C_23  and  C_24 
ROOT
HETATM    1  C   UNL     1       8.238  28.815  57.337  1.00  0.00     0.248 C 
HETATM    2  N   UNL     1       7.223  27.884  57.331  1.00  0.00    -0.323 N 
HETATM    3  O   UNL     1       9.419  28.580  57.085  1.00  0.00    -0.271 OA
HETATM    4  H   UNL     1       6.379  28.038  57.879  1.00  0.00     0.169 HD
ENDROOT
BRANCH   2   5
HETATM    5  C   UNL     1       7.301  26.584  56.777  1.00  0.00     0.071 A 
HETATM    6  C   UNL     1       6.939  26.436  55.426  1.00  0.00     0.096 A 
HETATM    7  C   UNL     1       7.074  25.211  54.753  1.00  0.00     0.054 A 
HETATM    8  C   UNL     1       7.560  24.104  55.475  1.00  0.00     0.014 A 
HETATM    9  C   UNL     1       7.880  24.280  56.815  1.00  0.00     0.089 A 
HETATM   10  C   UNL     1       7.849  22.738  55.182  1.00  0.00     0.011 A 
HETATM   11  O   UNL     1       8.345  23.121  57.355  1.00  0.00    -0.309 OA
HETATM   12  C   UNL     1       7.763  25.485  57.508  1.00  0.00     0.070 A 
HETATM   13  C   UNL     1       8.329  22.187  56.365  1.00  0.00     0.087 A 
HETATM   14  C   UNL     1       8.737  20.863  56.506  1.00  0.00     0.038 A 
HETATM   15  C   UNL     1       8.645  20.058  55.368  1.00  0.00     0.003 A 
HETATM   16  C   UNL     1       8.166  20.569  54.159  1.00  0.00     0.001 A 
HETATM   17  C   UNL     1       7.764  21.909  54.047  1.00  0.00     0.015 A 
BRANCH   6  18
HETATM   18  O   UNL     1       6.469  27.560  54.778  1.00  0.00    -0.354 OA
HETATM   19  C   UNL     1       7.325  27.931  53.693  1.00  0.00     0.210 C 
ENDBRANCH   6  18
ENDBRANCH   2   5
BRANCH   1  20
HETATM   20  C   UNL     1       7.797  30.230  57.719  1.00  0.00     0.337 C 
BRANCH  20  21
HETATM   21  N   UNL     1       8.768  30.949  58.668  1.00  0.00    -0.063 N 
HETATM   22  C   UNL     1      10.156  30.980  58.110  1.00  0.00     0.270 C 
HETATM   23  H   UNL     1       8.423  31.918  58.706  1.00  0.00     0.280 HD
BRANCH  21  24
HETATM   24  C   UNL     1       8.726  30.509  60.124  1.00  0.00     0.273 C 
BRANCH  24  25
HETATM   25  C   UNL     1       8.154  31.496  61.105  1.00  0.00    -0.032 A 
HETATM   26  C   UNL     1       7.110  32.358  60.724  1.00  0.00     0.012 A 
HETATM   27  C   UNL     1       6.557  33.250  61.645  1.00  0.00     0.043 A 
HETATM   28  C   UNL     1       7.045  33.287  62.944  1.00  0.00     0.116 A 
HETATM   29  F   UNL     1       6.510  34.139  63.825  1.00  0.00    -0.206 F 
HETATM   30  C   UNL     1       8.073  32.442  63.344  1.00  0.00     0.043 A 
HETATM   31  C   UNL     1       8.624  31.543  62.429  1.00  0.00     0.012 A 
ENDBRANCH  24  25
ENDBRANCH  21  24
ENDBRANCH  20  21
ENDBRANCH   1  20
TORSDOF 6
ENDMDL
MODEL 3
REMARK VINA RESULT:     -10.1      5.532      8.993
REMARK  6 active torsions:
REMARK  status: ('A' for Active; 'I' for Inactive)
REMARK    1  A    between atoms: N_2  and  C_4 
REMARK    2  A    between atoms: N_2  and  C_23 
REMARK    3  A    between atoms: C_4  and  C_5 
REMARK       I    between atoms: C_5  and  N_6 
REMARK    4  A    between atoms: N_6  and  C_7 
REMARK    5  A    between atoms: C_8  and  O_9 
REMARK    6  A    between atoms: C_23  and  C_24 
ROOT
HETATM    1  C   UNL     1       5.310  28.039  53.037  1.00  0.00     0.248 C 
HETATM    2  N   UNL     1       4.817  26.887  53.606  1.00  0.00    -0.323 N 
HETATM    3  O   UNL     1       6.490  28.388  53.047  1.00  0.00    -0.271 OA
HETATM    4  H   UNL     1       3.840  26.827  53.885  1.00  0.00     0.169 HD
ENDROOT
BRANCH   2   5
HETATM    5  C   UNL     1       5.593  25.788  54.047  1.00  0.00     0.071 A 
HETATM    6  C   UNL     1       5.796  25.658  55.434  1.00  0.00     0.096 A 
HETATM    7  C   UNL     1       6.464  24.553  55.983  1.00  0.00     0.054 A 
HETATM    8  C   UNL     1       6.964  23.572  55.105  1.00  0.00     0.014 A 
HETATM    9  C   UNL     1       6.770  23.748  53.741  1.00  0.00     0.089 A 
HETATM   10  C   UNL     1       7.665  22.336  55.243  1.00  0.00     0.011 A 
HETATM   11  O   UNL     1       7.300  22.707  53.042  1.00  0.00    -0.309 OA
HETATM   12  C   UNL     1       6.105  24.830  53.167  1.00  0.00     0.070 A 
HETATM   13  C   UNL     1       7.839  21.851  53.951  1.00  0.00     0.087 A 
HETATM   14  C   UNL     1       8.477  20.651  53.643  1.00  0.00     0.038 A 
HETATM   15  C   UNL     1       8.964  19.909  54.722  1.00  0.00     0.003 A 
HETATM   16  C   UNL     1       8.813  20.360  56.035  1.00  0.00     0.001 A 
HETATM   17  C   UNL     1       8.164  21.573  56.315  1.00  0.00     0.015 A 
BRANCH   6  18
HETATM   18  O   UNL     1       5.282  26.654  56.236  1.00  0.00    -0.354 OA
HETATM   19  C   UNL     1       6.321  27.476  56.777  1.00  0.00     0.210 C 
ENDBRANCH   6  18
ENDBRANCH   2   5
BRANCH   1  20
HETATM   20  C   UNL     1       4.250  28.924  52.376  1.00  0.00     0.337 C 
BRANCH  20  21
HETATM   21  N   UNL     1       4.367  28.999  50.847  1.00  0.00    -0.063 N 
HETATM   22  C   UNL     1       5.248  30.131  50.420  1.00  0.00     0.270 C 
HETATM   23  H   UNL     1       4.832  28.121  50.579  1.00  0.00     0.280 HD
BRANCH  21  24
HETATM   24  C   UNL     1       3.057  28.946  50.075  1.00  0.00     0.273 C 
BRANCH  24  25
HETATM   25  C   UNL     1       2.928  27.852  49.049  1.00  0.00    -0.032 A 
HETATM   26  C   UNL     1       1.751  27.722  48.290  1.00  0.00     0.012 A 
HETATM   27  C   UNL     1       1.645  26.727  47.316  1.00  0.00     0.043 A 
HETATM   28  C   UNL     1       2.708  25.860  47.099  1.00  0.00     0.116 A 
HETATM   29  F   UNL     1       2.604  24.912  46.161  1.00  0.00    -0.206 F 
HETATM   30  C   UNL     1       3.881  25.972  47.835  1.00  0.00     0.043 A 
HETATM   31  C   UNL     1       3.995  26.970  48.805  1.00  0.00     0.012 A 
ENDBRANCH  24  25
ENDBRANCH  21  24
ENDBRANCH  20  21
ENDBRANCH   1  20
TORSDOF 6
ENDMDL
MODEL 4
REMARK VINA RESULT:     -10.1      3.594     10.187
REMARK  6 active torsions:
REMARK  status: ('A' for Active; 'I' for Inactive)
REMARK    1  A    between atoms: N_2  and  C_4 
REMARK    2  A    between atoms: N_2  and  C_23 
REMARK    3  A    between atoms: C_4  and  C_5 
REMARK       I    between atoms: C_5  and  N_6 
REMARK    4  A    between atoms: N_6  and  C_7 
REMARK    5  A    between atoms: C_8  and  O_9 
REMARK    6  A    between atoms: C_23  and  C_24 
ROOT
HETATM    1  C   UNL     1       7.830  27.648  57.005  1.00  0.00     0.248 C 
HETATM    2  N   UNL     1       7.805  29.018  56.873  1.00  0.00    -0.323 N 
HETATM    3  O   UNL     1       7.903  27.038  58.071  1.00  0.00    -0.271 OA
HETATM    4  H   UNL     1       8.106  29.458  56.005  1.00  0.00     0.169 HD
ENDROOT
BRANCH   2   5
HETATM    5  C   UNL     1       7.582  29.943  57.921  1.00  0.00     0.071 A 
HETATM    6  C   UNL     1       6.520  30.853  57.762  1.00  0.00     0.096 A 
HETATM    7  C   UNL     1       6.151  31.744  58.782  1.00  0.00     0.054 A 
HETATM    8  C   UNL     1       6.893  31.733  59.979  1.00  0.00     0.014 A 
HETATM    9  C   UNL     1       7.952  30.840  60.089  1.00  0.00     0.089 A 
HETATM   10  C   UNL     1       6.847  32.437  61.219  1.00  0.00     0.011 A 
HETATM   11  O   UNL     1       8.549  30.950  61.307  1.00  0.00    -0.309 OA
HETATM   12  C   UNL     1       8.338  29.940  59.097  1.00  0.00     0.070 A 
HETATM   13  C   UNL     1       7.878  31.915  61.993  1.00  0.00     0.087 A 
HETATM   14  C   UNL     1       8.173  32.329  63.290  1.00  0.00     0.038 A 
HETATM   15  C   UNL     1       7.364  33.336  63.822  1.00  0.00     0.003 A 
HETATM   16  C   UNL     1       6.318  33.890  63.079  1.00  0.00     0.001 A 
HETATM   17  C   UNL     1       6.045  33.451  61.774  1.00  0.00     0.015 A 
BRANCH   6  18
HETATM   18  O   UNL     1       5.836  30.812  56.566  1.00  0.00    -0.354 OA
HETATM   19  C   UNL     1       4.574  31.480  56.664  1.00  0.00     0.210 C 
ENDBRANCH   6  18
ENDBRANCH   2   5
BRANCH   1  20
HETATM   20  C   UNL     1       7.785  26.883  55.680  1.00  0.00     0.337 C 
BRANCH  20  21
HETATM   21  N   UNL     1       6.618  25.890  55.574  1.00  0.00    -0.063 N 
HETATM   22  C   UNL     1       5.336  26.500  56.049  1.00  0.00     0.270 C 
HETATM   23  H   UNL     1       6.523  25.707  54.566  1.00  0.00     0.280 HD
BRANCH  21  24
HETATM   24  C   UNL     1       6.864  24.506  56.156  1.00  0.00     0.273 C 
BRANCH  24  25
HETATM   25  C   UNL     1       7.291  23.438  55.186  1.00  0.00    -0.032 A 
HETATM   26  C   UNL     1       7.676  22.167  55.649  1.00  0.00     0.012 A 
HETATM   27  C   UNL     1       8.040  21.166  54.746  1.00  0.00     0.043 A 
HETATM   28  C   UNL     1       8.026  21.431  53.383  1.00  0.00     0.116 A 
HETATM   29  F   UNL     1       8.371  20.469  52.520  1.00  0.00    -0.206 F 
HETATM   30  C   UNL     1       7.647  22.679  52.903  1.00  0.00     0.043 A 
HETATM   31  C   UNL     1       7.274  23.680  53.801  1.00  0.00     0.012 A 
ENDBRANCH  24  25
ENDBRANCH  21  24
ENDBRANCH  20  21
ENDBRANCH   1  20
TORSDOF 6
ENDMDL
MODEL 5
REMARK VINA RESULT:     -10.1      3.491      9.589
REMARK  6 active torsions:
REMARK  status: ('A' for Active; 'I' for Inactive)
REMARK    1  A    between atoms: N_2  and  C_4 
REMARK    2  A    between atoms: N_2  and  C_23 
REMARK    3  A    between atoms: C_4  and  C_5 
REMARK       I    between atoms: C_5  and  N_6 
REMARK    4  A    between atoms: N_6  and  C_7 
REMARK    5  A    between atoms: C_8  and  O_9 
REMARK    6  A    between atoms: C_23  and  C_24 
ROOT
HETATM    1  C   UNL     1       5.822  27.822  55.004  1.00  0.00     0.248 C 
HETATM    2  N   UNL     1       6.662  28.903  55.146  1.00  0.00    -0.323 N 
HETATM    3  O   UNL     1       5.304  27.199  55.930  1.00  0.00    -0.271 OA
HETATM    4  H   UNL     1       7.326  29.140  54.411  1.00  0.00     0.169 HD
ENDROOT
BRANCH   2   5
HETATM    5  C   UNL     1       6.854  29.647  56.334  1.00  0.00     0.071 A 
HETATM    6  C   UNL     1       5.970  30.714  56.577  1.00  0.00     0.096 A 
HETATM    7  C   UNL     1       6.010  31.452  57.771  1.00  0.00     0.054 A 
HETATM    8  C   UNL     1       6.989  31.119  58.728  1.00  0.00     0.014 A 
HETATM    9  C   UNL     1       7.863  30.078  58.442  1.00  0.00     0.089 A 
HETATM   10  C   UNL     1       7.353  31.588  60.025  1.00  0.00     0.011 A 
HETATM   11  O   UNL     1       8.729  29.881  59.472  1.00  0.00    -0.309 OA
HETATM   12  C   UNL     1       7.843  29.324  57.269  1.00  0.00     0.070 A 
HETATM   13  C   UNL     1       8.419  30.793  60.433  1.00  0.00     0.087 A 
HETATM   14  C   UNL     1       9.070  30.920  61.658  1.00  0.00     0.038 A 
HETATM   15  C   UNL     1       8.600  31.921  62.512  1.00  0.00     0.003 A 
HETATM   16  C   UNL     1       7.534  32.744  62.142  1.00  0.00     0.001 A 
HETATM   17  C   UNL     1       6.897  32.591  60.901  1.00  0.00     0.015 A 
BRANCH   6  18
HETATM   18  O   UNL     1       5.038  30.988  55.599  1.00  0.00    -0.354 OA
HETATM   19  C   UNL     1       3.706  30.762  56.071  1.00  0.00     0.210 C 
ENDBRANCH   6  18
ENDBRANCH   2   5
BRANCH   1  20
HETATM   20  C   UNL     1       5.572  27.399  53.554  1.00  0.00     0.337 C 
BRANCH  20  21
HETATM   21  N   UNL     1       6.052  25.977  53.230  1.00  0.00    -0.063 N 
HETATM   22  C   UNL     1       4.930  24.989  53.309  1.00  0.00     0.270 C 
HETATM   23  H   UNL     1       6.359  26.024  52.249  1.00  0.00     0.280 HD
BRANCH  21  24
HETATM   24  C   UNL     1       7.301  25.511  53.962  1.00  0.00     0.273 C 
BRANCH  24  25
HETATM   25  C   UNL     1       7.505  24.022  54.059  1.00  0.00    -0.032 A 
HETATM   26  C   UNL     1       7.825  23.270  52.915  1.00  0.00     0.012 A 
HETATM   27  C   UNL     1       8.046  21.895  53.012  1.00  0.00     0.043 A 
HETATM   28  C   UNL     1       7.944  21.268  54.247  1.00  0.00     0.116 A 
HETATM   29  F   UNL     1       8.162  19.950  54.337  1.00  0.00    -0.206 F 
HETATM   30  C   UNL     1       7.632  21.991  55.391  1.00  0.00     0.043 A 
HETATM   31  C   UNL     1       7.418  23.368  55.300  1.00  0.00     0.012 A 
ENDBRANCH  24  25
ENDBRANCH  21  24
ENDBRANCH  20  21
ENDBRANCH   1  20
TORSDOF 6
ENDMDL
MODEL 6
REMARK VINA RESULT:     -10.1      3.381      9.699
REMARK  6 active torsions:
REMARK  status: ('A' for Active; 'I' for Inactive)
REMARK    1  A    between atoms: N_2  and  C_4 
REMARK    2  A    between atoms: N_2  and  C_23 
REMARK    3  A    between atoms: C_4  and  C_5 
REMARK       I    between atoms: C_5  and  N_6 
REMARK    4  A    between atoms: N_6  and  C_7 
REMARK    5  A    between atoms: C_8  and  O_9 
REMARK    6  A    between atoms: C_23  and  C_24 
ROOT
HETATM    1  C   UNL     1       6.167  28.519  55.251  1.00  0.00     0.248 C 
HETATM    2  N   UNL     1       7.046  29.504  55.637  1.00  0.00    -0.323 N 
HETATM    3  O   UNL     1       5.613  27.724  56.010  1.00  0.00    -0.271 OA
HETATM    4  H   UNL     1       7.729  29.873  54.978  1.00  0.00     0.169 HD
ENDROOT
BRANCH   2   5
HETATM    5  C   UNL     1       7.252  29.952  56.965  1.00  0.00     0.071 A 
HETATM    6  C   UNL     1       8.464  29.596  57.584  1.00  0.00     0.096 A 
HETATM    7  C   UNL     1       8.811  30.070  58.859  1.00  0.00     0.054 A 
HETATM    8  C   UNL     1       7.895  30.901  59.533  1.00  0.00     0.014 A 
HETATM    9  C   UNL     1       6.696  31.208  58.903  1.00  0.00     0.089 A 
HETATM   10  C   UNL     1       7.861  31.580  60.787  1.00  0.00     0.011 A 
HETATM   11  O   UNL     1       5.939  32.026  59.682  1.00  0.00    -0.309 OA
HETATM   12  C   UNL     1       6.327  30.758  57.636  1.00  0.00     0.070 A 
HETATM   13  C   UNL     1       6.645  32.254  60.823  1.00  0.00     0.087 A 
HETATM   14  C   UNL     1       6.220  33.052  61.883  1.00  0.00     0.038 A 
HETATM   15  C   UNL     1       7.093  33.163  62.968  1.00  0.00     0.003 A 
HETATM   16  C   UNL     1       8.323  32.501  62.976  1.00  0.00     0.001 A 
HETATM   17  C   UNL     1       8.724  31.704  61.892  1.00  0.00     0.015 A 
BRANCH   6  18
HETATM   18  O   UNL     1       9.315  28.779  56.869  1.00  0.00    -0.354 OA
HETATM   19  C   UNL     1      10.587  29.403  56.665  1.00  0.00     0.210 C 
ENDBRANCH   6  18
ENDBRANCH   2   5
BRANCH   1  20
HETATM   20  C   UNL     1       5.920  28.445  53.742  1.00  0.00     0.337 C 
BRANCH  20  21
HETATM   21  N   UNL     1       6.316  27.102  53.112  1.00  0.00    -0.063 N 
HETATM   22  C   UNL     1       5.168  26.142  53.105  1.00  0.00     0.270 C 
HETATM   23  H   UNL     1       6.539  27.330  52.134  1.00  0.00     0.280 HD
BRANCH  21  24
HETATM   24  C   UNL     1       7.604  26.478  53.625  1.00  0.00     0.273 C 
BRANCH  24  25
HETATM   25  C   UNL     1       7.596  24.985  53.817  1.00  0.00    -0.032 A 
HETATM   26  C   UNL     1       7.883  24.126  52.740  1.00  0.00     0.012 A 
HETATM   27  C   UNL     1       7.906  22.742  52.927  1.00  0.00     0.043 A 
HETATM   28  C   UNL     1       7.641  22.213  54.183  1.00  0.00     0.116 A 
HETATM   29  F   UNL     1       7.670  20.887  54.359  1.00  0.00    -0.206 F 
HETATM   30  C   UNL     1       7.358  23.042  55.261  1.00  0.00     0.043 A 
HETATM   31  C   UNL     1       7.341  24.427  55.081  1.00  0.00     0.012 A 
ENDBRANCH  24  25
ENDBRANCH  21  24
ENDBRANCH  20  21
ENDBRANCH   1  20
TORSDOF 6
ENDMDL
MODEL 7
REMARK VINA RESULT:     -10.0      1.723      2.145
REMARK  6 active torsions:
REMARK  status: ('A' for Active; 'I' for Inactive)
REMARK    1  A    between atoms: N_2  and  C_4 
REMARK    2  A    between atoms: N_2  and  C_23 
REMARK    3  A    between atoms: C_4  and  C_5 
REMARK       I    between atoms: C_5  and  N_6 
REMARK    4  A    between atoms: N_6  and  C_7 
REMARK    5  A    between atoms: C_8  and  O_9 
REMARK    6  A    between atoms: C_23  and  C_24 
ROOT
HETATM    1  C   UNL     1       5.900  28.535  55.347  1.00  0.00     0.248 C 
HETATM    2  N   UNL     1       5.177  27.367  55.259  1.00  0.00    -0.323 N 
HETATM    3  O   UNL     1       7.128  28.610  55.379  1.00  0.00    -0.271 OA
HETATM    4  H   UNL     1       4.216  27.329  55.595  1.00  0.00     0.169 HD
ENDROOT
BRANCH   2   5
HETATM    5  C   UNL     1       5.701  26.097  54.918  1.00  0.00     0.071 A 
HETATM    6  C   UNL     1       5.698  25.743  53.556  1.00  0.00     0.096 A 
HETATM    7  C   UNL     1       6.284  24.552  53.100  1.00  0.00     0.054 A 
HETATM    8  C   UNL     1       6.859  23.685  54.049  1.00  0.00     0.014 A 
HETATM    9  C   UNL     1       6.818  24.053  55.388  1.00  0.00     0.089 A 
HETATM   10  C   UNL     1       7.540  22.432  54.011  1.00  0.00     0.011 A 
HETATM   11  O   UNL     1       7.427  23.116  56.163  1.00  0.00    -0.309 OA
HETATM   12  C   UNL     1       6.250  25.232  55.870  1.00  0.00     0.070 A 
HETATM   13  C   UNL     1       7.868  22.136  55.330  1.00  0.00     0.087 A 
HETATM   14  C   UNL     1       8.554  20.991  55.730  1.00  0.00     0.038 A 
HETATM   15  C   UNL     1       8.923  20.100  54.719  1.00  0.00     0.003 A 
HETATM   16  C   UNL     1       8.613  20.357  53.381  1.00  0.00     0.001 A 
HETATM   17  C   UNL     1       7.922  21.521  53.008  1.00  0.00     0.015 A 
BRANCH   6  18
HETATM   18  O   UNL     1       5.117  26.636  52.680  1.00  0.00    -0.354 OA
HETATM   19  C   UNL     1       5.682  26.522  51.370  1.00  0.00     0.210 C 
ENDBRANCH   6  18
ENDBRANCH   2   5
BRANCH   1  20
HETATM   20  C   UNL     1       5.047  29.803  55.431  1.00  0.00     0.337 C 
BRANCH  20  21
HETATM   21  N   UNL     1       4.809  30.299  56.865  1.00  0.00    -0.063 N 
HETATM   22  C   UNL     1       3.348  30.458  57.152  1.00  0.00     0.270 C 
HETATM   23  H   UNL     1       5.165  29.542  57.463  1.00  0.00     0.280 HD
BRANCH  21  24
HETATM   24  C   UNL     1       5.631  31.502  57.301  1.00  0.00     0.273 C 
BRANCH  24  25
HETATM   25  C   UNL     1       6.594  31.279  58.436  1.00  0.00    -0.032 A 
HETATM   26  C   UNL     1       7.590  30.290  58.342  1.00  0.00     0.012 A 
HETATM   27  C   UNL     1       8.504  30.106  59.381  1.00  0.00     0.043 A 
HETATM   28  C   UNL     1       8.425  30.904  60.515  1.00  0.00     0.116 A 
HETATM   29  F   UNL     1       9.306  30.728  61.507  1.00  0.00    -0.206 F 
HETATM   30  C   UNL     1       7.452  31.889  60.628  1.00  0.00     0.043 A 
HETATM   31  C   UNL     1       6.541  32.081  59.588  1.00  0.00     0.012 A 
ENDBRANCH  24  25
ENDBRANCH  21  24
ENDBRANCH  20  21
ENDBRANCH   1  20
TORSDOF 6
ENDMDL
MODEL 8
REMARK VINA RESULT:      -9.6      3.540     10.457
REMARK  6 active torsions:
REMARK  status: ('A' for Active; 'I' for Inactive)
REMARK    1  A    between atoms: N_2  and  C_4 
REMARK    2  A    between atoms: N_2  and  C_23 
REMARK    3  A    between atoms: C_4  and  C_5 
REMARK       I    between atoms: C_5  and  N_6 
REMARK    4  A    between atoms: N_6  and  C_7 
REMARK    5  A    between atoms: C_8  and  O_9 
REMARK    6  A    between atoms: C_23  and  C_24 
ROOT
HETATM    1  C   UNL     1       6.187  29.281  56.791  1.00  0.00     0.248 C 
HETATM    2  N   UNL     1       6.990  30.318  57.210  1.00  0.00    -0.323 N 
HETATM    3  O   UNL     1       5.597  28.496  57.532  1.00  0.00    -0.271 OA
HETATM    4  H   UNL     1       7.716  30.688  56.599  1.00  0.00     0.169 HD
ENDROOT
BRANCH   2   5
HETATM    5  C   UNL     1       7.057  30.828  58.529  1.00  0.00     0.071 A 
HETATM    6  C   UNL     1       8.149  30.426  59.320  1.00  0.00     0.096 A 
HETATM    7  C   UNL     1       8.364  30.950  60.605  1.00  0.00     0.054 A 
HETATM    8  C   UNL     1       7.435  31.880  61.110  1.00  0.00     0.014 A 
HETATM    9  C   UNL     1       6.354  32.231  60.312  1.00  0.00     0.089 A 
HETATM   10  C   UNL     1       7.291  32.633  62.313  1.00  0.00     0.011 A 
HETATM   11  O   UNL     1       5.567  33.144  60.943  1.00  0.00    -0.309 OA
HETATM   12  C   UNL     1       6.118  31.734  59.031  1.00  0.00     0.070 A 
HETATM   13  C   UNL     1       6.136  33.390  62.154  1.00  0.00     0.087 A 
HETATM   14  C   UNL     1       5.640  34.277  63.107  1.00  0.00     0.038 A 
HETATM   15  C   UNL     1       6.372  34.391  64.292  1.00  0.00     0.003 A 
HETATM   16  C   UNL     1       7.537  33.647  64.496  1.00  0.00     0.001 A 
HETATM   17  C   UNL     1       8.013  32.762  63.515  1.00  0.00     0.015 A 
BRANCH   6  18
HETATM   18  O   UNL     1       9.020  29.512  58.766  1.00  0.00    -0.354 OA
HETATM   19  C   UNL     1      10.099  30.165  58.089  1.00  0.00     0.210 C 
ENDBRANCH   6  18
ENDBRANCH   2   5
BRANCH   1  20
HETATM   20  C   UNL     1       6.082  29.136  55.271  1.00  0.00     0.337 C 
BRANCH  20  21
HETATM   21  N   UNL     1       6.984  28.039  54.687  1.00  0.00    -0.063 N 
HETATM   22  C   UNL     1       8.364  28.552  54.418  1.00  0.00     0.270 C 
HETATM   23  H   UNL     1       7.052  27.334  55.434  1.00  0.00     0.280 HD
BRANCH  21  24
HETATM   24  C   UNL     1       6.408  27.252  53.519  1.00  0.00     0.273 C 
BRANCH  24  25
HETATM   25  C   UNL     1       6.830  25.812  53.408  1.00  0.00    -0.032 A 
HETATM   26  C   UNL     1       6.586  24.914  54.463  1.00  0.00     0.012 A 
HETATM   27  C   UNL     1       6.948  23.571  54.346  1.00  0.00     0.043 A 
HETATM   28  C   UNL     1       7.557  23.121  53.182  1.00  0.00     0.116 A 
HETATM   29  F   UNL     1       7.898  21.832  53.071  1.00  0.00    -0.206 F 
HETATM   30  C   UNL     1       7.805  23.989  52.126  1.00  0.00     0.043 A 
HETATM   31  C   UNL     1       7.437  25.332  52.235  1.00  0.00     0.012 A 
ENDBRANCH  24  25
ENDBRANCH  21  24
ENDBRANCH  20  21
ENDBRANCH   1  20
TORSDOF 6
ENDMDL
MODEL 9
REMARK VINA RESULT:      -9.4      6.489      9.920
REMARK  6 active torsions:
REMARK  status: ('A' for Active; 'I' for Inactive)
REMARK    1  A    between atoms: N_2  and  C_4 
REMARK    2  A    between atoms: N_2  and  C_23 
REMARK    3  A    between atoms: C_4  and  C_5 
REMARK       I    between atoms: C_5  and  N_6 
REMARK    4  A    between atoms: N_6  and  C_7 
REMARK    5  A    between atoms: C_8  and  O_9 
REMARK    6  A    between atoms: C_23  and  C_24 
ROOT
HETATM    1  C   UNL     1       5.329  26.529  50.738  1.00  0.00     0.248 C 
HETATM    2  N   UNL     1       6.509  26.571  51.446  1.00  0.00    -0.323 N 
HETATM    3  O   UNL     1       4.597  25.546  50.634  1.00  0.00    -0.271 OA
HETATM    4  H   UNL     1       7.228  27.252  51.210  1.00  0.00     0.169 HD
ENDROOT
BRANCH   2   5
HETATM    5  C   UNL     1       6.941  25.604  52.385  1.00  0.00     0.071 A 
HETATM    6  C   UNL     1       6.874  25.953  53.747  1.00  0.00     0.096 A 
HETATM    7  C   UNL     1       7.183  25.035  54.762  1.00  0.00     0.054 A 
HETATM    8  C   UNL     1       7.598  23.742  54.388  1.00  0.00     0.014 A 
HETATM    9  C   UNL     1       7.680  23.442  53.034  1.00  0.00     0.089 A 
HETATM   10  C   UNL     1       7.979  22.551  55.074  1.00  0.00     0.011 A 
HETATM   11  O   UNL     1       8.080  22.155  52.850  1.00  0.00    -0.309 OA
HETATM   12  C   UNL     1       7.373  24.330  52.004  1.00  0.00     0.070 A 
HETATM   13  C   UNL     1       8.259  21.613  54.085  1.00  0.00     0.087 A 
HETATM   14  C   UNL     1       8.663  20.304  54.336  1.00  0.00     0.038 A 
HETATM   15  C   UNL     1       8.788  19.937  55.679  1.00  0.00     0.003 A 
HETATM   16  C   UNL     1       8.519  20.846  56.704  1.00  0.00     0.001 A 
HETATM   17  C   UNL     1       8.113  22.160  56.420  1.00  0.00     0.015 A 
BRANCH   6  18
HETATM   18  O   UNL     1       6.461  27.235  54.043  1.00  0.00    -0.354 OA
HETATM   19  C   UNL     1       5.248  27.229  54.802  1.00  0.00     0.210 C 
ENDBRANCH   6  18
ENDBRANCH   2   5
BRANCH   1  20
HETATM   20  C   UNL     1       4.969  27.837  50.028  1.00  0.00     0.337 C 
BRANCH  20  21
HETATM   21  N   UNL     1       3.908  27.677  48.930  1.00  0.00    -0.063 N 
HETATM   22  C   UNL     1       4.474  27.972  47.576  1.00  0.00     0.270 C 
HETATM   23  H   UNL     1       3.657  26.680  48.955  1.00  0.00     0.280 HD
BRANCH  21  24
HETATM   24  C   UNL     1       2.579  28.375  49.178  1.00  0.00     0.273 C 
BRANCH  24  25
HETATM   25  C   UNL     1       1.644  28.473  48.003  1.00  0.00    -0.032 A 
HETATM   26  C   UNL     1       0.971  27.332  47.530  1.00  0.00     0.012 A 
HETATM   27  C   UNL     1       0.079  27.431  46.461  1.00  0.00     0.043 A 
HETATM   28  C   UNL     1      -0.141  28.663  45.860  1.00  0.00     0.116 A 
HETATM   29  F   UNL     1      -1.001  28.754  44.839  1.00  0.00    -0.206 F 
HETATM   30  C   UNL     1       0.510  29.804  46.312  1.00  0.00     0.043 A 
HETATM   31  C   UNL     1       1.397  29.712  47.386  1.00  0.00     0.012 A 
ENDBRANCH  24  25
ENDBRANCH  21  24
ENDBRANCH  20  21
ENDBRANCH   1  20
TORSDOF 6
ENDMDL
MODEL 10
REMARK VINA RESULT:      -9.2      6.100     10.195
REMARK  6 active torsions:
REMARK  status: ('A' for Active; 'I' for Inactive)
REMARK    1  A    between atoms: N_2  and  C_4 
REMARK    2  A    between atoms: N_2  and  C_23 
REMARK    3  A    between atoms: C_4  and  C_5 
REMARK       I    between atoms: C_5  and  N_6 
REMARK    4  A    between atoms: N_6  and  C_7 
REMARK    5  A    between atoms: C_8  and  O_9 
REMARK    6  A    between atoms: C_23  and  C_24 
ROOT
HETATM    1  C   UNL     1       5.409  25.823  51.910  1.00  0.00     0.248 C 
HETATM    2  N   UNL     1       4.470  26.741  51.494  1.00  0.00    -0.323 N 
HETATM    3  O   UNL     1       6.516  25.658  51.399  1.00  0.00    -0.271 OA
HETATM    4  H   UNL     1       3.483  26.595  51.695  1.00  0.00     0.169 HD
ENDROOT
BRANCH   2   5
HETATM    5  C   UNL     1       4.708  27.820  50.609  1.00  0.00     0.071 A 
HETATM    6  C   UNL     1       4.155  27.728  49.318  1.00  0.00     0.096 A 
HETATM    7  C   UNL     1       4.246  28.784  48.398  1.00  0.00     0.054 A 
HETATM    8  C   UNL     1       4.938  29.948  48.785  1.00  0.00     0.014 A 
HETATM    9  C   UNL     1       5.495  29.992  50.057  1.00  0.00     0.089 A 
HETATM   10  C   UNL     1       5.241  31.206  48.184  1.00  0.00     0.011 A 
HETATM   11  O   UNL     1       6.111  31.186  50.271  1.00  0.00    -0.309 OA
HETATM   12  C   UNL     1       5.415  28.963  50.994  1.00  0.00     0.070 A 
HETATM   13  C   UNL     1       5.955  31.923  49.138  1.00  0.00     0.087 A 
HETATM   14  C   UNL     1       6.437  33.217  48.951  1.00  0.00     0.038 A 
HETATM   15  C   UNL     1       6.172  33.807  47.712  1.00  0.00     0.003 A 
HETATM   16  C   UNL     1       5.460  33.122  46.724  1.00  0.00     0.001 A 
HETATM   17  C   UNL     1       4.986  31.819  46.943  1.00  0.00     0.015 A 
BRANCH   6  18
HETATM   18  O   UNL     1       3.492  26.561  49.004  1.00  0.00    -0.354 OA
HETATM   19  C   UNL     1       3.167  26.505  47.611  1.00  0.00     0.210 C 
ENDBRANCH   6  18
ENDBRANCH   2   5
BRANCH   1  20
HETATM   20  C   UNL     1       4.967  24.956  53.092  1.00  0.00     0.337 C 
BRANCH  20  21
HETATM   21  N   UNL     1       5.690  25.282  54.407  1.00  0.00    -0.063 N 
HETATM   22  C   UNL     1       5.361  26.662  54.884  1.00  0.00     0.270 C 
HETATM   23  H   UNL     1       5.304  24.615  55.087  1.00  0.00     0.280 HD
BRANCH  21  24
HETATM   24  C   UNL     1       7.182  24.986  54.440  1.00  0.00     0.273 C 
BRANCH  24  25
HETATM   25  C   UNL     1       7.577  23.534  54.449  1.00  0.00    -0.032 A 
HETATM   26  C   UNL     1       7.967  22.893  53.259  1.00  0.00     0.012 A 
HETATM   27  C   UNL     1       8.365  21.555  53.274  1.00  0.00     0.043 A 
HETATM   28  C   UNL     1       8.370  20.853  54.472  1.00  0.00     0.116 A 
HETATM   29  F   UNL     1       8.756  19.572  54.484  1.00  0.00    -0.206 F 
HETATM   30  C   UNL     1       7.991  21.466  55.660  1.00  0.00     0.043 A 
HETATM   31  C   UNL     1       7.601  22.806  55.651  1.00  0.00     0.012 A 
ENDBRANCH  24  25
ENDBRANCH  21  24
ENDBRANCH  20  21
ENDBRANCH   1  20
TORSDOF 6
ENDMDL
