MODEL 1
REMARK VINA RESULT:      -9.4      0.000      0.000
REMARK  8 active torsions:
REMARK  status: ('A' for Active; 'I' for Inactive)
REMARK    1  A    between atoms: C_2  and  N_3 
REMARK       I    between atoms: N_3  and  C_4 
REMARK    2  A    between atoms: C_4  and  C_5 
REMARK    3  A    between atoms: C_5  and  O_6 
REMARK    4  A    between atoms: O_6  and  C_7 
REMARK    5  A    between atoms: C_11  and  C_12 
REMARK    6  A    between atoms: C_12  and  N_13 
REMARK    7  A    between atoms: N_13  and  C_14 
REMARK    8  A    between atoms: C_25  and  O_26 
ROOT
HETATM    1  C   UNL     1       7.839  29.537  56.730  1.00  0.00     0.124 A 
HETATM    2  C   UNL     1       6.672  30.216  57.103  1.00  0.00     0.070 A 
HETATM    3 CL   UNL     1       5.211  30.043  56.193  1.00  0.00    -0.081 Cl
HETATM    4  C   UNL     1       6.655  31.038  58.235  1.00  0.00     0.035 A 
HETATM    5  C   UNL     1       7.813  31.218  59.005  1.00  0.00    -0.041 A 
HETATM    6  C   UNL     1       8.981  30.537  58.633  1.00  0.00     0.048 A 
HETATM    7  C   UNL     1       8.999  29.730  57.491  1.00  0.00     0.103 A 
ENDROOT
BRANCH   5   8
HETATM    8  C   UNL     1       7.792  32.102  60.229  1.00  0.00     0.131 C 
BRANCH   8   9
HETATM    9  N   UNL     1       6.959  31.488  61.250  1.00  0.00    -0.289 NA
HETATM   10  H   UNL     1       7.198  30.512  61.411  1.00  0.00     0.128 HD
BRANCH   9  11
HETATM   11  C   UNL     1       6.731  32.175  62.452  1.00  0.00     0.010 A 
HETATM   12  C   UNL     1       5.447  32.397  62.977  1.00  0.00     0.055 A 
HETATM   13  C   UNL     1       5.355  33.009  64.208  1.00  0.00     0.065 A 
HETATM   14  C   UNL     1       6.475  33.387  64.941  1.00  0.00     0.063 A 
HETATM   15  N   UNL     1       4.226  33.350  64.948  1.00  0.00    -0.306 N 
HETATM   16  N   UNL     1       6.040  33.963  66.128  1.00  0.00    -0.307 N 
HETATM   17  C   UNL     1       7.748  33.161  64.485  1.00  0.00     0.034 A 
HETATM   18  C   UNL     1       4.638  33.944  66.149  1.00  0.00     0.325 A 
HETATM   19  H   UNL     1       6.607  34.326  66.876  1.00  0.00     0.170 HD
HETATM   20  O   UNL     1       3.918  34.360  67.038  1.00  0.00    -0.247 OA
HETATM   21  C   UNL     1       7.864  32.535  63.236  1.00  0.00     0.026 A 
HETATM   22  H   UNL     1       3.262  33.197  64.701  1.00  0.00     0.170 HD
ENDBRANCH   9  11
ENDBRANCH   8   9
ENDBRANCH   5   8
BRANCH   7  23
HETATM   23  O   UNL     1      10.176  29.103  57.176  1.00  0.00    -0.353 OA
HETATM   24  C   UNL     1      11.272  30.005  57.334  1.00  0.00     0.210 C 
ENDBRANCH   7  23
BRANCH   1  25
HETATM   25  O   UNL     1       7.798  28.782  55.585  1.00  0.00    -0.337 OA
BRANCH  25  26
HETATM   26  C   UNL     1       7.363  27.435  55.782  1.00  0.00     0.278 C 
BRANCH  26  27
HETATM   27  C   UNL     1       7.016  26.782  54.441  1.00  0.00     0.242 C 
HETATM   28  N   UNL     1       7.236  25.420  54.405  1.00  0.00    -0.351 N 
HETATM   29  H   UNL     1       7.436  24.991  55.305  1.00  0.00     0.163 HD
HETATM   30  O   UNL     1       6.618  27.444  53.488  1.00  0.00    -0.271 OA
BRANCH  28  31
HETATM   31  C   UNL     1       6.939  24.539  53.268  1.00  0.00     0.022 C 
HETATM   32  C   UNL     1       7.785  24.911  52.040  1.00  0.00     0.037 C 
HETATM   33  C   UNL     1       5.445  24.594  52.915  1.00  0.00     0.037 C 
HETATM   34  C   UNL     1       7.294  23.098  53.677  1.00  0.00     0.037 C 
ENDBRANCH  28  31
ENDBRANCH  26  27
ENDBRANCH  25  26
ENDBRANCH   1  25
TORSDOF 8
ENDMDL
MODEL 2
REMARK VINA RESULT:      -9.3      1.221      1.970
REMARK  8 active torsions:
REMARK  status: ('A' for Active; 'I' for Inactive)
REMARK    1  A    between atoms: C_2  and  N_3 
REMARK       I    between atoms: N_3  and  C_4 
REMARK    2  A    between atoms: C_4  and  C_5 
REMARK    3  A    between atoms: C_5  and  O_6 
REMARK    4  A    between atoms: O_6  and  C_7 
REMARK    5  A    between atoms: C_11  and  C_12 
REMARK    6  A    between atoms: C_12  and  N_13 
REMARK    7  A    between atoms: N_13  and  C_14 
REMARK    8  A    between atoms: C_25  and  O_26 
ROOT
HETATM    1  C   UNL     1       8.126  29.608  56.768  1.00  0.00     0.124 A 
HETATM    2  C   UNL     1       9.310  29.948  57.434  1.00  0.00     0.070 A 
HETATM    3 CL   UNL     1      10.848  29.423  56.842  1.00  0.00    -0.081 Cl
HETATM    4  C   UNL     1       9.279  30.738  58.589  1.00  0.00     0.035 A 
HETATM    5  C   UNL     1       8.058  31.185  59.115  1.00  0.00    -0.041 A 
HETATM    6  C   UNL     1       6.872  30.847  58.448  1.00  0.00     0.048 A 
HETATM    7  C   UNL     1       6.907  30.042  57.304  1.00  0.00     0.103 A 
ENDROOT
BRANCH   5   8
HETATM    8  C   UNL     1       8.026  32.042  60.358  1.00  0.00     0.131 C 
BRANCH   8   9
HETATM    9  N   UNL     1       7.020  31.521  61.272  1.00  0.00    -0.289 NA
HETATM   10  H   UNL     1       7.113  30.519  61.420  1.00  0.00     0.128 HD
BRANCH   9  11
HETATM   11  C   UNL     1       6.765  32.206  62.470  1.00  0.00     0.010 A 
HETATM   12  C   UNL     1       5.470  32.414  62.973  1.00  0.00     0.055 A 
HETATM   13  C   UNL     1       5.350  33.025  64.203  1.00  0.00     0.065 A 
HETATM   14  C   UNL     1       6.455  33.414  64.955  1.00  0.00     0.063 A 
HETATM   15  N   UNL     1       4.206  33.354  64.923  1.00  0.00    -0.306 N 
HETATM   16  N   UNL     1       5.993  33.985  66.134  1.00  0.00    -0.307 N 
HETATM   17  C   UNL     1       7.737  33.201  64.521  1.00  0.00     0.034 A 
HETATM   18  C   UNL     1       4.591  33.952  66.132  1.00  0.00     0.325 A 
HETATM   19  H   UNL     1       6.544  34.354  66.891  1.00  0.00     0.170 HD
HETATM   20  O   UNL     1       3.852  34.361  67.008  1.00  0.00    -0.247 OA
HETATM   21  C   UNL     1       7.881  32.577  63.274  1.00  0.00     0.026 A 
HETATM   22  H   UNL     1       3.248  33.192  64.659  1.00  0.00     0.170 HD
ENDBRANCH   9  11
ENDBRANCH   8   9
ENDBRANCH   5   8
BRANCH   7  23
HETATM   23  O   UNL     1       5.712  29.737  56.707  1.00  0.00    -0.353 OA
HETATM   24  C   UNL     1       5.274  30.830  55.897  1.00  0.00     0.210 C 
ENDBRANCH   7  23
BRANCH   1  25
HETATM   25  O   UNL     1       8.225  28.794  55.668  1.00  0.00    -0.337 OA
BRANCH  25  26
HETATM   26  C   UNL     1       7.864  27.432  55.908  1.00  0.00     0.278 C 
BRANCH  26  27
HETATM   27  C   UNL     1       7.309  26.791  54.633  1.00  0.00     0.242 C 
HETATM   28  N   UNL     1       7.546  25.436  54.536  1.00  0.00    -0.351 N 
HETATM   29  H   UNL     1       7.902  24.998  55.381  1.00  0.00     0.163 HD
HETATM   30  O   UNL     1       6.744  27.459  53.772  1.00  0.00    -0.271 OA
BRANCH  28  31
HETATM   31  C   UNL     1       7.080  24.565  53.448  1.00  0.00     0.022 C 
HETATM   32  C   UNL     1       7.800  24.889  52.129  1.00  0.00     0.037 C 
HETATM   33  C   UNL     1       5.560  24.693  53.264  1.00  0.00     0.037 C 
HETATM   34  C   UNL     1       7.408  23.110  53.830  1.00  0.00     0.037 C 
ENDBRANCH  28  31
ENDBRANCH  26  27
ENDBRANCH  25  26
ENDBRANCH   1  25
TORSDOF 8
ENDMDL
MODEL 3
REMARK VINA RESULT:      -9.1      2.588     10.868
REMARK  8 active torsions:
REMARK  status: ('A' for Active; 'I' for Inactive)
REMARK    1  A    between atoms: C_2  and  N_3 
REMARK       I    between atoms: N_3  and  C_4 
REMARK    2  A    between atoms: C_4  and  C_5 
REMARK    3  A    between atoms: C_5  and  O_6 
REMARK    4  A    between atoms: O_6  and  C_7 
REMARK    5  A    between atoms: C_11  and  C_12 
REMARK    6  A    between atoms: C_12  and  N_13 
REMARK    7  A    between atoms: N_13  and  C_14 
REMARK    8  A    between atoms: C_25  and  O_26 
ROOT
HETATM    1  C   UNL     1       7.828  29.963  57.587  1.00  0.00     0.124 A 
HETATM    2  C   UNL     1       6.436  30.011  57.435  1.00  0.00     0.070 A 
HETATM    3 CL   UNL     1       5.501  31.255  58.189  1.00  0.00    -0.081 Cl
HETATM    4  C   UNL     1       5.769  29.062  56.653  1.00  0.00     0.035 A 
HETATM    5  C   UNL     1       6.479  28.029  56.024  1.00  0.00    -0.041 A 
HETATM    6  C   UNL     1       7.873  27.981  56.174  1.00  0.00     0.048 A 
HETATM    7  C   UNL     1       8.533  28.921  56.971  1.00  0.00     0.103 A 
ENDROOT
BRANCH   5   8
HETATM    8  C   UNL     1       5.759  27.008  55.176  1.00  0.00     0.131 C 
BRANCH   8   9
HETATM    9  N   UNL     1       5.872  25.700  55.803  1.00  0.00    -0.289 NA
HETATM   10  H   UNL     1       4.996  25.394  56.223  1.00  0.00     0.128 HD
BRANCH   9  11
HETATM   11  C   UNL     1       6.509  24.661  55.108  1.00  0.00     0.010 A 
HETATM   12  C   UNL     1       6.982  23.496  55.734  1.00  0.00     0.055 A 
HETATM   13  C   UNL     1       7.514  22.508  54.935  1.00  0.00     0.065 A 
HETATM   14  C   UNL     1       7.575  22.620  53.549  1.00  0.00     0.063 A 
HETATM   15  N   UNL     1       8.052  21.274  55.287  1.00  0.00    -0.306 N 
HETATM   16  N   UNL     1       8.153  21.460  53.048  1.00  0.00    -0.307 N 
HETATM   17  C   UNL     1       7.096  23.723  52.891  1.00  0.00     0.034 A 
HETATM   18  C   UNL     1       8.453  20.608  54.120  1.00  0.00     0.325 A 
HETATM   19  H   UNL     1       8.325  21.230  52.084  1.00  0.00     0.170 HD
HETATM   20  O   UNL     1       8.961  19.504  54.052  1.00  0.00    -0.247 OA
HETATM   21  C   UNL     1       6.547  24.738  53.686  1.00  0.00     0.026 A 
HETATM   22  H   UNL     1       8.140  20.885  56.212  1.00  0.00     0.170 HD
ENDBRANCH   9  11
ENDBRANCH   8   9
ENDBRANCH   5   8
BRANCH   7  23
HETATM   23  O   UNL     1       9.894  28.811  57.086  1.00  0.00    -0.353 OA
HETATM   24  C   UNL     1      10.539  29.736  56.209  1.00  0.00     0.210 C 
ENDBRANCH   7  23
BRANCH   1  25
HETATM   25  O   UNL     1       8.412  30.898  58.404  1.00  0.00    -0.337 OA
BRANCH  25  26
HETATM   26  C   UNL     1       8.503  30.506  59.775  1.00  0.00     0.278 C 
BRANCH  26  27
HETATM   27  C   UNL     1       8.240  31.703  60.693  1.00  0.00     0.242 C 
HETATM   28  N   UNL     1       7.149  31.547  61.523  1.00  0.00    -0.351 N 
HETATM   29  H   UNL     1       6.757  30.609  61.550  1.00  0.00     0.163 HD
HETATM   30  O   UNL     1       8.932  32.715  60.644  1.00  0.00    -0.271 OA
BRANCH  28  31
HETATM   31  C   UNL     1       6.704  32.512  62.536  1.00  0.00     0.022 C 
HETATM   32  C   UNL     1       6.312  33.852  61.895  1.00  0.00     0.037 C 
HETATM   33  C   UNL     1       7.798  32.733  63.592  1.00  0.00     0.037 C 
HETATM   34  C   UNL     1       5.460  31.931  63.234  1.00  0.00     0.037 C 
ENDBRANCH  28  31
ENDBRANCH  26  27
ENDBRANCH  25  26
ENDBRANCH   1  25
TORSDOF 8
ENDMDL
MODEL 4
REMARK VINA RESULT:      -9.1      2.945     10.940
REMARK  8 active torsions:
REMARK  status: ('A' for Active; 'I' for Inactive)
REMARK    1  A    between atoms: C_2  and  N_3 
REMARK       I    between atoms: N_3  and  C_4 
REMARK    2  A    between atoms: C_4  and  C_5 
REMARK    3  A    between atoms: C_5  and  O_6 
REMARK    4  A    between atoms: O_6  and  C_7 
REMARK    5  A    between atoms: C_11  and  C_12 
REMARK    6  A    between atoms: C_12  and  N_13 
REMARK    7  A    between atoms: N_13  and  C_14 
REMARK    8  A    between atoms: C_25  and  O_26 
ROOT
HETATM    1  C   UNL     1       8.134  30.042  57.382  1.00  0.00     0.124 A 
HETATM    2  C   UNL     1       8.960  29.312  56.517  1.00  0.00     0.070 A 
HETATM    3 CL   UNL     1      10.682  29.397  56.646  1.00  0.00    -0.081 Cl
HETATM    4  C   UNL     1       8.409  28.479  55.536  1.00  0.00     0.035 A 
HETATM    5  C   UNL     1       7.019  28.377  55.385  1.00  0.00    -0.041 A 
HETATM    6  C   UNL     1       6.191  29.107  56.251  1.00  0.00     0.048 A 
HETATM    7  C   UNL     1       6.746  29.951  57.218  1.00  0.00     0.103 A 
ENDROOT
BRANCH   5   8
HETATM    8  C   UNL     1       6.425  27.475  54.329  1.00  0.00     0.131 C 
BRANCH   8   9
HETATM    9  N   UNL     1       6.097  26.190  54.927  1.00  0.00    -0.289 NA
HETATM   10  H   UNL     1       5.092  26.036  54.988  1.00  0.00     0.128 HD
BRANCH   9  11
HETATM   11  C   UNL     1       6.776  25.041  54.495  1.00  0.00     0.010 A 
HETATM   12  C   UNL     1       6.874  23.872  55.268  1.00  0.00     0.055 A 
HETATM   13  C   UNL     1       7.493  22.779  54.702  1.00  0.00     0.065 A 
HETATM   14  C   UNL     1       7.995  22.793  53.404  1.00  0.00     0.063 A 
HETATM   15  N   UNL     1       7.729  21.516  55.237  1.00  0.00    -0.306 N 
HETATM   16  N   UNL     1       8.543  21.544  53.141  1.00  0.00    -0.307 N 
HETATM   17  C   UNL     1       7.894  23.898  52.601  1.00  0.00     0.034 A 
HETATM   18  C   UNL     1       8.381  20.733  54.274  1.00  0.00     0.325 A 
HETATM   19  H   UNL     1       8.975  21.233  52.286  1.00  0.00     0.170 HD
HETATM   20  O   UNL     1       8.736  19.575  54.397  1.00  0.00    -0.247 OA
HETATM   21  C   UNL     1       7.263  25.020  53.157  1.00  0.00     0.026 A 
HETATM   22  H   UNL     1       7.475  21.181  56.152  1.00  0.00     0.170 HD
ENDBRANCH   9  11
ENDBRANCH   8   9
ENDBRANCH   5   8
BRANCH   7  23
HETATM   23  O   UNL     1       5.882  30.645  58.024  1.00  0.00    -0.353 OA
HETATM   24  C   UNL     1       5.446  31.836  57.366  1.00  0.00     0.210 C 
ENDBRANCH   7  23
BRANCH   1  25
HETATM   25  O   UNL     1       8.740  30.872  58.290  1.00  0.00    -0.337 OA
BRANCH  25  26
HETATM   26  C   UNL     1       8.728  30.385  59.633  1.00  0.00     0.278 C 
BRANCH  26  27
HETATM   27  C   UNL     1       8.377  31.511  60.609  1.00  0.00     0.242 C 
HETATM   28  N   UNL     1       7.225  31.289  61.336  1.00  0.00    -0.351 N 
HETATM   29  H   UNL     1       6.846  30.348  61.265  1.00  0.00     0.163 HD
HETATM   30  O   UNL     1       9.057  32.530  60.686  1.00  0.00    -0.271 OA
BRANCH  28  31
HETATM   31  C   UNL     1       6.689  32.176  62.376  1.00  0.00     0.022 C 
HETATM   32  C   UNL     1       5.431  31.576  63.024  1.00  0.00     0.037 C 
HETATM   33  C   UNL     1       6.373  33.563  61.796  1.00  0.00     0.037 C 
HETATM   34  C   UNL     1       7.763  32.333  63.468  1.00  0.00     0.037 C 
ENDBRANCH  28  31
ENDBRANCH  26  27
ENDBRANCH  25  26
ENDBRANCH   1  25
TORSDOF 8
ENDMDL
MODEL 5
REMARK VINA RESULT:      -9.0      2.998     10.643
REMARK  8 active torsions:
REMARK  status: ('A' for Active; 'I' for Inactive)
REMARK    1  A    between atoms: C_2  and  N_3 
REMARK       I    between atoms: N_3  and  C_4 
REMARK    2  A    between atoms: C_4  and  C_5 
REMARK    3  A    between atoms: C_5  and  O_6 
REMARK    4  A    between atoms: O_6  and  C_7 
REMARK    5  A    between atoms: C_11  and  C_12 
REMARK    6  A    between atoms: C_12  and  N_13 
REMARK    7  A    between atoms: N_13  and  C_14 
REMARK    8  A    between atoms: C_25  and  O_26 
ROOT
HETATM    1  C   UNL     1       6.853  29.546  57.316  1.00  0.00     0.124 A 
HETATM    2  C   UNL     1       5.775  29.254  56.470  1.00  0.00     0.070 A 
HETATM    3 CL   UNL     1       4.163  29.718  56.888  1.00  0.00    -0.081 Cl
HETATM    4  C   UNL     1       5.981  28.594  55.254  1.00  0.00     0.035 A 
HETATM    5  C   UNL     1       7.267  28.190  54.869  1.00  0.00    -0.041 A 
HETATM    6  C   UNL     1       8.347  28.484  55.714  1.00  0.00     0.048 A 
HETATM    7  C   UNL     1       8.135  29.128  56.937  1.00  0.00     0.103 A 
ENDROOT
BRANCH   5   8
HETATM    8  C   UNL     1       7.489  27.481  53.554  1.00  0.00     0.131 C 
BRANCH   8   9
HETATM    9  N   UNL     1       6.491  26.434  53.400  1.00  0.00    -0.289 NA
HETATM   10  H   UNL     1       6.054  26.446  52.481  1.00  0.00     0.128 HD
BRANCH   9  11
HETATM   11  C   UNL     1       6.799  25.130  53.816  1.00  0.00     0.010 A 
HETATM   12  C   UNL     1       7.256  24.133  52.938  1.00  0.00     0.055 A 
HETATM   13  C   UNL     1       7.608  22.915  53.478  1.00  0.00     0.065 A 
HETATM   14  C   UNL     1       7.546  22.657  54.843  1.00  0.00     0.063 A 
HETATM   15  N   UNL     1       8.078  21.767  52.847  1.00  0.00    -0.306 N 
HETATM   16  N   UNL     1       7.973  21.352  55.055  1.00  0.00    -0.307 N 
HETATM   17  C   UNL     1       7.139  23.608  55.742  1.00  0.00     0.034 A 
HETATM   18  C   UNL     1       8.312  20.783  53.819  1.00  0.00     0.325 A 
HETATM   19  H   UNL     1       8.054  20.870  55.935  1.00  0.00     0.170 HD
HETATM   20  O   UNL     1       8.731  19.657  53.627  1.00  0.00    -0.247 OA
HETATM   21  C   UNL     1       6.780  24.856  55.213  1.00  0.00     0.026 A 
HETATM   22  H   UNL     1       8.248  21.633  51.864  1.00  0.00     0.170 HD
ENDBRANCH   9  11
ENDBRANCH   8   9
ENDBRANCH   5   8
BRANCH   7  23
HETATM   23  O   UNL     1       9.230  29.374  57.723  1.00  0.00    -0.353 OA
HETATM   24  C   UNL     1      10.362  29.679  56.906  1.00  0.00     0.210 C 
ENDBRANCH   7  23
BRANCH   1  25
HETATM   25  O   UNL     1       6.575  30.155  58.513  1.00  0.00    -0.337 OA
BRANCH  25  26
HETATM   26  C   UNL     1       6.830  31.562  58.532  1.00  0.00     0.278 C 
BRANCH  26  27
HETATM   27  C   UNL     1       7.918  31.896  59.557  1.00  0.00     0.242 C 
HETATM   28  N   UNL     1       7.708  31.339  60.802  1.00  0.00    -0.351 N 
HETATM   29  H   UNL     1       6.964  30.648  60.846  1.00  0.00     0.163 HD
HETATM   30  O   UNL     1       8.860  32.631  59.277  1.00  0.00    -0.271 OA
BRANCH  28  31
HETATM   31  C   UNL     1       8.617  31.452  61.950  1.00  0.00     0.022 C 
HETATM   32  C   UNL     1       8.051  32.403  63.016  1.00  0.00     0.037 C 
HETATM   33  C   UNL     1      10.005  31.933  61.498  1.00  0.00     0.037 C 
HETATM   34  C   UNL     1       8.764  30.055  62.581  1.00  0.00     0.037 C 
ENDBRANCH  28  31
ENDBRANCH  26  27
ENDBRANCH  25  26
ENDBRANCH   1  25
TORSDOF 8
ENDMDL
MODEL 6
REMARK VINA RESULT:      -8.9      2.569      3.757
REMARK  8 active torsions:
REMARK  status: ('A' for Active; 'I' for Inactive)
REMARK    1  A    between atoms: C_2  and  N_3 
REMARK       I    between atoms: N_3  and  C_4 
REMARK    2  A    between atoms: C_4  and  C_5 
REMARK    3  A    between atoms: C_5  and  O_6 
REMARK    4  A    between atoms: O_6  and  C_7 
REMARK    5  A    between atoms: C_11  and  C_12 
REMARK    6  A    between atoms: C_12  and  N_13 
REMARK    7  A    between atoms: N_13  and  C_14 
REMARK    8  A    between atoms: C_25  and  O_26 
ROOT
HETATM    1  C   UNL     1       6.511  26.443  56.525  1.00  0.00     0.124 A 
HETATM    2  C   UNL     1       7.800  26.469  57.072  1.00  0.00     0.070 A 
HETATM    3 CL   UNL     1       8.760  25.033  57.160  1.00  0.00    -0.081 Cl
HETATM    4  C   UNL     1       8.352  27.665  57.546  1.00  0.00     0.035 A 
HETATM    5  C   UNL     1       7.614  28.857  57.503  1.00  0.00    -0.041 A 
HETATM    6  C   UNL     1       6.324  28.832  56.954  1.00  0.00     0.048 A 
HETATM    7  C   UNL     1       5.771  27.632  56.498  1.00  0.00     0.103 A 
ENDROOT
BRANCH   5   8
HETATM    8  C   UNL     1       8.212  30.148  58.011  1.00  0.00     0.131 C 
BRANCH   8   9
HETATM    9  N   UNL     1       7.182  30.917  58.692  1.00  0.00    -0.289 NA
HETATM   10  H   UNL     1       6.271  30.465  58.654  1.00  0.00     0.128 HD
BRANCH   9  11
HETATM   11  C   UNL     1       7.451  31.444  59.964  1.00  0.00     0.010 A 
HETATM   12  C   UNL     1       6.551  32.270  60.658  1.00  0.00     0.055 A 
HETATM   13  C   UNL     1       6.890  32.657  61.936  1.00  0.00     0.065 A 
HETATM   14  C   UNL     1       8.065  32.242  62.556  1.00  0.00     0.063 A 
HETATM   15  N   UNL     1       6.197  33.464  62.833  1.00  0.00    -0.306 N 
HETATM   16  N   UNL     1       8.100  32.796  63.829  1.00  0.00    -0.307 N 
HETATM   17  C   UNL     1       8.958  31.410  61.931  1.00  0.00     0.034 A 
HETATM   18  C   UNL     1       6.939  33.559  64.020  1.00  0.00     0.325 A 
HETATM   19  H   UNL     1       8.813  32.677  64.529  1.00  0.00     0.170 HD
HETATM   20  O   UNL     1       6.633  34.181  65.020  1.00  0.00    -0.247 OA
HETATM   21  C   UNL     1       8.629  31.002  60.631  1.00  0.00     0.026 A 
HETATM   22  H   UNL     1       5.306  33.910  62.694  1.00  0.00     0.170 HD
ENDBRANCH   9  11
ENDBRANCH   8   9
ENDBRANCH   5   8
BRANCH   7  23
HETATM   23  O   UNL     1       4.501  27.674  55.984  1.00  0.00    -0.353 OA
HETATM   24  C   UNL     1       4.148  29.019  55.656  1.00  0.00     0.210 C 
ENDBRANCH   7  23
BRANCH   1  25
HETATM   25  O   UNL     1       6.016  25.229  56.120  1.00  0.00    -0.337 OA
BRANCH  25  26
HETATM   26  C   UNL     1       6.001  25.041  54.704  1.00  0.00     0.278 C 
BRANCH  26  27
HETATM   27  C   UNL     1       7.100  24.063  54.281  1.00  0.00     0.242 C 
HETATM   28  N   UNL     1       7.114  22.886  55.001  1.00  0.00    -0.351 N 
HETATM   29  H   UNL     1       6.305  22.736  55.599  1.00  0.00     0.163 HD
HETATM   30  O   UNL     1       7.910  24.346  53.403  1.00  0.00    -0.271 OA
BRANCH  28  31
HETATM   31  C   UNL     1       8.023  21.756  54.770  1.00  0.00     0.022 C 
HETATM   32  C   UNL     1       9.491  22.182  54.930  1.00  0.00     0.037 C 
HETATM   33  C   UNL     1       7.798  21.155  53.375  1.00  0.00     0.037 C 
HETATM   34  C   UNL     1       7.718  20.677  55.825  1.00  0.00     0.037 C 
ENDBRANCH  28  31
ENDBRANCH  26  27
ENDBRANCH  25  26
ENDBRANCH   1  25
TORSDOF 8
ENDMDL
MODEL 7
REMARK VINA RESULT:      -8.8      2.764     10.080
REMARK  8 active torsions:
REMARK  status: ('A' for Active; 'I' for Inactive)
REMARK    1  A    between atoms: C_2  and  N_3 
REMARK       I    between atoms: N_3  and  C_4 
REMARK    2  A    between atoms: C_4  and  C_5 
REMARK    3  A    between atoms: C_5  and  O_6 
REMARK    4  A    between atoms: O_6  and  C_7 
REMARK    5  A    between atoms: C_11  and  C_12 
REMARK    6  A    between atoms: C_12  and  N_13 
REMARK    7  A    between atoms: N_13  and  C_14 
REMARK    8  A    between atoms: C_25  and  O_26 
ROOT
HETATM    1  C   UNL     1       8.083  31.387  58.693  1.00  0.00     0.124 A 
HETATM    2  C   UNL     1       6.688  31.430  58.570  1.00  0.00     0.070 A 
HETATM    3 CL   UNL     1       5.785  32.791  59.138  1.00  0.00    -0.081 Cl
HETATM    4  C   UNL     1       5.992  30.378  57.965  1.00  0.00     0.035 A 
HETATM    5  C   UNL     1       6.675  29.248  57.492  1.00  0.00    -0.041 A 
HETATM    6  C   UNL     1       8.071  29.205  57.614  1.00  0.00     0.048 A 
HETATM    7  C   UNL     1       8.762  30.251  58.235  1.00  0.00     0.103 A 
ENDROOT
BRANCH   5   8
HETATM    8  C   UNL     1       5.923  28.115  56.836  1.00  0.00     0.131 C 
BRANCH   8   9
HETATM    9  N   UNL     1       6.688  27.626  55.699  1.00  0.00    -0.289 NA
HETATM   10  H   UNL     1       7.512  28.195  55.513  1.00  0.00     0.128 HD
BRANCH   9  11
HETATM   11  C   UNL     1       6.966  26.255  55.601  1.00  0.00     0.010 A 
HETATM   12  C   UNL     1       7.594  25.524  56.623  1.00  0.00     0.055 A 
HETATM   13  C   UNL     1       7.736  24.165  56.446  1.00  0.00     0.065 A 
HETATM   14  C   UNL     1       7.265  23.506  55.315  1.00  0.00     0.063 A 
HETATM   15  N   UNL     1       8.317  23.216  57.282  1.00  0.00    -0.306 N 
HETATM   16  N   UNL     1       7.557  22.154  55.452  1.00  0.00    -0.307 N 
HETATM   17  C   UNL     1       6.616  24.170  54.308  1.00  0.00     0.034 A 
HETATM   18  C   UNL     1       8.211  21.956  56.676  1.00  0.00     0.325 A 
HETATM   19  H   UNL     1       7.336  21.413  54.808  1.00  0.00     0.170 HD
HETATM   20  O   UNL     1       8.607  20.897  57.127  1.00  0.00    -0.247 OA
HETATM   21  C   UNL     1       6.457  25.554  54.471  1.00  0.00     0.026 A 
HETATM   22  H   UNL     1       8.738  23.370  58.184  1.00  0.00     0.170 HD
ENDBRANCH   9  11
ENDBRANCH   8   9
ENDBRANCH   5   8
BRANCH   7  23
HETATM   23  O   UNL     1      10.124  30.141  58.333  1.00  0.00    -0.353 OA
HETATM   24  C   UNL     1      10.719  30.222  57.037  1.00  0.00     0.210 C 
ENDBRANCH   7  23
BRANCH   1  25
HETATM   25  O   UNL     1       8.697  32.432  59.336  1.00  0.00    -0.337 OA
BRANCH  25  26
HETATM   26  C   UNL     1       9.481  32.048  60.468  1.00  0.00     0.278 C 
BRANCH  26  27
HETATM   27  C   UNL     1       8.601  31.936  61.716  1.00  0.00     0.242 C 
HETATM   28  N   UNL     1       7.769  33.018  61.917  1.00  0.00    -0.351 N 
HETATM   29  H   UNL     1       7.713  33.670  61.139  1.00  0.00     0.163 HD
HETATM   30  O   UNL     1       8.682  30.975  62.475  1.00  0.00    -0.271 OA
BRANCH  28  31
HETATM   31  C   UNL     1       6.787  33.148  63.002  1.00  0.00     0.022 C 
HETATM   32  C   UNL     1       5.981  34.450  62.869  1.00  0.00     0.037 C 
HETATM   33  C   UNL     1       7.481  33.095  64.371  1.00  0.00     0.037 C 
HETATM   34  C   UNL     1       5.808  31.964  62.901  1.00  0.00     0.037 C 
ENDBRANCH  28  31
ENDBRANCH  26  27
ENDBRANCH  25  26
ENDBRANCH   1  25
TORSDOF 8
ENDMDL
MODEL 8
REMARK VINA RESULT:      -8.5      3.239     10.823
REMARK  8 active torsions:
REMARK  status: ('A' for Active; 'I' for Inactive)
REMARK    1  A    between atoms: C_2  and  N_3 
REMARK       I    between atoms: N_3  and  C_4 
REMARK    2  A    between atoms: C_4  and  C_5 
REMARK    3  A    between atoms: C_5  and  O_6 
REMARK    4  A    between atoms: O_6  and  C_7 
REMARK    5  A    between atoms: C_11  and  C_12 
REMARK    6  A    between atoms: C_12  and  N_13 
REMARK    7  A    between atoms: N_13  and  C_14 
REMARK    8  A    between atoms: C_25  and  O_26 
ROOT
HETATM    1  C   UNL     1       5.413  29.476  57.156  1.00  0.00     0.124 A 
HETATM    2  C   UNL     1       6.576  28.718  56.975  1.00  0.00     0.070 A 
HETATM    3 CL   UNL     1       7.854  28.755  58.139  1.00  0.00    -0.081 Cl
HETATM    4  C   UNL     1       6.726  27.896  55.852  1.00  0.00     0.035 A 
HETATM    5  C   UNL     1       5.722  27.833  54.875  1.00  0.00    -0.041 A 
HETATM    6  C   UNL     1       4.556  28.591  55.056  1.00  0.00     0.048 A 
HETATM    7  C   UNL     1       4.419  29.425  56.171  1.00  0.00     0.103 A 
ENDROOT
BRANCH   5   8
HETATM    8  C   UNL     1       5.882  26.942  53.666  1.00  0.00     0.131 C 
BRANCH   8   9
HETATM    9  N   UNL     1       5.430  25.599  53.997  1.00  0.00    -0.289 NA
HETATM   10  H   UNL     1       4.612  25.322  53.458  1.00  0.00     0.128 HD
BRANCH   9  11
HETATM   11  C   UNL     1       6.371  24.564  54.090  1.00  0.00     0.010 A 
HETATM   12  C   UNL     1       6.732  23.962  55.306  1.00  0.00     0.055 A 
HETATM   13  C   UNL     1       7.604  22.896  55.261  1.00  0.00     0.065 A 
HETATM   14  C   UNL     1       8.110  22.395  54.066  1.00  0.00     0.063 A 
HETATM   15  N   UNL     1       8.126  22.130  56.300  1.00  0.00    -0.306 N 
HETATM   16  N   UNL     1       8.945  21.326  54.366  1.00  0.00    -0.307 N 
HETATM   17  C   UNL     1       7.761  22.927  52.852  1.00  0.00     0.034 A 
HETATM   18  C   UNL     1       8.963  21.145  55.757  1.00  0.00     0.325 A 
HETATM   19  H   UNL     1       9.453  20.745  53.719  1.00  0.00     0.170 HD
HETATM   20  O   UNL     1       9.582  20.297  56.373  1.00  0.00    -0.247 OA
HETATM   21  C   UNL     1       6.871  24.010  52.877  1.00  0.00     0.026 A 
HETATM   22  H   UNL     1       7.943  22.228  57.285  1.00  0.00     0.170 HD
ENDBRANCH   9  11
ENDBRANCH   8   9
ENDBRANCH   5   8
BRANCH   7  23
HETATM   23  O   UNL     1       3.260  30.148  56.282  1.00  0.00    -0.353 OA
HETATM   24  C   UNL     1       3.155  31.076  55.201  1.00  0.00     0.210 C 
ENDBRANCH   7  23
BRANCH   1  25
HETATM   25  O   UNL     1       5.352  30.295  58.255  1.00  0.00    -0.337 OA
BRANCH  25  26
HETATM   26  C   UNL     1       5.988  31.563  58.082  1.00  0.00     0.278 C 
BRANCH  26  27
HETATM   27  C   UNL     1       6.753  31.957  59.348  1.00  0.00     0.242 C 
HETATM   28  N   UNL     1       6.017  31.839  60.510  1.00  0.00    -0.351 N 
HETATM   29  H   UNL     1       5.130  31.352  60.411  1.00  0.00     0.163 HD
HETATM   30  O   UNL     1       7.905  32.378  59.299  1.00  0.00    -0.271 OA
BRANCH  28  31
HETATM   31  C   UNL     1       6.518  32.098  61.866  1.00  0.00     0.022 C 
HETATM   32  C   UNL     1       7.824  31.333  62.132  1.00  0.00     0.037 C 
HETATM   33  C   UNL     1       5.462  31.720  62.916  1.00  0.00     0.037 C 
HETATM   34  C   UNL     1       6.811  33.605  61.985  1.00  0.00     0.037 C 
ENDBRANCH  28  31
ENDBRANCH  26  27
ENDBRANCH  25  26
ENDBRANCH   1  25
TORSDOF 8
ENDMDL
MODEL 9
REMARK VINA RESULT:      -8.4      2.566     10.591
REMARK  8 active torsions:
REMARK  status: ('A' for Active; 'I' for Inactive)
REMARK    1  A    between atoms: C_2  and  N_3 
REMARK       I    between atoms: N_3  and  C_4 
REMARK    2  A    between atoms: C_4  and  C_5 
REMARK    3  A    between atoms: C_5  and  O_6 
REMARK    4  A    between atoms: O_6  and  C_7 
REMARK    5  A    between atoms: C_11  and  C_12 
REMARK    6  A    between atoms: C_12  and  N_13 
REMARK    7  A    between atoms: N_13  and  C_14 
REMARK    8  A    between atoms: C_25  and  O_26 
ROOT
HETATM    1  C   UNL     1       7.412  29.502  57.603  1.00  0.00     0.124 A 
HETATM    2  C   UNL     1       6.141  28.932  57.458  1.00  0.00     0.070 A 
HETATM    3 CL   UNL     1       4.711  29.851  57.779  1.00  0.00    -0.081 Cl
HETATM    4  C   UNL     1       5.995  27.607  57.032  1.00  0.00     0.035 A 
HETATM    5  C   UNL     1       7.122  26.816  56.764  1.00  0.00    -0.041 A 
HETATM    6  C   UNL     1       8.395  27.386  56.907  1.00  0.00     0.048 A 
HETATM    7  C   UNL     1       8.536  28.705  57.351  1.00  0.00     0.103 A 
ENDROOT
BRANCH   5   8
HETATM    8  C   UNL     1       6.964  25.388  56.299  1.00  0.00     0.131 C 
BRANCH   8   9
HETATM    9  N   UNL     1       5.705  25.253  55.582  1.00  0.00    -0.289 NA
HETATM   10  H   UNL     1       4.932  25.701  56.070  1.00  0.00     0.128 HD
BRANCH   9  11
HETATM   11  C   UNL     1       5.673  25.509  54.203  1.00  0.00     0.010 A 
HETATM   12  C   UNL     1       4.811  26.451  53.618  1.00  0.00     0.055 A 
HETATM   13  C   UNL     1       4.931  26.676  52.264  1.00  0.00     0.065 A 
HETATM   14  C   UNL     1       5.878  26.027  51.479  1.00  0.00     0.063 A 
HETATM   15  N   UNL     1       4.212  27.537  51.440  1.00  0.00    -0.306 N 
HETATM   16  N   UNL     1       5.741  26.481  50.174  1.00  0.00    -0.307 N 
HETATM   17  C   UNL     1       6.763  25.125  52.011  1.00  0.00     0.034 A 
HETATM   18  C   UNL     1       4.707  27.427  50.132  1.00  0.00     0.325 A 
HETATM   19  H   UNL     1       6.287  26.211  49.372  1.00  0.00     0.170 HD
HETATM   20  O   UNL     1       4.317  28.037  49.154  1.00  0.00    -0.247 OA
HETATM   21  C   UNL     1       6.660  24.885  53.388  1.00  0.00     0.026 A 
HETATM   22  H   UNL     1       3.465  28.158  51.705  1.00  0.00     0.170 HD
ENDBRANCH   9  11
ENDBRANCH   8   9
ENDBRANCH   5   8
BRANCH   7  23
HETATM   23  O   UNL     1       9.808  29.197  57.482  1.00  0.00    -0.353 OA
HETATM   24  C   UNL     1      10.255  29.742  56.239  1.00  0.00     0.210 C 
ENDBRANCH   7  23
BRANCH   1  25
HETATM   25  O   UNL     1       7.483  30.791  58.068  1.00  0.00    -0.337 OA
BRANCH  25  26
HETATM   26  C   UNL     1       8.022  30.913  59.386  1.00  0.00     0.278 C 
BRANCH  26  27
HETATM   27  C   UNL     1       7.102  31.763  60.266  1.00  0.00     0.242 C 
HETATM   28  N   UNL     1       7.497  31.839  61.586  1.00  0.00    -0.351 N 
HETATM   29  H   UNL     1       8.425  31.472  61.780  1.00  0.00     0.163 HD
HETATM   30  O   UNL     1       6.086  32.286  59.816  1.00  0.00    -0.271 OA
BRANCH  28  31
HETATM   31  C   UNL     1       6.831  32.627  62.631  1.00  0.00     0.022 C 
HETATM   32  C   UNL     1       6.400  34.004  62.100  1.00  0.00     0.037 C 
HETATM   33  C   UNL     1       7.750  32.797  63.850  1.00  0.00     0.037 C 
HETATM   34  C   UNL     1       5.568  31.865  63.070  1.00  0.00     0.037 C 
ENDBRANCH  28  31
ENDBRANCH  26  27
ENDBRANCH  25  26
ENDBRANCH   1  25
TORSDOF 8
ENDMDL
MODEL 10
REMARK VINA RESULT:      -8.4      3.067     10.631
REMARK  8 active torsions:
REMARK  status: ('A' for Active; 'I' for Inactive)
REMARK    1  A    between atoms: C_2  and  N_3 
REMARK       I    between atoms: N_3  and  C_4 
REMARK    2  A    between atoms: C_4  and  C_5 
REMARK    3  A    between atoms: C_5  and  O_6 
REMARK    4  A    between atoms: O_6  and  C_7 
REMARK    5  A    between atoms: C_11  and  C_12 
REMARK    6  A    between atoms: C_12  and  N_13 
REMARK    7  A    between atoms: N_13  and  C_14 
REMARK    8  A    between atoms: C_25  and  O_26 
ROOT
HETATM    1  C   UNL     1       7.149  31.803  60.674  1.00  0.00     0.124 A 
HETATM    2  C   UNL     1       8.224  30.912  60.561  1.00  0.00     0.070 A 
HETATM    3 CL   UNL     1       9.289  30.627  61.894  1.00  0.00    -0.081 Cl
HETATM    4  C   UNL     1       8.452  30.214  59.370  1.00  0.00     0.035 A 
HETATM    5  C   UNL     1       7.622  30.412  58.257  1.00  0.00    -0.041 A 
HETATM    6  C   UNL     1       6.545  31.303  58.369  1.00  0.00     0.048 A 
HETATM    7  C   UNL     1       6.331  32.011  59.556  1.00  0.00     0.103 A 
ENDROOT
BRANCH   5   8
HETATM    8  C   UNL     1       7.866  29.655  56.973  1.00  0.00     0.131 C 
BRANCH   8   9
HETATM    9  N   UNL     1       6.811  28.671  56.788  1.00  0.00    -0.289 NA
HETATM   10  H   UNL     1       6.069  29.008  56.179  1.00  0.00     0.128 HD
BRANCH   9  11
HETATM   11  C   UNL     1       7.158  27.342  56.505  1.00  0.00     0.010 A 
HETATM   12  C   UNL     1       7.105  26.794  55.212  1.00  0.00     0.055 A 
HETATM   13  C   UNL     1       7.552  25.502  55.044  1.00  0.00     0.065 A 
HETATM   14  C   UNL     1       8.066  24.746  56.093  1.00  0.00     0.063 A 
HETATM   15  N   UNL     1       7.606  24.723  53.892  1.00  0.00    -0.306 N 
HETATM   16  N   UNL     1       8.431  23.504  55.591  1.00  0.00    -0.307 N 
HETATM   17  C   UNL     1       8.169  25.249  57.364  1.00  0.00     0.034 A 
HETATM   18  C   UNL     1       8.154  23.474  54.217  1.00  0.00     0.325 A 
HETATM   19  H   UNL     1       8.844  22.737  56.096  1.00  0.00     0.170 HD
HETATM   20  O   UNL     1       8.352  22.547  53.454  1.00  0.00    -0.247 OA
HETATM   21  C   UNL     1       7.722  26.564  57.556  1.00  0.00     0.026 A 
HETATM   22  H   UNL     1       7.322  24.985  52.962  1.00  0.00     0.170 HD
ENDBRANCH   9  11
ENDBRANCH   8   9
ENDBRANCH   5   8
BRANCH   7  23
HETATM   23  O   UNL     1       5.269  32.875  59.596  1.00  0.00    -0.353 OA
HETATM   24  C   UNL     1       4.045  32.158  59.426  1.00  0.00     0.210 C 
ENDBRANCH   7  23
BRANCH   1  25
HETATM   25  O   UNL     1       7.011  32.487  61.855  1.00  0.00    -0.337 OA
BRANCH  25  26
HETATM   26  C   UNL     1       6.190  31.829  62.823  1.00  0.00     0.278 C 
BRANCH  26  27
HETATM   27  C   UNL     1       5.141  32.795  63.382  1.00  0.00     0.242 C 
HETATM   28  N   UNL     1       4.728  33.758  62.484  1.00  0.00    -0.351 N 
HETATM   29  H   UNL     1       5.032  33.613  61.525  1.00  0.00     0.163 HD
HETATM   30  O   UNL     1       4.753  32.720  64.544  1.00  0.00    -0.271 OA
BRANCH  28  31
HETATM   31  C   UNL     1       3.697  34.773  62.737  1.00  0.00     0.022 C 
HETATM   32  C   UNL     1       4.118  35.723  63.869  1.00  0.00     0.037 C 
HETATM   33  C   UNL     1       2.354  34.108  63.079  1.00  0.00     0.037 C 
HETATM   34  C   UNL     1       3.520  35.603  61.453  1.00  0.00     0.037 C 
ENDBRANCH  28  31
ENDBRANCH  26  27
ENDBRANCH  25  26
ENDBRANCH   1  25
TORSDOF 8
ENDMDL
