MODEL 1
REMARK VINA RESULT:      -9.4      0.000      0.000
REMARK  5 active torsions:
REMARK  status: ('A' for Active; 'I' for Inactive)
REMARK    1  A    between atoms: C_7  and  C_8 
REMARK       I    between atoms: C_8  and  N_9 
REMARK    2  A    between atoms: N_9  and  C_10 
REMARK    3  A    between atoms: C_10  and  C_11 
REMARK    4  A    between atoms: C_11  and  O_12 
REMARK    5  A    between atoms: C_11  and  C_13 
ROOT
HETATM    1  C   UNL     1       6.670  25.055  55.148  1.00  0.00     0.254 C 
HETATM    2  N   UNL     1       7.417  26.200  55.290  1.00  0.00    -0.354 N 
HETATM    3  O   UNL     1       5.602  24.906  55.735  1.00  0.00    -0.268 OA
HETATM    4  H   UNL     1       8.358  26.223  54.926  1.00  0.00     0.162 HD
ENDROOT
BRANCH   2   5
HETATM    5  C   UNL     1       6.958  27.328  56.087  1.00  0.00     0.159 C 
BRANCH   5   6
HETATM    6  C   UNL     1       7.463  28.683  55.550  1.00  0.00     0.175 C 
BRANCH   6   7
HETATM    7  O   UNL     1       6.354  29.574  55.377  1.00  0.00    -0.389 OA
HETATM    8  H   UNL     1       5.710  29.324  56.061  1.00  0.00     0.210 HD
ENDBRANCH   6   7
BRANCH   6   9
HETATM    9  C   UNL     1       8.462  29.342  56.463  1.00  0.00     0.049 A 
HETATM   10  C   UNL     1       9.745  29.647  56.002  1.00  0.00     0.128 A 
HETATM   11  F   UNL     1      10.095  29.348  54.743  1.00  0.00    -0.205 F 
HETATM   12  C   UNL     1      10.696  30.257  56.823  1.00  0.00     0.043 A 
HETATM   13  C   UNL     1      10.373  30.578  58.139  1.00  0.00     0.006 A 
HETATM   14  C   UNL     1       9.100  30.287  58.620  1.00  0.00     0.043 A 
HETATM   15  C   UNL     1       8.160  29.679  57.785  1.00  0.00     0.128 A 
HETATM   16  F   UNL     1       6.949  29.408  58.292  1.00  0.00    -0.205 F 
ENDBRANCH   6   9
ENDBRANCH   5   6
ENDBRANCH   2   5
BRANCH   1  17
HETATM   17  C   UNL     1       7.260  24.018  54.294  1.00  0.00     0.066 A 
HETATM   18  C   UNL     1       7.515  24.069  52.923  1.00  0.00     0.022 A 
HETATM   19  C   UNL     1       7.257  25.104  51.885  1.00  0.00     0.069 C 
HETATM   20  N   UNL     1       8.074  22.866  52.561  1.00  0.00    -0.358 N 
HETATM   21  H   UNL     1       8.360  22.616  51.623  1.00  0.00     0.166 HD
HETATM   22  C   UNL     1       8.149  22.014  53.633  1.00  0.00     0.043 A 
HETATM   23  C   UNL     1       7.642  22.701  54.734  1.00  0.00     0.008 A 
HETATM   24  C   UNL     1       8.615  20.695  53.704  1.00  0.00     0.030 A 
HETATM   25  C   UNL     1       7.605  22.028  55.975  1.00  0.00     0.015 A 
HETATM   26  C   UNL     1       8.064  20.710  56.066  1.00  0.00     0.001 A 
HETATM   27  C   UNL     1       8.562  20.054  54.944  1.00  0.00     0.002 A 
ENDBRANCH   1  17
TORSDOF 5
ENDMDL
MODEL 2
REMARK VINA RESULT:      -9.2      2.026      2.839
REMARK  5 active torsions:
REMARK  status: ('A' for Active; 'I' for Inactive)
REMARK    1  A    between atoms: C_7  and  C_8 
REMARK       I    between atoms: C_8  and  N_9 
REMARK    2  A    between atoms: N_9  and  C_10 
REMARK    3  A    between atoms: C_10  and  C_11 
REMARK    4  A    between atoms: C_11  and  O_12 
REMARK    5  A    between atoms: C_11  and  C_13 
ROOT
HETATM    1  C   UNL     1       7.397  25.176  53.767  1.00  0.00     0.254 C 
HETATM    2  N   UNL     1       6.197  25.761  54.102  1.00  0.00    -0.354 N 
HETATM    3  O   UNL     1       8.013  25.506  52.757  1.00  0.00    -0.268 OA
HETATM    4  H   UNL     1       5.642  25.357  54.841  1.00  0.00     0.162 HD
ENDROOT
BRANCH   2   5
HETATM    5  C   UNL     1       5.624  26.847  53.322  1.00  0.00     0.159 C 
BRANCH   5   6
HETATM    6  C   UNL     1       6.336  28.195  53.564  1.00  0.00     0.175 C 
BRANCH   6   7
HETATM    7  O   UNL     1       5.522  29.263  53.064  1.00  0.00    -0.389 OA
HETATM    8  H   UNL     1       6.095  29.766  52.460  1.00  0.00     0.210 HD
ENDBRANCH   6   7
BRANCH   6   9
HETATM    9  C   UNL     1       6.621  28.457  55.018  1.00  0.00     0.049 A 
HETATM   10  C   UNL     1       7.918  28.758  55.440  1.00  0.00     0.128 A 
HETATM   11  F   UNL     1       8.919  28.809  54.549  1.00  0.00    -0.205 F 
HETATM   12  C   UNL     1       8.216  29.005  56.782  1.00  0.00     0.043 A 
HETATM   13  C   UNL     1       7.205  28.955  57.738  1.00  0.00     0.006 A 
HETATM   14  C   UNL     1       5.904  28.660  57.342  1.00  0.00     0.043 A 
HETATM   15  C   UNL     1       5.623  28.418  55.996  1.00  0.00     0.128 A 
HETATM   16  F   UNL     1       4.358  28.130  55.660  1.00  0.00    -0.205 F 
ENDBRANCH   6   9
ENDBRANCH   5   6
ENDBRANCH   2   5
BRANCH   1  17
HETATM   17  C   UNL     1       7.851  24.110  54.664  1.00  0.00     0.066 A 
HETATM   18  C   UNL     1       8.195  24.203  56.014  1.00  0.00     0.022 A 
HETATM   19  C   UNL     1       8.267  25.349  56.961  1.00  0.00     0.069 C 
HETATM   20  N   UNL     1       8.560  22.946  56.437  1.00  0.00    -0.358 N 
HETATM   21  H   UNL     1       8.862  22.713  57.374  1.00  0.00     0.166 HD
HETATM   22  C   UNL     1       8.514  22.046  55.404  1.00  0.00     0.043 A 
HETATM   23  C   UNL     1       8.080  22.741  54.277  1.00  0.00     0.008 A 
HETATM   24  C   UNL     1       8.832  20.682  55.384  1.00  0.00     0.030 A 
HETATM   25  C   UNL     1       7.955  22.027  53.065  1.00  0.00     0.015 A 
HETATM   26  C   UNL     1       8.268  20.664  53.025  1.00  0.00     0.001 A 
HETATM   27  C   UNL     1       8.701  20.003  54.170  1.00  0.00     0.002 A 
ENDBRANCH   1  17
TORSDOF 5
ENDMDL
MODEL 3
REMARK VINA RESULT:      -9.2      3.533      5.555
REMARK  5 active torsions:
REMARK  status: ('A' for Active; 'I' for Inactive)
REMARK    1  A    between atoms: C_7  and  C_8 
REMARK       I    between atoms: C_8  and  N_9 
REMARK    2  A    between atoms: N_9  and  C_10 
REMARK    3  A    between atoms: C_10  and  C_11 
REMARK    4  A    between atoms: C_11  and  O_12 
REMARK    5  A    between atoms: C_11  and  C_13 
ROOT
HETATM    1  C   UNL     1       7.524  25.275  53.969  1.00  0.00     0.254 C 
HETATM    2  N   UNL     1       6.416  25.971  54.393  1.00  0.00    -0.354 N 
HETATM    3  O   UNL     1       8.103  25.561  52.925  1.00  0.00    -0.268 OA
HETATM    4  H   UNL     1       5.872  25.611  55.162  1.00  0.00     0.162 HD
ENDROOT
BRANCH   2   5
HETATM    5  C   UNL     1       5.907  27.126  53.668  1.00  0.00     0.159 C 
BRANCH   5   6
HETATM    6  C   UNL     1       4.735  26.771  52.729  1.00  0.00     0.175 C 
BRANCH   6   7
HETATM    7  O   UNL     1       3.517  27.308  53.259  1.00  0.00    -0.389 OA
HETATM    8  H   UNL     1       3.577  28.270  53.127  1.00  0.00     0.210 HD
ENDBRANCH   6   7
BRANCH   6   9
HETATM    9  C   UNL     1       4.919  27.302  51.333  1.00  0.00     0.049 A 
HETATM   10  C   UNL     1       4.749  26.460  50.230  1.00  0.00     0.128 A 
HETATM   11  F   UNL     1       4.426  25.172  50.413  1.00  0.00    -0.205 F 
HETATM   12  C   UNL     1       4.913  26.920  48.922  1.00  0.00     0.043 A 
HETATM   13  C   UNL     1       5.255  28.250  48.692  1.00  0.00     0.006 A 
HETATM   14  C   UNL     1       5.426  29.109  49.773  1.00  0.00     0.043 A 
HETATM   15  C   UNL     1       5.256  28.633  51.075  1.00  0.00     0.128 A 
HETATM   16  F   UNL     1       5.439  29.492  52.088  1.00  0.00    -0.205 F 
ENDBRANCH   6   9
ENDBRANCH   5   6
ENDBRANCH   2   5
BRANCH   1  17
HETATM   17  C   UNL     1       7.925  24.150  54.819  1.00  0.00     0.066 A 
HETATM   18  C   UNL     1       8.263  24.166  56.173  1.00  0.00     0.022 A 
HETATM   19  C   UNL     1       8.378  25.263  57.172  1.00  0.00     0.069 C 
HETATM   20  N   UNL     1       8.569  22.876  56.541  1.00  0.00    -0.358 N 
HETATM   21  H   UNL     1       8.854  22.587  57.467  1.00  0.00     0.166 HD
HETATM   22  C   UNL     1       8.492  22.027  55.466  1.00  0.00     0.043 A 
HETATM   23  C   UNL     1       8.097  22.791  54.371  1.00  0.00     0.008 A 
HETATM   24  C   UNL     1       8.750  20.653  55.386  1.00  0.00     0.030 A 
HETATM   25  C   UNL     1       7.949  22.140  53.127  1.00  0.00     0.015 A 
HETATM   26  C   UNL     1       8.203  20.768  53.025  1.00  0.00     0.001 A 
HETATM   27  C   UNL     1       8.599  20.036  54.141  1.00  0.00     0.002 A 
ENDBRANCH   1  17
TORSDOF 5
ENDMDL
MODEL 4
REMARK VINA RESULT:      -8.9      2.680      7.805
REMARK  5 active torsions:
REMARK  status: ('A' for Active; 'I' for Inactive)
REMARK    1  A    between atoms: C_7  and  C_8 
REMARK       I    between atoms: C_8  and  N_9 
REMARK    2  A    between atoms: N_9  and  C_10 
REMARK    3  A    between atoms: C_10  and  C_11 
REMARK    4  A    between atoms: C_11  and  O_12 
REMARK    5  A    between atoms: C_11  and  C_13 
ROOT
HETATM    1  C   UNL     1       7.303  27.361  56.077  1.00  0.00     0.254 C 
HETATM    2  N   UNL     1       7.139  26.175  56.754  1.00  0.00    -0.354 N 
HETATM    3  O   UNL     1       7.403  27.396  54.854  1.00  0.00    -0.268 OA
HETATM    4  H   UNL     1       7.223  26.165  57.759  1.00  0.00     0.162 HD
ENDROOT
BRANCH   2   5
HETATM    5  C   UNL     1       7.005  24.903  56.059  1.00  0.00     0.159 C 
BRANCH   5   6
HETATM    6  C   UNL     1       8.367  24.239  55.765  1.00  0.00     0.175 C 
BRANCH   6   7
HETATM    7  O   UNL     1       9.068  24.017  56.995  1.00  0.00    -0.389 OA
HETATM    8  H   UNL     1       9.980  23.799  56.740  1.00  0.00     0.210 HD
ENDBRANCH   6   7
BRANCH   6   9
HETATM    9  C   UNL     1       8.237  22.921  55.050  1.00  0.00     0.049 A 
HETATM   10  C   UNL     1       8.233  22.873  53.654  1.00  0.00     0.128 A 
HETATM   11  F   UNL     1       8.341  24.005  52.943  1.00  0.00    -0.205 F 
HETATM   12  C   UNL     1       8.113  21.668  52.960  1.00  0.00     0.043 A 
HETATM   13  C   UNL     1       7.992  20.471  53.662  1.00  0.00     0.006 A 
HETATM   14  C   UNL     1       7.996  20.493  55.054  1.00  0.00     0.043 A 
HETATM   15  C   UNL     1       8.120  21.707  55.732  1.00  0.00     0.128 A 
HETATM   16  F   UNL     1       8.110  21.682  57.072  1.00  0.00    -0.205 F 
ENDBRANCH   6   9
ENDBRANCH   5   6
ENDBRANCH   2   5
BRANCH   1  17
HETATM   17  C   UNL     1       7.400  28.558  56.918  1.00  0.00     0.066 A 
HETATM   18  C   UNL     1       6.368  29.268  57.534  1.00  0.00     0.022 A 
HETATM   19  C   UNL     1       4.889  29.110  57.527  1.00  0.00     0.069 C 
HETATM   20  N   UNL     1       6.937  30.317  58.219  1.00  0.00    -0.358 N 
HETATM   21  H   UNL     1       6.428  31.004  58.759  1.00  0.00     0.166 HD
HETATM   22  C   UNL     1       8.296  30.347  58.033  1.00  0.00     0.043 A 
HETATM   23  C   UNL     1       8.620  29.264  57.220  1.00  0.00     0.008 A 
HETATM   24  C   UNL     1       9.250  31.252  58.516  1.00  0.00     0.030 A 
HETATM   25  C   UNL     1       9.976  29.077  56.873  1.00  0.00     0.015 A 
HETATM   26  C   UNL     1      10.944  29.971  57.344  1.00  0.00     0.001 A 
HETATM   27  C   UNL     1      10.583  31.043  58.154  1.00  0.00     0.002 A 
ENDBRANCH   1  17
TORSDOF 5
ENDMDL
MODEL 5
REMARK VINA RESULT:      -8.9      2.253      3.542
REMARK  5 active torsions:
REMARK  status: ('A' for Active; 'I' for Inactive)
REMARK    1  A    between atoms: C_7  and  C_8 
REMARK       I    between atoms: C_8  and  N_9 
REMARK    2  A    between atoms: N_9  and  C_10 
REMARK    3  A    between atoms: C_10  and  C_11 
REMARK    4  A    between atoms: C_11  and  O_12 
REMARK    5  A    between atoms: C_11  and  C_13 
ROOT
HETATM    1  C   UNL     1       6.146  24.881  54.015  1.00  0.00     0.254 C 
HETATM    2  N   UNL     1       6.894  25.857  53.398  1.00  0.00    -0.354 N 
HETATM    3  O   UNL     1       4.924  24.839  53.902  1.00  0.00    -0.268 OA
HETATM    4  H   UNL     1       7.867  25.958  53.641  1.00  0.00     0.162 HD
ENDROOT
BRANCH   2   5
HETATM    5  C   UNL     1       6.292  26.852  52.523  1.00  0.00     0.159 C 
BRANCH   5   6
HETATM    6  C   UNL     1       6.452  28.290  53.058  1.00  0.00     0.175 C 
BRANCH   6   7
HETATM    7  O   UNL     1       5.593  29.173  52.325  1.00  0.00    -0.389 OA
HETATM    8  H   UNL     1       4.996  28.594  51.820  1.00  0.00     0.210 HD
ENDBRANCH   6   7
BRANCH   6   9
HETATM    9  C   UNL     1       6.122  28.414  54.521  1.00  0.00     0.049 A 
HETATM   10  C   UNL     1       4.799  28.305  54.957  1.00  0.00     0.128 A 
HETATM   11  F   UNL     1       3.816  28.094  54.072  1.00  0.00    -0.205 F 
HETATM   12  C   UNL     1       4.459  28.417  56.307  1.00  0.00     0.043 A 
HETATM   13  C   UNL     1       5.451  28.643  57.257  1.00  0.00     0.006 A 
HETATM   14  C   UNL     1       6.777  28.753  56.847  1.00  0.00     0.043 A 
HETATM   15  C   UNL     1       7.101  28.636  55.494  1.00  0.00     0.128 A 
HETATM   16  F   UNL     1       8.388  28.757  55.142  1.00  0.00    -0.205 F 
ENDBRANCH   6   9
ENDBRANCH   5   6
ENDBRANCH   2   5
BRANCH   1  17
HETATM   17  C   UNL     1       6.901  23.939  54.846  1.00  0.00     0.066 A 
HETATM   18  C   UNL     1       7.248  24.059  56.193  1.00  0.00     0.022 A 
HETATM   19  C   UNL     1       7.033  25.135  57.198  1.00  0.00     0.069 C 
HETATM   20  N   UNL     1       7.954  22.932  56.543  1.00  0.00    -0.358 N 
HETATM   21  H   UNL     1       8.337  22.747  57.460  1.00  0.00     0.166 HD
HETATM   22  C   UNL     1       8.125  22.104  55.463  1.00  0.00     0.043 A 
HETATM   23  C   UNL     1       7.483  22.705  54.383  1.00  0.00     0.008 A 
HETATM   24  C   UNL     1       8.802  20.881  55.366  1.00  0.00     0.030 A 
HETATM   25  C   UNL     1       7.521  22.042  53.137  1.00  0.00     0.015 A 
HETATM   26  C   UNL     1       8.193  20.821  53.018  1.00  0.00     0.001 A 
HETATM   27  C   UNL     1       8.825  20.250  54.120  1.00  0.00     0.002 A 
ENDBRANCH   1  17
TORSDOF 5
ENDMDL
MODEL 6
REMARK VINA RESULT:      -8.7      1.594      1.974
REMARK  5 active torsions:
REMARK  status: ('A' for Active; 'I' for Inactive)
REMARK    1  A    between atoms: C_7  and  C_8 
REMARK       I    between atoms: C_8  and  N_9 
REMARK    2  A    between atoms: N_9  and  C_10 
REMARK    3  A    between atoms: C_10  and  C_11 
REMARK    4  A    between atoms: C_11  and  O_12 
REMARK    5  A    between atoms: C_11  and  C_13 
ROOT
HETATM    1  C   UNL     1       7.028  24.721  55.988  1.00  0.00     0.254 C 
HETATM    2  N   UNL     1       5.797  25.331  55.915  1.00  0.00    -0.354 N 
HETATM    3  O   UNL     1       7.794  24.928  56.926  1.00  0.00    -0.268 OA
HETATM    4  H   UNL     1       5.266  25.267  55.059  1.00  0.00     0.162 HD
ENDROOT
BRANCH   2   5
HETATM    5  C   UNL     1       5.303  26.201  56.972  1.00  0.00     0.159 C 
BRANCH   5   6
HETATM    6  C   UNL     1       5.351  27.694  56.586  1.00  0.00     0.175 C 
BRANCH   6   7
HETATM    7  O   UNL     1       4.811  28.482  57.654  1.00  0.00    -0.389 OA
HETATM    8  H   UNL     1       5.564  28.980  58.017  1.00  0.00     0.210 HD
ENDBRANCH   6   7
BRANCH   6   9
HETATM    9  C   UNL     1       6.744  28.183  56.294  1.00  0.00     0.049 A 
HETATM   10  C   UNL     1       7.139  28.446  54.980  1.00  0.00     0.128 A 
HETATM   11  F   UNL     1       6.277  28.261  53.970  1.00  0.00    -0.205 F 
HETATM   12  C   UNL     1       8.424  28.899  54.675  1.00  0.00     0.043 A 
HETATM   13  C   UNL     1       9.350  29.099  55.696  1.00  0.00     0.006 A 
HETATM   14  C   UNL     1       8.979  28.845  57.013  1.00  0.00     0.043 A 
HETATM   15  C   UNL     1       7.689  28.396  57.301  1.00  0.00     0.128 A 
HETATM   16  F   UNL     1       7.378  28.156  58.583  1.00  0.00    -0.205 F 
ENDBRANCH   6   9
ENDBRANCH   5   6
ENDBRANCH   2   5
BRANCH   1  17
HETATM   17  C   UNL     1       7.372  23.857  54.855  1.00  0.00     0.066 A 
HETATM   18  C   UNL     1       7.322  24.156  53.493  1.00  0.00     0.022 A 
HETATM   19  C   UNL     1       6.884  25.363  52.740  1.00  0.00     0.069 C 
HETATM   20  N   UNL     1       7.737  23.039  52.806  1.00  0.00    -0.358 N 
HETATM   21  H   UNL     1       7.799  22.965  51.799  1.00  0.00     0.166 HD
HETATM   22  C   UNL     1       8.010  22.007  53.666  1.00  0.00     0.043 A 
HETATM   23  C   UNL     1       7.788  22.481  54.957  1.00  0.00     0.008 A 
HETATM   24  C   UNL     1       8.426  20.697  53.395  1.00  0.00     0.030 A 
HETATM   25  C   UNL     1       7.996  21.593  56.035  1.00  0.00     0.015 A 
HETATM   26  C   UNL     1       8.410  20.281  55.785  1.00  0.00     0.001 A 
HETATM   27  C   UNL     1       8.621  19.840  54.482  1.00  0.00     0.002 A 
ENDBRANCH   1  17
TORSDOF 5
ENDMDL
MODEL 7
REMARK VINA RESULT:      -8.6      3.575      6.048
REMARK  5 active torsions:
REMARK  status: ('A' for Active; 'I' for Inactive)
REMARK    1  A    between atoms: C_7  and  C_8 
REMARK       I    between atoms: C_8  and  N_9 
REMARK    2  A    between atoms: N_9  and  C_10 
REMARK    3  A    between atoms: C_10  and  C_11 
REMARK    4  A    between atoms: C_11  and  O_12 
REMARK    5  A    between atoms: C_11  and  C_13 
ROOT
HETATM    1  C   UNL     1       6.450  26.091  54.525  1.00  0.00     0.254 C 
HETATM    2  N   UNL     1       6.925  26.656  53.364  1.00  0.00    -0.354 N 
HETATM    3  O   UNL     1       5.400  26.465  55.039  1.00  0.00    -0.268 OA
HETATM    4  H   UNL     1       7.862  26.441  53.059  1.00  0.00     0.162 HD
ENDROOT
BRANCH   2   5
HETATM    5  C   UNL     1       6.180  27.677  52.642  1.00  0.00     0.159 C 
BRANCH   5   6
HETATM    6  C   UNL     1       4.946  27.109  51.910  1.00  0.00     0.175 C 
BRANCH   6   7
HETATM    7  O   UNL     1       3.757  27.703  52.444  1.00  0.00    -0.389 OA
HETATM    8  H   UNL     1       4.061  28.438  53.005  1.00  0.00     0.210 HD
ENDBRANCH   6   7
BRANCH   6   9
HETATM    9  C   UNL     1       4.975  27.360  50.426  1.00  0.00     0.049 A 
HETATM   10  C   UNL     1       5.392  28.596  49.927  1.00  0.00     0.128 A 
HETATM   11  F   UNL     1       5.765  29.569  50.771  1.00  0.00    -0.205 F 
HETATM   12  C   UNL     1       5.429  28.862  48.557  1.00  0.00     0.043 A 
HETATM   13  C   UNL     1       5.044  27.879  47.649  1.00  0.00     0.006 A 
HETATM   14  C   UNL     1       4.628  26.638  48.121  1.00  0.00     0.043 A 
HETATM   15  C   UNL     1       4.599  26.388  49.494  1.00  0.00     0.128 A 
HETATM   16  F   UNL     1       4.183  25.182  49.906  1.00  0.00    -0.205 F 
ENDBRANCH   6   9
ENDBRANCH   5   6
ENDBRANCH   2   5
BRANCH   1  17
HETATM   17  C   UNL     1       7.306  25.060  55.120  1.00  0.00     0.066 A 
HETATM   18  C   UNL     1       7.959  25.084  56.353  1.00  0.00     0.022 A 
HETATM   19  C   UNL     1       8.059  26.114  57.423  1.00  0.00     0.069 C 
HETATM   20  N   UNL     1       8.643  23.898  56.484  1.00  0.00    -0.358 N 
HETATM   21  H   UNL     1       9.212  23.640  57.279  1.00  0.00     0.166 HD
HETATM   22  C   UNL     1       8.501  23.122  55.363  1.00  0.00     0.043 A 
HETATM   23  C   UNL     1       7.674  23.820  54.485  1.00  0.00     0.008 A 
HETATM   24  C   UNL     1       9.048  21.868  55.062  1.00  0.00     0.030 A 
HETATM   25  C   UNL     1       7.377  23.226  53.240  1.00  0.00     0.015 A 
HETATM   26  C   UNL     1       7.914  21.974  52.920  1.00  0.00     0.001 A 
HETATM   27  C   UNL     1       8.739  21.306  53.820  1.00  0.00     0.002 A 
ENDBRANCH   1  17
TORSDOF 5
ENDMDL
MODEL 8
REMARK VINA RESULT:      -8.4      3.108      7.747
REMARK  5 active torsions:
REMARK  status: ('A' for Active; 'I' for Inactive)
REMARK    1  A    between atoms: C_7  and  C_8 
REMARK       I    between atoms: C_8  and  N_9 
REMARK    2  A    between atoms: N_9  and  C_10 
REMARK    3  A    between atoms: C_10  and  C_11 
REMARK    4  A    between atoms: C_11  and  O_12 
REMARK    5  A    between atoms: C_11  and  C_13 
ROOT
HETATM    1  C   UNL     1       7.986  28.155  57.389  1.00  0.00     0.254 C 
HETATM    2  N   UNL     1       7.454  26.934  57.733  1.00  0.00    -0.354 N 
HETATM    3  O   UNL     1       9.046  28.245  56.775  1.00  0.00    -0.268 OA
HETATM    4  H   UNL     1       6.674  26.899  58.372  1.00  0.00     0.162 HD
ENDROOT
BRANCH   2   5
HETATM    5  C   UNL     1       8.076  25.681  57.333  1.00  0.00     0.159 C 
BRANCH   5   6
HETATM    6  C   UNL     1       7.061  24.665  56.767  1.00  0.00     0.175 C 
BRANCH   6   7
HETATM    7  O   UNL     1       5.751  25.247  56.767  1.00  0.00    -0.389 OA
HETATM    8  H   UNL     1       5.807  26.015  56.173  1.00  0.00     0.210 HD
ENDBRANCH   6   7
BRANCH   6   9
HETATM    9  C   UNL     1       7.385  24.229  55.363  1.00  0.00     0.049 A 
HETATM   10  C   UNL     1       7.545  25.177  54.349  1.00  0.00     0.128 A 
HETATM   11  F   UNL     1       7.406  26.482  54.622  1.00  0.00    -0.205 F 
HETATM   12  C   UNL     1       7.844  24.806  53.037  1.00  0.00     0.043 A 
HETATM   13  C   UNL     1       7.991  23.459  52.713  1.00  0.00     0.006 A 
HETATM   14  C   UNL     1       7.839  22.497  53.706  1.00  0.00     0.043 A 
HETATM   15  C   UNL     1       7.543  22.885  55.014  1.00  0.00     0.128 A 
HETATM   16  F   UNL     1       7.396  21.925  55.938  1.00  0.00    -0.205 F 
ENDBRANCH   6   9
ENDBRANCH   5   6
ENDBRANCH   2   5
BRANCH   1  17
HETATM   17  C   UNL     1       7.230  29.324  57.848  1.00  0.00     0.066 A 
HETATM   18  C   UNL     1       7.602  30.275  58.799  1.00  0.00     0.022 A 
HETATM   19  C   UNL     1       8.799  30.417  59.671  1.00  0.00     0.069 C 
HETATM   20  N   UNL     1       6.575  31.185  58.899  1.00  0.00    -0.358 N 
HETATM   21  H   UNL     1       6.566  31.986  59.516  1.00  0.00     0.166 HD
HETATM   22  C   UNL     1       5.527  30.837  58.086  1.00  0.00     0.043 A 
HETATM   23  C   UNL     1       5.900  29.673  57.417  1.00  0.00     0.008 A 
HETATM   24  C   UNL     1       4.285  31.457  57.904  1.00  0.00     0.030 A 
HETATM   25  C   UNL     1       4.977  29.103  56.513  1.00  0.00     0.015 A 
HETATM   26  C   UNL     1       3.730  29.707  56.318  1.00  0.00     0.001 A 
HETATM   27  C   UNL     1       3.391  30.869  57.006  1.00  0.00     0.002 A 
ENDBRANCH   1  17
TORSDOF 5
ENDMDL
MODEL 9
REMARK VINA RESULT:      -8.3      4.800      7.303
REMARK  5 active torsions:
REMARK  status: ('A' for Active; 'I' for Inactive)
REMARK    1  A    between atoms: C_7  and  C_8 
REMARK       I    between atoms: C_8  and  N_9 
REMARK    2  A    between atoms: N_9  and  C_10 
REMARK    3  A    between atoms: C_10  and  C_11 
REMARK    4  A    between atoms: C_11  and  O_12 
REMARK    5  A    between atoms: C_11  and  C_13 
ROOT
HETATM    1  C   UNL     1       5.448  25.030  52.539  1.00  0.00     0.254 C 
HETATM    2  N   UNL     1       5.850  25.814  51.483  1.00  0.00    -0.354 N 
HETATM    3  O   UNL     1       4.341  24.500  52.562  1.00  0.00    -0.268 OA
HETATM    4  H   UNL     1       6.693  26.362  51.569  1.00  0.00     0.162 HD
ENDROOT
BRANCH   2   5
HETATM    5  C   UNL     1       5.018  26.006  50.304  1.00  0.00     0.159 C 
BRANCH   5   6
HETATM    6  C   UNL     1       4.796  27.495  49.967  1.00  0.00     0.175 C 
BRANCH   6   7
HETATM    7  O   UNL     1       5.930  27.997  49.248  1.00  0.00    -0.389 OA
HETATM    8  H   UNL     1       5.621  28.807  48.807  1.00  0.00     0.210 HD
ENDBRANCH   6   7
BRANCH   6   9
HETATM    9  C   UNL     1       3.565  27.733  49.135  1.00  0.00     0.049 A 
HETATM   10  C   UNL     1       2.579  28.620  49.573  1.00  0.00     0.128 A 
HETATM   11  F   UNL     1       2.723  29.261  50.741  1.00  0.00    -0.205 F 
HETATM   12  C   UNL     1       1.424  28.863  48.827  1.00  0.00     0.043 A 
HETATM   13  C   UNL     1       1.234  28.212  47.610  1.00  0.00     0.006 A 
HETATM   14  C   UNL     1       2.204  27.325  47.151  1.00  0.00     0.043 A 
HETATM   15  C   UNL     1       3.354  27.096  47.909  1.00  0.00     0.128 A 
HETATM   16  F   UNL     1       4.258  26.228  47.434  1.00  0.00    -0.205 F 
ENDBRANCH   6   9
ENDBRANCH   5   6
ENDBRANCH   2   5
BRANCH   1  17
HETATM   17  C   UNL     1       6.407  24.918  53.643  1.00  0.00     0.066 A 
HETATM   18  C   UNL     1       6.655  25.831  54.669  1.00  0.00     0.022 A 
HETATM   19  C   UNL     1       6.108  27.181  54.974  1.00  0.00     0.069 C 
HETATM   20  N   UNL     1       7.637  25.298  55.470  1.00  0.00    -0.358 N 
HETATM   21  H   UNL     1       8.022  25.744  56.293  1.00  0.00     0.166 HD
HETATM   22  C   UNL     1       8.075  24.095  54.979  1.00  0.00     0.043 A 
HETATM   23  C   UNL     1       7.331  23.829  53.832  1.00  0.00     0.008 A 
HETATM   24  C   UNL     1       9.073  23.237  55.457  1.00  0.00     0.030 A 
HETATM   25  C   UNL     1       7.601  22.634  53.129  1.00  0.00     0.015 A 
HETATM   26  C   UNL     1       8.594  21.765  53.590  1.00  0.00     0.001 A 
HETATM   27  C   UNL     1       9.320  22.064  54.740  1.00  0.00     0.002 A 
ENDBRANCH   1  17
TORSDOF 5
ENDMDL
MODEL 10
REMARK VINA RESULT:      -8.3      1.593      2.574
REMARK  5 active torsions:
REMARK  status: ('A' for Active; 'I' for Inactive)
REMARK    1  A    between atoms: C_7  and  C_8 
REMARK       I    between atoms: C_8  and  N_9 
REMARK    2  A    between atoms: N_9  and  C_10 
REMARK    3  A    between atoms: C_10  and  C_11 
REMARK    4  A    between atoms: C_11  and  O_12 
REMARK    5  A    between atoms: C_11  and  C_13 
ROOT
HETATM    1  C   UNL     1       6.248  26.928  55.124  1.00  0.00     0.254 C 
HETATM    2  N   UNL     1       7.340  27.699  55.449  1.00  0.00    -0.354 N 
HETATM    3  O   UNL     1       5.105  27.282  55.401  1.00  0.00    -0.268 OA
HETATM    4  H   UNL     1       8.265  27.307  55.354  1.00  0.00     0.162 HD
ENDROOT
BRANCH   2   5
HETATM    5  C   UNL     1       7.203  29.005  56.076  1.00  0.00     0.159 C 
BRANCH   5   6
HETATM    6  C   UNL     1       7.388  28.953  57.607  1.00  0.00     0.175 C 
BRANCH   6   7
HETATM    7  O   UNL     1       7.863  27.656  57.989  1.00  0.00    -0.389 OA
HETATM    8  H   UNL     1       8.784  27.614  57.677  1.00  0.00     0.210 HD
ENDBRANCH   6   7
BRANCH   6   9
HETATM    9  C   UNL     1       8.359  29.983  58.119  1.00  0.00     0.049 A 
HETATM   10  C   UNL     1       7.923  31.003  58.968  1.00  0.00     0.128 A 
HETATM   11  F   UNL     1       6.633  31.072  59.328  1.00  0.00    -0.205 F 
HETATM   12  C   UNL     1       8.797  31.975  59.458  1.00  0.00     0.043 A 
HETATM   13  C   UNL     1      10.143  31.941  59.103  1.00  0.00     0.006 A 
HETATM   14  C   UNL     1      10.601  30.933  58.260  1.00  0.00     0.043 A 
HETATM   15  C   UNL     1       9.715  29.967  57.780  1.00  0.00     0.128 A 
HETATM   16  F   UNL     1      10.197  29.020  56.964  1.00  0.00    -0.205 F 
ENDBRANCH   6   9
ENDBRANCH   5   6
ENDBRANCH   2   5
BRANCH   1  17
HETATM   17  C   UNL     1       6.550  25.647  54.477  1.00  0.00     0.066 A 
HETATM   18  C   UNL     1       6.234  25.237  53.182  1.00  0.00     0.022 A 
HETATM   19  C   UNL     1       5.485  25.885  52.071  1.00  0.00     0.069 C 
HETATM   20  N   UNL     1       6.719  23.960  53.020  1.00  0.00    -0.358 N 
HETATM   21  H   UNL     1       6.632  23.407  52.178  1.00  0.00     0.166 HD
HETATM   22  C   UNL     1       7.296  23.503  54.177  1.00  0.00     0.043 A 
HETATM   23  C   UNL     1       7.203  24.531  55.113  1.00  0.00     0.008 A 
HETATM   24  C   UNL     1       7.880  22.262  54.462  1.00  0.00     0.030 A 
HETATM   25  C   UNL     1       7.728  24.302  56.404  1.00  0.00     0.015 A 
HETATM   26  C   UNL     1       8.314  23.069  56.708  1.00  0.00     0.001 A 
HETATM   27  C   UNL     1       8.387  22.064  55.749  1.00  0.00     0.002 A 
ENDBRANCH   1  17
TORSDOF 5
ENDMDL
