MODEL 1
REMARK VINA RESULT:      -9.0      0.000      0.000
REMARK  3 active torsions:
REMARK  status: ('A' for Active; 'I' for Inactive)
REMARK    1  A    between atoms: C_6  and  N_7 
REMARK       I    between atoms: N_7  and  C_8 
REMARK    2  A    between atoms: C_8  and  C_9 
REMARK    3  A    between atoms: C_9  and  C_10 
ROOT
HETATM    1  C   UNL     1       7.082  25.107  56.006  1.00  0.00     0.286 C 
HETATM    2  N   UNL     1       7.544  24.297  54.795  1.00  0.00    -0.056 N 
HETATM    3  H   UNL     1       6.881  24.515  54.023  1.00  0.00     0.278 HD
HETATM    4  H   UNL     1       8.469  24.614  54.481  1.00  0.00     0.278 HD
HETATM    5  C   UNL     1       7.542  22.832  55.112  1.00  0.00     0.209 C 
HETATM    6  C   UNL     1       8.538  22.587  56.269  1.00  0.00     0.115 C 
HETATM    7  N   UNL     1       8.285  23.454  57.417  1.00  0.00    -0.353 N 
HETATM    8  C   UNL     1       7.904  24.774  57.269  1.00  0.00     0.249 C 
HETATM    9  O   UNL     1       8.146  25.591  58.148  1.00  0.00    -0.271 OA
HETATM   10  C   UNL     1       7.918  22.017  53.882  1.00  0.00     0.035 C 
HETATM   11  C   UNL     1       7.942  20.528  54.237  1.00  0.00     0.002 C 
HETATM   12  C   UNL     1       8.844  20.228  55.436  1.00  0.00     0.002 C 
HETATM   13  C   UNL     1       8.528  21.107  56.650  1.00  0.00     0.027 C 
HETATM   14  H   UNL     1       8.843  23.305  58.256  1.00  0.00     0.163 HD
ENDROOT
BRANCH   1  15
HETATM   15  C   UNL     1       7.076  26.608  55.700  1.00  0.00     0.146 C 
BRANCH  15  16
HETATM   16  C   UNL     1       5.674  27.145  55.831  1.00  0.00     0.224 C 
HETATM   17  N   UNL     1       4.840  27.282  54.769  1.00  0.00    -0.327 N 
HETATM   18  H   UNL     1       3.998  27.796  55.013  1.00  0.00     0.169 HD
HETATM   19  O   UNL     1       5.277  27.489  56.955  1.00  0.00    -0.273 OA
BRANCH  17  20
HETATM   20  C   UNL     1       4.927  26.890  53.419  1.00  0.00     0.036 A 
HETATM   21  C   UNL     1       5.171  27.749  52.348  1.00  0.00     0.053 A 
HETATM   22  C   UNL     1       5.238  27.245  51.045  1.00  0.00     0.036 A 
HETATM   23  C   UNL     1       5.072  25.886  50.793  1.00  0.00     0.024 A 
HETATM   24 CL   UNL     1       5.543  28.322  49.737  1.00  0.00    -0.084 Cl
HETATM   25  C   UNL     1       4.855  25.018  51.857  1.00  0.00     0.004 A 
HETATM   26  C   UNL     1       4.794  25.516  53.161  1.00  0.00     0.029 A 
ENDBRANCH  17  20
ENDBRANCH  15  16
ENDBRANCH   1  15
TORSDOF 3
ENDMDL
MODEL 2
REMARK VINA RESULT:      -8.8      3.375      4.770
REMARK  3 active torsions:
REMARK  status: ('A' for Active; 'I' for Inactive)
REMARK    1  A    between atoms: C_6  and  N_7 
REMARK       I    between atoms: N_7  and  C_8 
REMARK    2  A    between atoms: C_8  and  C_9 
REMARK    3  A    between atoms: C_9  and  C_10 
ROOT
HETATM    1  C   UNL     1       6.212  25.784  56.413  1.00  0.00     0.286 C 
HETATM    2  N   UNL     1       6.389  25.471  54.927  1.00  0.00    -0.056 N 
HETATM    3  H   UNL     1       5.445  25.547  54.495  1.00  0.00     0.278 HD
HETATM    4  H   UNL     1       6.972  26.186  54.475  1.00  0.00     0.278 HD
HETATM    5  C   UNL     1       6.959  24.097  54.745  1.00  0.00     0.209 C 
HETATM    6  C   UNL     1       8.350  24.059  55.419  1.00  0.00     0.115 C 
HETATM    7  N   UNL     1       8.313  24.519  56.805  1.00  0.00    -0.353 N 
HETATM    8  C   UNL     1       7.520  25.577  57.205  1.00  0.00     0.249 C 
HETATM    9  O   UNL     1       7.823  26.242  58.187  1.00  0.00    -0.271 OA
HETATM   10  C   UNL     1       7.055  23.748  53.267  1.00  0.00     0.035 C 
HETATM   11  C   UNL     1       7.670  22.356  53.103  1.00  0.00     0.002 C 
HETATM   12  C   UNL     1       9.013  22.223  53.824  1.00  0.00     0.002 C 
HETATM   13  C   UNL     1       8.944  22.656  55.292  1.00  0.00     0.027 C 
HETATM   14  H   UNL     1       9.171  24.452  57.351  1.00  0.00     0.163 HD
ENDROOT
BRANCH   1  15
HETATM   15  C   UNL     1       5.628  27.186  56.619  1.00  0.00     0.146 C 
BRANCH  15  16
HETATM   16  C   UNL     1       5.861  28.017  55.384  1.00  0.00     0.224 C 
HETATM   17  N   UNL     1       6.842  28.953  55.306  1.00  0.00    -0.327 N 
HETATM   18  H   UNL     1       6.759  29.519  54.466  1.00  0.00     0.169 HD
HETATM   19  O   UNL     1       5.115  27.846  54.409  1.00  0.00    -0.273 OA
BRANCH  17  20
HETATM   20  C   UNL     1       7.906  29.307  56.158  1.00  0.00     0.036 A 
HETATM   21  C   UNL     1       7.775  29.659  57.501  1.00  0.00     0.053 A 
HETATM   22  C   UNL     1       8.906  29.992  58.254  1.00  0.00     0.036 A 
HETATM   23  C   UNL     1      10.177  29.969  57.685  1.00  0.00     0.024 A 
HETATM   24 CL   UNL     1       8.723  30.422  59.911  1.00  0.00    -0.084 Cl
HETATM   25  C   UNL     1      10.320  29.593  56.354  1.00  0.00     0.004 A 
HETATM   26  C   UNL     1       9.193  29.253  55.600  1.00  0.00     0.029 A 
ENDBRANCH  17  20
ENDBRANCH  15  16
ENDBRANCH   1  15
TORSDOF 3
ENDMDL
MODEL 3
REMARK VINA RESULT:      -8.7      3.502      4.925
REMARK  3 active torsions:
REMARK  status: ('A' for Active; 'I' for Inactive)
REMARK    1  A    between atoms: C_6  and  N_7 
REMARK       I    between atoms: N_7  and  C_8 
REMARK    2  A    between atoms: C_8  and  C_9 
REMARK    3  A    between atoms: C_9  and  C_10 
ROOT
HETATM    1  C   UNL     1       7.197  25.193  56.002  1.00  0.00     0.286 C 
HETATM    2  N   UNL     1       7.632  24.395  54.773  1.00  0.00    -0.056 N 
HETATM    3  H   UNL     1       6.988  24.667  54.001  1.00  0.00     0.278 HD
HETATM    4  H   UNL     1       8.574  24.676  54.476  1.00  0.00     0.278 HD
HETATM    5  C   UNL     1       7.556  22.924  55.048  1.00  0.00     0.209 C 
HETATM    6  C   UNL     1       8.527  22.599  56.206  1.00  0.00     0.115 C 
HETATM    7  N   UNL     1       8.304  23.446  57.377  1.00  0.00    -0.353 N 
HETATM    8  C   UNL     1       7.988  24.786  57.263  1.00  0.00     0.249 C 
HETATM    9  O   UNL     1       8.261  25.565  58.166  1.00  0.00    -0.271 OA
HETATM   10  C   UNL     1       7.905  22.127  53.799  1.00  0.00     0.035 C 
HETATM   11  C   UNL     1       7.853  20.629  54.112  1.00  0.00     0.002 C 
HETATM   12  C   UNL     1       8.727  20.253  55.310  1.00  0.00     0.002 C 
HETATM   13  C   UNL     1       8.442  21.111  56.545  1.00  0.00     0.027 C 
HETATM   14  H   UNL     1       8.846  23.246  58.216  1.00  0.00     0.163 HD
ENDROOT
BRANCH   1  15
HETATM   15  C   UNL     1       7.266  26.701  55.739  1.00  0.00     0.146 C 
BRANCH  15  16
HETATM   16  C   UNL     1       6.308  27.418  56.654  1.00  0.00     0.224 C 
HETATM   17  N   UNL     1       6.700  28.412  57.491  1.00  0.00    -0.327 N 
HETATM   18  H   UNL     1       5.962  28.676  58.139  1.00  0.00     0.169 HD
HETATM   19  O   UNL     1       5.117  27.073  56.649  1.00  0.00    -0.273 OA
BRANCH  17  20
HETATM   20  C   UNL     1       7.913  29.109  57.658  1.00  0.00     0.036 A 
HETATM   21  C   UNL     1       8.164  30.056  58.651  1.00  0.00     0.053 A 
HETATM   22  C   UNL     1       9.411  30.686  58.721  1.00  0.00     0.036 A 
HETATM   23  C   UNL     1      10.422  30.377  57.814  1.00  0.00     0.024 A 
HETATM   24 CL   UNL     1       9.702  31.850  59.955  1.00  0.00    -0.084 Cl
HETATM   25  C   UNL     1      10.189  29.415  56.837  1.00  0.00     0.004 A 
HETATM   26  C   UNL     1       8.947  28.778  56.768  1.00  0.00     0.029 A 
ENDBRANCH  17  20
ENDBRANCH  15  16
ENDBRANCH   1  15
TORSDOF 3
ENDMDL
MODEL 4
REMARK VINA RESULT:      -8.7      3.651      6.379
REMARK  3 active torsions:
REMARK  status: ('A' for Active; 'I' for Inactive)
REMARK    1  A    between atoms: C_6  and  N_7 
REMARK       I    between atoms: N_7  and  C_8 
REMARK    2  A    between atoms: C_8  and  C_9 
REMARK    3  A    between atoms: C_9  and  C_10 
ROOT
HETATM    1  C   UNL     1       7.101  27.515  56.332  1.00  0.00     0.286 C 
HETATM    2  N   UNL     1       8.283  28.294  55.754  1.00  0.00    -0.056 N 
HETATM    3  H   UNL     1       8.860  27.607  55.227  1.00  0.00     0.278 HD
HETATM    4  H   UNL     1       7.957  28.986  55.068  1.00  0.00     0.278 HD
HETATM    5  C   UNL     1       9.075  28.936  56.853  1.00  0.00     0.209 C 
HETATM    6  C   UNL     1       8.153  29.931  57.594  1.00  0.00     0.115 C 
HETATM    7  N   UNL     1       6.902  29.315  58.031  1.00  0.00    -0.353 N 
HETATM    8  C   UNL     1       6.229  28.392  57.255  1.00  0.00     0.249 C 
HETATM    9  O   UNL     1       5.020  28.244  57.376  1.00  0.00    -0.271 OA
HETATM   10  C   UNL     1      10.301  29.640  56.288  1.00  0.00     0.035 C 
HETATM   11  C   UNL     1      11.076  30.316  57.422  1.00  0.00     0.002 C 
HETATM   12  C   UNL     1      10.196  31.251  58.254  1.00  0.00     0.002 C 
HETATM   13  C   UNL     1       8.916  30.573  58.752  1.00  0.00     0.027 C 
HETATM   14  H   UNL     1       6.269  29.877  58.599  1.00  0.00     0.163 HD
ENDROOT
BRANCH   1  15
HETATM   15  C   UNL     1       6.280  26.849  55.223  1.00  0.00     0.146 C 
BRANCH  15  16
HETATM   16  C   UNL     1       7.087  26.811  53.950  1.00  0.00     0.224 C 
HETATM   17  N   UNL     1       7.788  25.716  53.561  1.00  0.00    -0.327 N 
HETATM   18  H   UNL     1       8.390  25.914  52.767  1.00  0.00     0.169 HD
HETATM   19  O   UNL     1       7.120  27.828  53.242  1.00  0.00    -0.273 OA
BRANCH  17  20
HETATM   20  C   UNL     1       7.869  24.399  54.053  1.00  0.00     0.036 A 
HETATM   21  C   UNL     1       7.775  23.245  53.276  1.00  0.00     0.053 A 
HETATM   22  C   UNL     1       7.871  21.984  53.875  1.00  0.00     0.036 A 
HETATM   23  C   UNL     1       8.072  21.856  55.246  1.00  0.00     0.024 A 
HETATM   24 CL   UNL     1       7.754  20.572  52.897  1.00  0.00    -0.084 Cl
HETATM   25  C   UNL     1       8.194  23.001  56.026  1.00  0.00     0.004 A 
HETATM   26  C   UNL     1       8.105  24.263  55.431  1.00  0.00     0.029 A 
ENDBRANCH  17  20
ENDBRANCH  15  16
ENDBRANCH   1  15
TORSDOF 3
ENDMDL
MODEL 5
REMARK VINA RESULT:      -8.6      3.695      5.479
REMARK  3 active torsions:
REMARK  status: ('A' for Active; 'I' for Inactive)
REMARK    1  A    between atoms: C_6  and  N_7 
REMARK       I    between atoms: N_7  and  C_8 
REMARK    2  A    between atoms: C_8  and  C_9 
REMARK    3  A    between atoms: C_9  and  C_10 
ROOT
HETATM    1  C   UNL     1       7.045  26.584  54.500  1.00  0.00     0.286 C 
HETATM    2  N   UNL     1       7.603  25.516  55.441  1.00  0.00    -0.056 N 
HETATM    3  H   UNL     1       8.354  25.976  55.996  1.00  0.00     0.278 HD
HETATM    4  H   UNL     1       6.886  25.218  56.114  1.00  0.00     0.278 HD
HETATM    5  C   UNL     1       8.140  24.357  54.658  1.00  0.00     0.209 C 
HETATM    6  C   UNL     1       6.975  23.735  53.855  1.00  0.00     0.115 C 
HETATM    7  N   UNL     1       6.257  24.725  53.054  1.00  0.00    -0.353 N 
HETATM    8  C   UNL     1       6.006  26.001  53.519  1.00  0.00     0.249 C 
HETATM    9  O   UNL     1       5.052  26.638  53.093  1.00  0.00    -0.271 OA
HETATM   10  C   UNL     1       8.775  23.331  55.587  1.00  0.00     0.035 C 
HETATM   11  C   UNL     1       9.287  22.142  54.770  1.00  0.00     0.002 C 
HETATM   12  C   UNL     1       8.201  21.533  53.882  1.00  0.00     0.002 C 
HETATM   13  C   UNL     1       7.497  22.575  53.008  1.00  0.00     0.027 C 
HETATM   14  H   UNL     1       5.524  24.389  52.431  1.00  0.00     0.163 HD
ENDROOT
BRANCH   1  15
HETATM   15  C   UNL     1       6.491  27.779  55.283  1.00  0.00     0.146 C 
BRANCH  15  16
HETATM   16  C   UNL     1       6.271  27.383  56.720  1.00  0.00     0.224 C 
HETATM   17  N   UNL     1       7.067  27.819  57.730  1.00  0.00    -0.327 N 
HETATM   18  H   UNL     1       6.869  27.337  58.603  1.00  0.00     0.169 HD
HETATM   19  O   UNL     1       5.333  26.617  56.983  1.00  0.00    -0.273 OA
BRANCH  17  20
HETATM   20  C   UNL     1       8.111  28.761  57.795  1.00  0.00     0.036 A 
HETATM   21  C   UNL     1       8.126  29.888  58.617  1.00  0.00     0.053 A 
HETATM   22  C   UNL     1       9.222  30.757  58.599  1.00  0.00     0.036 A 
HETATM   23  C   UNL     1      10.317  30.512  57.775  1.00  0.00     0.024 A 
HETATM   24 CL   UNL     1       9.220  32.141  59.622  1.00  0.00    -0.084 Cl
HETATM   25  C   UNL     1      10.324  29.376  56.972  1.00  0.00     0.004 A 
HETATM   26  C   UNL     1       9.234  28.502  56.992  1.00  0.00     0.029 A 
ENDBRANCH  17  20
ENDBRANCH  15  16
ENDBRANCH   1  15
TORSDOF 3
ENDMDL
MODEL 6
REMARK VINA RESULT:      -8.4      3.259      6.518
REMARK  3 active torsions:
REMARK  status: ('A' for Active; 'I' for Inactive)
REMARK    1  A    between atoms: C_6  and  N_7 
REMARK       I    between atoms: N_7  and  C_8 
REMARK    2  A    between atoms: C_8  and  C_9 
REMARK    3  A    between atoms: C_9  and  C_10 
ROOT
HETATM    1  C   UNL     1       5.658  25.802  54.258  1.00  0.00     0.286 C 
HETATM    2  N   UNL     1       6.949  26.076  55.028  1.00  0.00    -0.056 N 
HETATM    3  H   UNL     1       7.239  25.169  55.450  1.00  0.00     0.278 HD
HETATM    4  H   UNL     1       7.702  26.350  54.385  1.00  0.00     0.278 HD
HETATM    5  C   UNL     1       6.721  27.115  56.083  1.00  0.00     0.209 C 
HETATM    6  C   UNL     1       6.286  28.424  55.385  1.00  0.00     0.115 C 
HETATM    7  N   UNL     1       5.157  28.225  54.478  1.00  0.00    -0.353 N 
HETATM    8  C   UNL     1       5.041  27.098  53.688  1.00  0.00     0.249 C 
HETATM    9  O   UNL     1       4.408  27.137  52.642  1.00  0.00    -0.271 OA
HETATM   10  C   UNL     1       7.982  27.327  56.909  1.00  0.00     0.035 C 
HETATM   11  C   UNL     1       7.736  28.415  57.958  1.00  0.00     0.002 C 
HETATM   12  C   UNL     1       7.216  29.714  57.340  1.00  0.00     0.002 C 
HETATM   13  C   UNL     1       5.999  29.496  56.436  1.00  0.00     0.027 C 
HETATM   14  H   UNL     1       4.753  29.049  54.036  1.00  0.00     0.163 HD
ENDROOT
BRANCH   1  15
HETATM   15  C   UNL     1       5.872  24.740  53.175  1.00  0.00     0.146 C 
BRANCH  15  16
HETATM   16  C   UNL     1       7.278  24.837  52.643  1.00  0.00     0.224 C 
HETATM   17  N   UNL     1       8.253  23.957  52.985  1.00  0.00    -0.327 N 
HETATM   18  H   UNL     1       9.167  24.259  52.659  1.00  0.00     0.169 HD
HETATM   19  O   UNL     1       7.555  25.770  51.874  1.00  0.00    -0.273 OA
BRANCH  17  20
HETATM   20  C   UNL     1       8.251  22.753  53.716  1.00  0.00     0.036 A 
HETATM   21  C   UNL     1       8.307  22.659  55.106  1.00  0.00     0.053 A 
HETATM   22  C   UNL     1       8.297  21.405  55.727  1.00  0.00     0.036 A 
HETATM   23  C   UNL     1       8.222  20.235  54.976  1.00  0.00     0.024 A 
HETATM   24 CL   UNL     1       8.365  21.311  57.444  1.00  0.00    -0.084 Cl
HETATM   25  C   UNL     1       8.138  20.320  53.590  1.00  0.00     0.004 A 
HETATM   26  C   UNL     1       8.141  21.571  52.967  1.00  0.00     0.029 A 
ENDBRANCH  17  20
ENDBRANCH  15  16
ENDBRANCH   1  15
TORSDOF 3
ENDMDL
MODEL 7
REMARK VINA RESULT:      -8.3      2.358      3.277
REMARK  3 active torsions:
REMARK  status: ('A' for Active; 'I' for Inactive)
REMARK    1  A    between atoms: C_6  and  N_7 
REMARK       I    between atoms: N_7  and  C_8 
REMARK    2  A    between atoms: C_8  and  C_9 
REMARK    3  A    between atoms: C_9  and  C_10 
ROOT
HETATM    1  C   UNL     1       5.182  25.532  53.881  1.00  0.00     0.286 C 
HETATM    2  N   UNL     1       6.314  24.950  53.035  1.00  0.00    -0.056 N 
HETATM    3  H   UNL     1       5.912  24.760  52.094  1.00  0.00     0.278 HD
HETATM    4  H   UNL     1       7.056  25.647  52.898  1.00  0.00     0.278 HD
HETATM    5  C   UNL     1       6.845  23.696  53.661  1.00  0.00     0.209 C 
HETATM    6  C   UNL     1       7.414  24.054  55.053  1.00  0.00     0.115 C 
HETATM    7  N   UNL     1       6.452  24.782  55.879  1.00  0.00    -0.353 N 
HETATM    8  C   UNL     1       5.608  25.739  55.350  1.00  0.00     0.249 C 
HETATM    9  O   UNL     1       5.173  26.639  56.056  1.00  0.00    -0.271 OA
HETATM   10  C   UNL     1       7.912  23.066  52.777  1.00  0.00     0.035 C 
HETATM   11  C   UNL     1       8.463  21.806  53.450  1.00  0.00     0.002 C 
HETATM   12  C   UNL     1       8.963  22.075  54.870  1.00  0.00     0.002 C 
HETATM   13  C   UNL     1       7.923  22.788  55.740  1.00  0.00     0.027 C 
HETATM   14  H   UNL     1       6.715  24.988  56.842  1.00  0.00     0.163 HD
ENDROOT
BRANCH   1  15
HETATM   15  C   UNL     1       4.625  26.816  53.256  1.00  0.00     0.146 C 
BRANCH  15  16
HETATM   16  C   UNL     1       5.702  27.491  52.445  1.00  0.00     0.224 C 
HETATM   17  N   UNL     1       5.595  27.686  51.106  1.00  0.00    -0.327 N 
HETATM   18  H   UNL     1       6.468  28.013  50.700  1.00  0.00     0.169 HD
HETATM   19  O   UNL     1       6.730  27.867  53.026  1.00  0.00    -0.273 OA
BRANCH  17  20
HETATM   20  C   UNL     1       4.547  27.495  50.185  1.00  0.00     0.036 A 
HETATM   21  C   UNL     1       4.379  26.367  49.383  1.00  0.00     0.053 A 
HETATM   22  C   UNL     1       3.295  26.286  48.502  1.00  0.00     0.036 A 
HETATM   23  C   UNL     1       2.363  27.317  48.415  1.00  0.00     0.024 A 
HETATM   24 CL   UNL     1       3.105  24.884  47.522  1.00  0.00    -0.084 Cl
HETATM   25  C   UNL     1       2.507  28.435  49.231  1.00  0.00     0.004 A 
HETATM   26  C   UNL     1       3.585  28.516  50.117  1.00  0.00     0.029 A 
ENDBRANCH  17  20
ENDBRANCH  15  16
ENDBRANCH   1  15
TORSDOF 3
ENDMDL
MODEL 8
REMARK VINA RESULT:      -8.3      3.026      6.615
REMARK  3 active torsions:
REMARK  status: ('A' for Active; 'I' for Inactive)
REMARK    1  A    between atoms: C_6  and  N_7 
REMARK       I    between atoms: N_7  and  C_8 
REMARK    2  A    between atoms: C_8  and  C_9 
REMARK    3  A    between atoms: C_9  and  C_10 
ROOT
HETATM    1  C   UNL     1       4.643  27.016  53.180  1.00  0.00     0.286 C 
HETATM    2  N   UNL     1       5.463  28.055  52.416  1.00  0.00    -0.056 N 
HETATM    3  H   UNL     1       5.366  28.950  52.939  1.00  0.00     0.278 HD
HETATM    4  H   UNL     1       6.462  27.814  52.439  1.00  0.00     0.278 HD
HETATM    5  C   UNL     1       4.960  28.191  51.011  1.00  0.00     0.209 C 
HETATM    6  C   UNL     1       5.127  26.827  50.304  1.00  0.00     0.115 C 
HETATM    7  N   UNL     1       4.525  25.729  51.059  1.00  0.00    -0.353 N 
HETATM    8  C   UNL     1       4.591  25.664  52.437  1.00  0.00     0.249 C 
HETATM    9  O   UNL     1       4.526  24.584  53.010  1.00  0.00    -0.271 OA
HETATM   10  C   UNL     1       5.717  29.287  50.274  1.00  0.00     0.035 C 
HETATM   11  C   UNL     1       5.210  29.387  48.833  1.00  0.00     0.002 C 
HETATM   12  C   UNL     1       5.265  28.044  48.102  1.00  0.00     0.002 C 
HETATM   13  C   UNL     1       4.581  26.916  48.880  1.00  0.00     0.027 C 
HETATM   14  H   UNL     1       4.518  24.806  50.628  1.00  0.00     0.163 HD
ENDROOT
BRANCH   1  15
HETATM   15  C   UNL     1       5.143  26.864  54.621  1.00  0.00     0.146 C 
BRANCH  15  16
HETATM   16  C   UNL     1       6.579  27.312  54.707  1.00  0.00     0.224 C 
HETATM   17  N   UNL     1       7.622  26.448  54.620  1.00  0.00    -0.327 N 
HETATM   18  H   UNL     1       8.505  26.896  54.850  1.00  0.00     0.169 HD
HETATM   19  O   UNL     1       6.811  28.517  54.880  1.00  0.00    -0.273 OA
BRANCH  17  20
HETATM   20  C   UNL     1       7.714  25.076  54.314  1.00  0.00     0.036 A 
HETATM   21  C   UNL     1       7.570  24.038  55.234  1.00  0.00     0.053 A 
HETATM   22  C   UNL     1       7.681  22.708  54.814  1.00  0.00     0.036 A 
HETATM   23  C   UNL     1       7.924  22.395  53.480  1.00  0.00     0.024 A 
HETATM   24 CL   UNL     1       7.498  21.440  55.965  1.00  0.00    -0.084 Cl
HETATM   25  C   UNL     1       8.041  23.423  52.550  1.00  0.00     0.004 A 
HETATM   26  C   UNL     1       7.925  24.753  52.964  1.00  0.00     0.029 A 
ENDBRANCH  17  20
ENDBRANCH  15  16
ENDBRANCH   1  15
TORSDOF 3
ENDMDL
MODEL 9
REMARK VINA RESULT:      -8.1      2.819      6.804
REMARK  3 active torsions:
REMARK  status: ('A' for Active; 'I' for Inactive)
REMARK    1  A    between atoms: C_6  and  N_7 
REMARK       I    between atoms: N_7  and  C_8 
REMARK    2  A    between atoms: C_8  and  C_9 
REMARK    3  A    between atoms: C_9  and  C_10 
ROOT
HETATM    1  C   UNL     1       6.533  25.684  53.471  1.00  0.00     0.286 C 
HETATM    2  N   UNL     1       5.941  27.082  53.640  1.00  0.00    -0.056 N 
HETATM    3  H   UNL     1       5.575  27.133  54.614  1.00  0.00     0.278 HD
HETATM    4  H   UNL     1       6.676  27.796  53.569  1.00  0.00     0.278 HD
HETATM    5  C   UNL     1       4.849  27.314  52.640  1.00  0.00     0.209 C 
HETATM    6  C   UNL     1       5.462  27.214  51.224  1.00  0.00     0.115 C 
HETATM    7  N   UNL     1       6.211  25.975  51.026  1.00  0.00    -0.353 N 
HETATM    8  C   UNL     1       6.995  25.425  52.022  1.00  0.00     0.249 C 
HETATM    9  O   UNL     1       7.945  24.708  51.737  1.00  0.00    -0.271 OA
HETATM   10  C   UNL     1       4.198  28.672  52.861  1.00  0.00     0.035 C 
HETATM   11  C   UNL     1       3.109  28.901  51.810  1.00  0.00     0.002 C 
HETATM   12  C   UNL     1       3.632  28.729  50.382  1.00  0.00     0.002 C 
HETATM   13  C   UNL     1       4.366  27.400  50.176  1.00  0.00     0.027 C 
HETATM   14  H   UNL     1       6.582  25.789  50.096  1.00  0.00     0.163 HD
ENDROOT
BRANCH   1  15
HETATM   15  C   UNL     1       7.651  25.428  54.488  1.00  0.00     0.146 C 
BRANCH  15  16
HETATM   16  C   UNL     1       7.049  25.053  55.817  1.00  0.00     0.224 C 
HETATM   17  N   UNL     1       7.039  23.777  56.282  1.00  0.00    -0.327 N 
HETATM   18  H   UNL     1       6.464  23.682  57.115  1.00  0.00     0.169 HD
HETATM   19  O   UNL     1       6.530  25.946  56.503  1.00  0.00    -0.273 OA
BRANCH  17  20
HETATM   20  C   UNL     1       7.628  22.581  55.828  1.00  0.00     0.036 A 
HETATM   21  C   UNL     1       7.636  22.144  54.504  1.00  0.00     0.053 A 
HETATM   22  C   UNL     1       8.254  20.935  54.167  1.00  0.00     0.036 A 
HETATM   23  C   UNL     1       8.878  20.155  55.136  1.00  0.00     0.024 A 
HETATM   24 CL   UNL     1       8.254  20.414  52.526  1.00  0.00    -0.084 Cl
HETATM   25  C   UNL     1       8.899  20.596  56.455  1.00  0.00     0.004 A 
HETATM   26  C   UNL     1       8.288  21.806  56.795  1.00  0.00     0.029 A 
ENDBRANCH  17  20
ENDBRANCH  15  16
ENDBRANCH   1  15
TORSDOF 3
ENDMDL
MODEL 10
REMARK VINA RESULT:      -8.1      2.954      4.051
REMARK  3 active torsions:
REMARK  status: ('A' for Active; 'I' for Inactive)
REMARK    1  A    between atoms: C_6  and  N_7 
REMARK       I    between atoms: N_7  and  C_8 
REMARK    2  A    between atoms: C_8  and  C_9 
REMARK    3  A    between atoms: C_9  and  C_10 
ROOT
HETATM    1  C   UNL     1       7.476  25.257  55.978  1.00  0.00     0.286 C 
HETATM    2  N   UNL     1       7.228  23.793  56.341  1.00  0.00    -0.056 N 
HETATM    3  H   UNL     1       7.621  23.655  57.296  1.00  0.00     0.278 HD
HETATM    4  H   UNL     1       6.221  23.604  56.413  1.00  0.00     0.278 HD
HETATM    5  C   UNL     1       7.890  22.887  55.348  1.00  0.00     0.209 C 
HETATM    6  C   UNL     1       7.265  23.154  53.960  1.00  0.00     0.115 C 
HETATM    7  N   UNL     1       7.292  24.570  53.598  1.00  0.00    -0.353 N 
HETATM    8  C   UNL     1       7.059  25.568  54.525  1.00  0.00     0.249 C 
HETATM    9  O   UNL     1       6.624  26.655  54.169  1.00  0.00    -0.271 OA
HETATM   10  C   UNL     1       7.720  21.430  55.754  1.00  0.00     0.035 C 
HETATM   11  C   UNL     1       8.374  20.522  54.710  1.00  0.00     0.002 C 
HETATM   12  C   UNL     1       7.863  20.798  53.295  1.00  0.00     0.002 C 
HETATM   13  C   UNL     1       7.950  22.278  52.911  1.00  0.00     0.027 C 
HETATM   14  H   UNL     1       6.974  24.828  52.665  1.00  0.00     0.163 HD
ENDROOT
BRANCH   1  15
HETATM   15  C   UNL     1       6.807  26.199  56.985  1.00  0.00     0.146 C 
BRANCH  15  16
HETATM   16  C   UNL     1       5.312  26.017  56.930  1.00  0.00     0.224 C 
HETATM   17  N   UNL     1       4.455  27.053  56.743  1.00  0.00    -0.327 N 
HETATM   18  H   UNL     1       3.488  26.775  56.885  1.00  0.00     0.169 HD
HETATM   19  O   UNL     1       4.851  24.876  57.078  1.00  0.00    -0.273 OA
BRANCH  17  20
HETATM   20  C   UNL     1       4.642  28.414  56.432  1.00  0.00     0.036 A 
HETATM   21  C   UNL     1       5.197  29.364  57.289  1.00  0.00     0.053 A 
HETATM   22  C   UNL     1       5.336  30.692  56.871  1.00  0.00     0.036 A 
HETATM   23  C   UNL     1       4.936  31.088  55.598  1.00  0.00     0.024 A 
HETATM   24 CL   UNL     1       6.025  31.849  57.943  1.00  0.00    -0.084 Cl
HETATM   25  C   UNL     1       4.406  30.141  54.726  1.00  0.00     0.004 A 
HETATM   26  C   UNL     1       4.272  28.813  55.138  1.00  0.00     0.029 A 
ENDBRANCH  17  20
ENDBRANCH  15  16
ENDBRANCH   1  15
TORSDOF 3
ENDMDL
