MODEL 1
REMARK VINA RESULT:     -10.7      0.000      0.000
REMARK  6 active torsions:
REMARK  status: ('A' for Active; 'I' for Inactive)
REMARK    1  A    between atoms: C_3  and  C_4 
REMARK    2  A    between atoms: C_5  and  C_6 
REMARK       I    between atoms: C_6  and  N_7 
REMARK    3  A    between atoms: N_7  and  C_8 
REMARK    4  A    between atoms: C_8  and  C_9 
REMARK    5  A    between atoms: C_11  and  O_12 
REMARK    6  A    between atoms: O_12  and  C_13 
ROOT
HETATM    1  C   UNL     1       7.433  28.150  57.284  1.00  0.00     0.161 C 
ENDROOT
BRANCH   1   2
HETATM    2  N   UNL     1       7.868  26.929  56.641  1.00  0.00    -0.353 N 
HETATM    3  C   UNL     1       8.074  25.783  57.359  1.00  0.00     0.241 C 
HETATM    4  O   UNL     1       7.973  25.703  58.575  1.00  0.00    -0.269 OA
HETATM    5  H   UNL     1       8.027  26.951  55.642  1.00  0.00     0.163 HD
BRANCH   3   6
HETATM    6  C   UNL     1       8.422  24.624  56.497  1.00  0.00     0.075 C 
HETATM    7  C   UNL     1       7.452  23.825  56.028  1.00  0.00     0.018 C 
BRANCH   7   8
HETATM    8  C   UNL     1       7.701  22.689  55.122  1.00  0.00    -0.014 A 
HETATM    9  C   UNL     1       7.586  22.866  53.731  1.00  0.00     0.013 A 
HETATM   10  C   UNL     1       7.836  21.811  52.849  1.00  0.00     0.001 A 
HETATM   11  C   UNL     1       8.217  20.565  53.339  1.00  0.00     0.002 A 
HETATM   12  C   UNL     1       8.354  20.375  54.714  1.00  0.00     0.024 A 
HETATM   13  C   UNL     1       8.102  21.429  55.601  1.00  0.00     0.044 A 
HETATM   14 CL   UNL     1       8.281  21.099  57.291  1.00  0.00    -0.083 Cl
ENDBRANCH   7   8
ENDBRANCH   3   6
ENDBRANCH   1   2
BRANCH   1  15
HETATM   15  C   UNL     1       8.584  29.106  57.464  1.00  0.00    -0.038 A 
HETATM   16  C   UNL     1       8.427  30.263  58.243  1.00  0.00     0.046 A 
HETATM   17  C   UNL     1       9.461  31.195  58.350  1.00  0.00     0.078 A 
HETATM   18  C   UNL     1      10.698  30.930  57.766  1.00  0.00     0.037 A 
HETATM   19  C   UNL     1      10.883  29.760  57.029  1.00  0.00     0.003 A 
HETATM   20  C   UNL     1       9.829  28.856  56.871  1.00  0.00     0.009 A 
BRANCH  17  21
HETATM   21  O   UNL     1       9.341  32.347  59.088  1.00  0.00    -0.292 OA
BRANCH  21  22
HETATM   22  C   UNL     1       8.619  32.278  60.278  1.00  0.00     0.169 A 
HETATM   23  N   UNL     1       7.319  32.659  60.315  1.00  0.00    -0.237 NA
HETATM   24  C   UNL     1       6.703  32.592  61.515  1.00  0.00     0.119 A 
HETATM   25  C   UNL     1       7.322  32.166  62.679  1.00  0.00     0.019 A 
HETATM   26  C   UNL     1       8.660  31.791  62.614  1.00  0.00     0.006 A 
HETATM   27  C   UNL     1       9.327  31.853  61.394  1.00  0.00     0.058 A 
ENDBRANCH  21  22
ENDBRANCH  17  21
ENDBRANCH   1  15
TORSDOF 6
ENDMDL
MODEL 2
REMARK VINA RESULT:     -10.6      1.115      1.452
REMARK  6 active torsions:
REMARK  status: ('A' for Active; 'I' for Inactive)
REMARK    1  A    between atoms: C_3  and  C_4 
REMARK    2  A    between atoms: C_5  and  C_6 
REMARK       I    between atoms: C_6  and  N_7 
REMARK    3  A    between atoms: N_7  and  C_8 
REMARK    4  A    between atoms: C_8  and  C_9 
REMARK    5  A    between atoms: C_11  and  O_12 
REMARK    6  A    between atoms: O_12  and  C_13 
ROOT
HETATM    1  C   UNL     1       7.437  28.286  57.056  1.00  0.00     0.161 C 
ENDROOT
BRANCH   1   2
HETATM    2  N   UNL     1       7.863  27.007  56.532  1.00  0.00    -0.353 N 
HETATM    3  C   UNL     1       8.006  25.917  57.347  1.00  0.00     0.241 C 
HETATM    4  O   UNL     1       7.854  25.939  58.560  1.00  0.00    -0.269 OA
HETATM    5  H   UNL     1       8.062  26.944  55.542  1.00  0.00     0.163 HD
BRANCH   3   6
HETATM    6  C   UNL     1       8.354  24.684  56.596  1.00  0.00     0.075 C 
HETATM    7  C   UNL     1       7.412  24.045  55.887  1.00  0.00     0.018 C 
BRANCH   7   8
HETATM    8  C   UNL     1       7.682  22.849  55.068  1.00  0.00    -0.014 A 
HETATM    9  C   UNL     1       7.743  21.583  55.677  1.00  0.00     0.013 A 
HETATM   10  C   UNL     1       7.979  20.431  54.921  1.00  0.00     0.001 A 
HETATM   11  C   UNL     1       8.145  20.523  53.542  1.00  0.00     0.002 A 
HETATM   12  C   UNL     1       8.071  21.767  52.917  1.00  0.00     0.024 A 
HETATM   13  C   UNL     1       7.837  22.923  53.671  1.00  0.00     0.044 A 
HETATM   14 CL   UNL     1       7.776  24.426  52.815  1.00  0.00    -0.083 Cl
ENDBRANCH   7   8
ENDBRANCH   3   6
ENDBRANCH   1   2
BRANCH   1  15
HETATM   15  C   UNL     1       8.620  29.181  57.323  1.00  0.00    -0.038 A 
HETATM   16  C   UNL     1       8.475  30.325  58.123  1.00  0.00     0.046 A 
HETATM   17  C   UNL     1       9.545  31.203  58.310  1.00  0.00     0.078 A 
HETATM   18  C   UNL     1      10.797  30.893  57.786  1.00  0.00     0.037 A 
HETATM   19  C   UNL     1      10.967  29.734  57.029  1.00  0.00     0.003 A 
HETATM   20  C   UNL     1       9.882  28.886  56.791  1.00  0.00     0.009 A 
BRANCH  17  21
HETATM   21  O   UNL     1       9.438  32.342  59.071  1.00  0.00    -0.292 OA
BRANCH  21  22
HETATM   22  C   UNL     1       8.707  32.260  60.254  1.00  0.00     0.169 A 
HETATM   23  N   UNL     1       7.405  32.633  60.283  1.00  0.00    -0.237 NA
HETATM   24  C   UNL     1       6.779  32.555  61.478  1.00  0.00     0.119 A 
HETATM   25  C   UNL     1       7.390  32.123  62.644  1.00  0.00     0.019 A 
HETATM   26  C   UNL     1       8.731  31.756  62.587  1.00  0.00     0.006 A 
HETATM   27  C   UNL     1       9.408  31.832  61.373  1.00  0.00     0.058 A 
ENDBRANCH  21  22
ENDBRANCH  17  21
ENDBRANCH   1  15
TORSDOF 6
ENDMDL
MODEL 3
REMARK VINA RESULT:      -9.5      1.781      2.084
REMARK  6 active torsions:
REMARK  status: ('A' for Active; 'I' for Inactive)
REMARK    1  A    between atoms: C_3  and  C_4 
REMARK    2  A    between atoms: C_5  and  C_6 
REMARK       I    between atoms: C_6  and  N_7 
REMARK    3  A    between atoms: N_7  and  C_8 
REMARK    4  A    between atoms: C_8  and  C_9 
REMARK    5  A    between atoms: C_11  and  O_12 
REMARK    6  A    between atoms: O_12  and  C_13 
ROOT
HETATM    1  C   UNL     1       5.530  28.099  56.085  1.00  0.00     0.161 C 
ENDROOT
BRANCH   1   2
HETATM    2  N   UNL     1       5.720  26.698  55.780  1.00  0.00    -0.353 N 
HETATM    3  C   UNL     1       5.794  26.256  54.487  1.00  0.00     0.241 C 
HETATM    4  O   UNL     1       5.649  26.969  53.505  1.00  0.00    -0.269 OA
HETATM    5  H   UNL     1       5.788  26.050  56.554  1.00  0.00     0.163 HD
BRANCH   3   6
HETATM    6  C   UNL     1       6.090  24.803  54.397  1.00  0.00     0.075 C 
HETATM    7  C   UNL     1       7.363  24.381  54.352  1.00  0.00     0.018 C 
BRANCH   7   8
HETATM    8  C   UNL     1       7.747  22.958  54.320  1.00  0.00    -0.014 A 
HETATM    9  C   UNL     1       7.723  22.255  53.102  1.00  0.00     0.013 A 
HETATM   10  C   UNL     1       8.100  20.910  53.040  1.00  0.00     0.001 A 
HETATM   11  C   UNL     1       8.520  20.249  54.191  1.00  0.00     0.002 A 
HETATM   12  C   UNL     1       8.568  20.933  55.404  1.00  0.00     0.024 A 
HETATM   13  C   UNL     1       8.188  22.279  55.471  1.00  0.00     0.044 A 
HETATM   14 CL   UNL     1       8.264  23.046  57.021  1.00  0.00    -0.083 Cl
ENDBRANCH   7   8
ENDBRANCH   3   6
ENDBRANCH   1   2
BRANCH   1  15
HETATM   15  C   UNL     1       6.768  28.690  56.708  1.00  0.00    -0.038 A 
HETATM   16  C   UNL     1       6.707  29.932  57.360  1.00  0.00     0.046 A 
HETATM   17  C   UNL     1       7.865  30.525  57.869  1.00  0.00     0.078 A 
HETATM   18  C   UNL     1       9.075  29.836  57.827  1.00  0.00     0.037 A 
HETATM   19  C   UNL     1       9.139  28.579  57.225  1.00  0.00     0.003 A 
HETATM   20  C   UNL     1       7.993  28.012  56.660  1.00  0.00     0.009 A 
BRANCH  17  21
HETATM   21  O   UNL     1       7.850  31.746  58.498  1.00  0.00    -0.292 OA
BRANCH  21  22
HETATM   22  C   UNL     1       8.027  31.762  59.880  1.00  0.00     0.169 A 
HETATM   23  N   UNL     1       6.966  31.616  60.709  1.00  0.00    -0.237 NA
HETATM   24  C   UNL     1       7.220  31.677  62.035  1.00  0.00     0.119 A 
HETATM   25  C   UNL     1       8.482  31.878  62.571  1.00  0.00     0.019 A 
HETATM   26  C   UNL     1       9.552  32.036  61.695  1.00  0.00     0.006 A 
HETATM   27  C   UNL     1       9.324  31.985  60.324  1.00  0.00     0.058 A 
ENDBRANCH  21  22
ENDBRANCH  17  21
ENDBRANCH   1  15
TORSDOF 6
ENDMDL
MODEL 4
REMARK VINA RESULT:      -9.5      3.211     10.255
REMARK  6 active torsions:
REMARK  status: ('A' for Active; 'I' for Inactive)
REMARK    1  A    between atoms: C_3  and  C_4 
REMARK    2  A    between atoms: C_5  and  C_6 
REMARK       I    between atoms: C_6  and  N_7 
REMARK    3  A    between atoms: N_7  and  C_8 
REMARK    4  A    between atoms: C_8  and  C_9 
REMARK    5  A    between atoms: C_11  and  O_12 
REMARK    6  A    between atoms: O_12  and  C_13 
ROOT
HETATM    1  C   UNL     1       9.134  29.609  57.719  1.00  0.00     0.161 C 
ENDROOT
BRANCH   1   2
HETATM    2  N   UNL     1       8.927  30.368  58.933  1.00  0.00    -0.353 N 
HETATM    3  C   UNL     1       9.535  31.579  59.126  1.00  0.00     0.241 C 
HETATM    4  O   UNL     1      10.329  32.084  58.346  1.00  0.00    -0.269 OA
HETATM    5  H   UNL     1       8.325  29.971  59.642  1.00  0.00     0.163 HD
BRANCH   3   6
HETATM    6  C   UNL     1       9.112  32.234  60.390  1.00  0.00     0.075 C 
HETATM    7  C   UNL     1       7.822  32.208  60.758  1.00  0.00     0.018 C 
BRANCH   7   8
HETATM    8  C   UNL     1       7.326  32.782  62.022  1.00  0.00    -0.014 A 
HETATM    9  C   UNL     1       8.085  32.646  63.197  1.00  0.00     0.013 A 
HETATM   10  C   UNL     1       7.647  33.197  64.405  1.00  0.00     0.001 A 
HETATM   11  C   UNL     1       6.448  33.904  64.456  1.00  0.00     0.002 A 
HETATM   12  C   UNL     1       5.690  34.065  63.298  1.00  0.00     0.024 A 
HETATM   13  C   UNL     1       6.124  33.512  62.087  1.00  0.00     0.044 A 
HETATM   14 CL   UNL     1       5.112  33.747  60.703  1.00  0.00    -0.083 Cl
ENDBRANCH   7   8
ENDBRANCH   3   6
ENDBRANCH   1   2
BRANCH   1  15
HETATM   15  C   UNL     1       7.956  28.715  57.433  1.00  0.00    -0.038 A 
HETATM   16  C   UNL     1       8.158  27.398  56.990  1.00  0.00     0.046 A 
HETATM   17  C   UNL     1       7.074  26.589  56.645  1.00  0.00     0.078 A 
HETATM   18  C   UNL     1       5.773  27.050  56.838  1.00  0.00     0.037 A 
HETATM   19  C   UNL     1       5.558  28.340  57.324  1.00  0.00     0.003 A 
HETATM   20  C   UNL     1       6.643  29.172  57.611  1.00  0.00     0.009 A 
BRANCH  17  21
HETATM   21  O   UNL     1       7.230  25.301  56.192  1.00  0.00    -0.292 OA
BRANCH  21  22
HETATM   22  C   UNL     1       7.436  25.120  54.826  1.00  0.00     0.169 A 
HETATM   23  N   UNL     1       7.225  26.139  53.959  1.00  0.00    -0.237 NA
HETATM   24  C   UNL     1       7.415  25.868  52.649  1.00  0.00     0.119 A 
HETATM   25  C   UNL     1       7.805  24.630  52.164  1.00  0.00     0.019 A 
HETATM   26  C   UNL     1       8.005  23.599  53.077  1.00  0.00     0.006 A 
HETATM   27  C   UNL     1       7.811  23.842  54.433  1.00  0.00     0.058 A 
ENDBRANCH  21  22
ENDBRANCH  17  21
ENDBRANCH   1  15
TORSDOF 6
ENDMDL
MODEL 5
REMARK VINA RESULT:      -9.3      2.621      4.413
REMARK  6 active torsions:
REMARK  status: ('A' for Active; 'I' for Inactive)
REMARK    1  A    between atoms: C_3  and  C_4 
REMARK    2  A    between atoms: C_5  and  C_6 
REMARK       I    between atoms: C_6  and  N_7 
REMARK    3  A    between atoms: N_7  and  C_8 
REMARK    4  A    between atoms: C_8  and  C_9 
REMARK    5  A    between atoms: C_11  and  O_12 
REMARK    6  A    between atoms: O_12  and  C_13 
ROOT
HETATM    1  C   UNL     1       5.434  27.692  53.471  1.00  0.00     0.161 C 
ENDROOT
BRANCH   1   2
HETATM    2  N   UNL     1       5.857  26.309  53.507  1.00  0.00    -0.353 N 
HETATM    3  C   UNL     1       6.044  25.593  52.356  1.00  0.00     0.241 C 
HETATM    4  O   UNL     1       5.819  26.021  51.234  1.00  0.00    -0.269 OA
HETATM    5  H   UNL     1       6.001  25.883  54.413  1.00  0.00     0.163 HD
BRANCH   3   6
HETATM    6  C   UNL     1       6.571  24.228  52.613  1.00  0.00     0.075 C 
HETATM    7  C   UNL     1       7.231  23.970  53.752  1.00  0.00     0.018 C 
BRANCH   7   8
HETATM    8  C   UNL     1       7.738  22.633  54.113  1.00  0.00    -0.014 A 
HETATM    9  C   UNL     1       7.894  21.653  53.117  1.00  0.00     0.013 A 
HETATM   10  C   UNL     1       8.390  20.383  53.429  1.00  0.00     0.001 A 
HETATM   11  C   UNL     1       8.750  20.077  54.739  1.00  0.00     0.002 A 
HETATM   12  C   UNL     1       8.619  21.041  55.737  1.00  0.00     0.024 A 
HETATM   13  C   UNL     1       8.120  22.313  55.429  1.00  0.00     0.044 A 
HETATM   14 CL   UNL     1       7.977  23.442  56.733  1.00  0.00    -0.083 Cl
ENDBRANCH   7   8
ENDBRANCH   3   6
ENDBRANCH   1   2
BRANCH   1  15
HETATM   15  C   UNL     1       5.393  28.282  54.857  1.00  0.00    -0.038 A 
HETATM   16  C   UNL     1       6.467  28.089  55.740  1.00  0.00     0.046 A 
HETATM   17  C   UNL     1       6.404  28.563  57.052  1.00  0.00     0.078 A 
HETATM   18  C   UNL     1       5.312  29.323  57.464  1.00  0.00     0.037 A 
HETATM   19  C   UNL     1       4.259  29.564  56.581  1.00  0.00     0.003 A 
HETATM   20  C   UNL     1       4.294  29.038  55.287  1.00  0.00     0.009 A 
BRANCH  17  21
HETATM   21  O   UNL     1       7.426  28.379  57.951  1.00  0.00    -0.292 OA
BRANCH  21  22
HETATM   22  C   UNL     1       8.576  29.147  57.784  1.00  0.00     0.169 A 
HETATM   23  N   UNL     1       9.580  28.715  56.983  1.00  0.00    -0.237 NA
HETATM   24  C   UNL     1      10.674  29.504  56.904  1.00  0.00     0.119 A 
HETATM   25  C   UNL     1      10.814  30.702  57.586  1.00  0.00     0.019 A 
HETATM   26  C   UNL     1       9.772  31.116  58.410  1.00  0.00     0.006 A 
HETATM   27  C   UNL     1       8.633  30.324  58.520  1.00  0.00     0.058 A 
ENDBRANCH  21  22
ENDBRANCH  17  21
ENDBRANCH   1  15
TORSDOF 6
ENDMDL
MODEL 6
REMARK VINA RESULT:      -9.2      3.391      6.198
REMARK  6 active torsions:
REMARK  status: ('A' for Active; 'I' for Inactive)
REMARK    1  A    between atoms: C_3  and  C_4 
REMARK    2  A    between atoms: C_5  and  C_6 
REMARK       I    between atoms: C_6  and  N_7 
REMARK    3  A    between atoms: N_7  and  C_8 
REMARK    4  A    between atoms: C_8  and  C_9 
REMARK    5  A    between atoms: C_11  and  O_12 
REMARK    6  A    between atoms: O_12  and  C_13 
ROOT
HETATM    1  C   UNL     1       7.899  28.290  57.320  1.00  0.00     0.161 C 
ENDROOT
BRANCH   1   2
HETATM    2  N   UNL     1       8.257  27.045  56.678  1.00  0.00    -0.353 N 
HETATM    3  C   UNL     1       8.182  25.853  57.347  1.00  0.00     0.241 C 
HETATM    4  O   UNL     1       7.877  25.742  58.525  1.00  0.00    -0.269 OA
HETATM    5  H   UNL     1       8.575  27.082  55.718  1.00  0.00     0.163 HD
BRANCH   3   6
HETATM    6  C   UNL     1       8.499  24.691  56.478  1.00  0.00     0.075 C 
HETATM    7  C   UNL     1       7.522  23.850  56.105  1.00  0.00     0.018 C 
BRANCH   7   8
HETATM    8  C   UNL     1       7.737  22.705  55.201  1.00  0.00    -0.014 A 
HETATM    9  C   UNL     1       7.638  22.886  53.810  1.00  0.00     0.013 A 
HETATM   10  C   UNL     1       7.856  21.822  52.929  1.00  0.00     0.001 A 
HETATM   11  C   UNL     1       8.187  20.564  53.422  1.00  0.00     0.002 A 
HETATM   12  C   UNL     1       8.307  20.369  54.797  1.00  0.00     0.024 A 
HETATM   13  C   UNL     1       8.087  21.431  55.683  1.00  0.00     0.044 A 
HETATM   14 CL   UNL     1       8.242  21.094  57.373  1.00  0.00    -0.083 Cl
ENDBRANCH   7   8
ENDBRANCH   3   6
ENDBRANCH   1   2
BRANCH   1  15
HETATM   15  C   UNL     1       6.702  28.918  56.653  1.00  0.00    -0.038 A 
HETATM   16  C   UNL     1       5.869  28.149  55.826  1.00  0.00     0.046 A 
HETATM   17  C   UNL     1       4.806  28.741  55.141  1.00  0.00     0.078 A 
HETATM   18  C   UNL     1       4.501  30.083  55.355  1.00  0.00     0.037 A 
HETATM   19  C   UNL     1       5.293  30.847  56.213  1.00  0.00     0.003 A 
HETATM   20  C   UNL     1       6.393  30.271  56.852  1.00  0.00     0.009 A 
BRANCH  17  21
HETATM   21  O   UNL     1       3.978  28.027  54.309  1.00  0.00    -0.292 OA
BRANCH  21  22
HETATM   22  C   UNL     1       4.566  27.342  53.247  1.00  0.00     0.169 A 
HETATM   23  N   UNL     1       4.997  28.013  52.152  1.00  0.00    -0.237 NA
HETATM   24  C   UNL     1       5.524  27.270  51.155  1.00  0.00     0.119 A 
HETATM   25  C   UNL     1       5.639  25.890  51.198  1.00  0.00     0.019 A 
HETATM   26  C   UNL     1       5.177  25.225  52.330  1.00  0.00     0.006 A 
HETATM   27  C   UNL     1       4.623  25.961  53.373  1.00  0.00     0.058 A 
ENDBRANCH  21  22
ENDBRANCH  17  21
ENDBRANCH   1  15
TORSDOF 6
ENDMDL
MODEL 7
REMARK VINA RESULT:      -9.0      2.802      9.981
REMARK  6 active torsions:
REMARK  status: ('A' for Active; 'I' for Inactive)
REMARK    1  A    between atoms: C_3  and  C_4 
REMARK    2  A    between atoms: C_5  and  C_6 
REMARK       I    between atoms: C_6  and  N_7 
REMARK    3  A    between atoms: N_7  and  C_8 
REMARK    4  A    between atoms: C_8  and  C_9 
REMARK    5  A    between atoms: C_11  and  O_12 
REMARK    6  A    between atoms: O_12  and  C_13 
ROOT
HETATM    1  C   UNL     1       7.446  28.623  55.449  1.00  0.00     0.161 C 
ENDROOT
BRANCH   1   2
HETATM    2  N   UNL     1       7.373  29.530  56.573  1.00  0.00    -0.353 N 
HETATM    3  C   UNL     1       8.470  29.790  57.349  1.00  0.00     0.241 C 
HETATM    4  O   UNL     1       9.558  29.251  57.207  1.00  0.00    -0.269 OA
HETATM    5  H   UNL     1       6.480  29.961  56.776  1.00  0.00     0.163 HD
BRANCH   3   6
HETATM    6  C   UNL     1       8.205  30.821  58.386  1.00  0.00     0.075 C 
HETATM    7  C   UNL     1       7.976  30.449  59.654  1.00  0.00     0.018 C 
BRANCH   7   8
HETATM    8  C   UNL     1       7.761  31.405  60.755  1.00  0.00    -0.014 A 
HETATM    9  C   UNL     1       6.784  32.409  60.628  1.00  0.00     0.013 A 
HETATM   10  C   UNL     1       6.546  33.317  61.665  1.00  0.00     0.001 A 
HETATM   11  C   UNL     1       7.271  33.229  62.850  1.00  0.00     0.002 A 
HETATM   12  C   UNL     1       8.232  32.230  63.002  1.00  0.00     0.024 A 
HETATM   13  C   UNL     1       8.475  31.321  61.965  1.00  0.00     0.044 A 
HETATM   14 CL   UNL     1       9.695  30.124  62.234  1.00  0.00    -0.083 Cl
ENDBRANCH   7   8
ENDBRANCH   3   6
ENDBRANCH   1   2
BRANCH   1  15
HETATM   15  C   UNL     1       7.026  27.232  55.849  1.00  0.00    -0.038 A 
HETATM   16  C   UNL     1       7.961  26.184  55.853  1.00  0.00     0.046 A 
HETATM   17  C   UNL     1       7.564  24.878  56.144  1.00  0.00     0.078 A 
HETATM   18  C   UNL     1       6.252  24.621  56.535  1.00  0.00     0.037 A 
HETATM   19  C   UNL     1       5.324  25.662  56.583  1.00  0.00     0.003 A 
HETATM   20  C   UNL     1       5.706  26.960  56.233  1.00  0.00     0.009 A 
BRANCH  17  21
HETATM   21  O   UNL     1       8.444  23.823  56.141  1.00  0.00    -0.292 OA
BRANCH  21  22
HETATM   22  C   UNL     1       8.218  22.798  55.225  1.00  0.00     0.169 A 
HETATM   23  N   UNL     1       8.088  21.516  55.646  1.00  0.00    -0.237 NA
HETATM   24  C   UNL     1       7.906  20.580  54.690  1.00  0.00     0.119 A 
HETATM   25  C   UNL     1       7.848  20.861  53.334  1.00  0.00     0.019 A 
HETATM   26  C   UNL     1       7.995  22.184  52.929  1.00  0.00     0.006 A 
HETATM   27  C   UNL     1       8.191  23.172  53.888  1.00  0.00     0.058 A 
ENDBRANCH  21  22
ENDBRANCH  17  21
ENDBRANCH   1  15
TORSDOF 6
ENDMDL
MODEL 8
REMARK VINA RESULT:      -8.9      1.781      2.597
REMARK  6 active torsions:
REMARK  status: ('A' for Active; 'I' for Inactive)
REMARK    1  A    between atoms: C_3  and  C_4 
REMARK    2  A    between atoms: C_5  and  C_6 
REMARK       I    between atoms: C_6  and  N_7 
REMARK    3  A    between atoms: N_7  and  C_8 
REMARK    4  A    between atoms: C_8  and  C_9 
REMARK    5  A    between atoms: C_11  and  O_12 
REMARK    6  A    between atoms: O_12  and  C_13 
ROOT
HETATM    1  C   UNL     1       8.531  28.217  57.525  1.00  0.00     0.161 C 
ENDROOT
BRANCH   1   2
HETATM    2  N   UNL     1       8.245  27.034  56.742  1.00  0.00    -0.353 N 
HETATM    3  C   UNL     1       8.061  25.816  57.337  1.00  0.00     0.241 C 
HETATM    4  O   UNL     1       8.178  25.609  58.537  1.00  0.00    -0.269 OA
HETATM    5  H   UNL     1       8.195  27.134  55.737  1.00  0.00     0.163 HD
BRANCH   3   6
HETATM    6  C   UNL     1       7.683  24.758  56.366  1.00  0.00     0.075 C 
HETATM    7  C   UNL     1       8.623  23.939  55.870  1.00  0.00     0.018 C 
BRANCH   7   8
HETATM    8  C   UNL     1       8.328  22.828  54.947  1.00  0.00    -0.014 A 
HETATM    9  C   UNL     1       8.249  21.513  55.439  1.00  0.00     0.013 A 
HETATM   10  C   UNL     1       7.951  20.443  54.589  1.00  0.00     0.001 A 
HETATM   11  C   UNL     1       7.716  20.671  53.236  1.00  0.00     0.002 A 
HETATM   12  C   UNL     1       7.772  21.970  52.733  1.00  0.00     0.024 A 
HETATM   13  C   UNL     1       8.072  23.043  53.580  1.00  0.00     0.044 A 
HETATM   14 CL   UNL     1       8.137  24.619  52.867  1.00  0.00    -0.083 Cl
ENDBRANCH   7   8
ENDBRANCH   3   6
ENDBRANCH   1   2
BRANCH   1  15
HETATM   15  C   UNL     1       7.320  29.108  57.620  1.00  0.00    -0.038 A 
HETATM   16  C   UNL     1       7.389  30.323  58.320  1.00  0.00     0.046 A 
HETATM   17  C   UNL     1       6.251  31.116  58.482  1.00  0.00     0.078 A 
HETATM   18  C   UNL     1       5.059  30.757  57.857  1.00  0.00     0.037 A 
HETATM   19  C   UNL     1       4.990  29.576  57.117  1.00  0.00     0.003 A 
HETATM   20  C   UNL     1       6.112  28.751  57.006  1.00  0.00     0.009 A 
BRANCH  17  21
HETATM   21  O   UNL     1       6.273  32.303  59.174  1.00  0.00    -0.292 OA
BRANCH  21  22
HETATM   22  C   UNL     1       6.718  32.270  60.494  1.00  0.00     0.169 A 
HETATM   23  N   UNL     1       5.830  32.195  61.516  1.00  0.00    -0.237 NA
HETATM   24  C   UNL     1       6.344  32.203  62.765  1.00  0.00     0.119 A 
HETATM   25  C   UNL     1       7.699  32.282  63.044  1.00  0.00     0.019 A 
HETATM   26  C   UNL     1       8.587  32.369  61.975  1.00  0.00     0.006 A 
HETATM   27  C   UNL     1       8.090  32.370  60.675  1.00  0.00     0.058 A 
ENDBRANCH  21  22
ENDBRANCH  17  21
ENDBRANCH   1  15
TORSDOF 6
ENDMDL
MODEL 9
REMARK VINA RESULT:      -8.9      3.721      6.659
REMARK  6 active torsions:
REMARK  status: ('A' for Active; 'I' for Inactive)
REMARK    1  A    between atoms: C_3  and  C_4 
REMARK    2  A    between atoms: C_5  and  C_6 
REMARK       I    between atoms: C_6  and  N_7 
REMARK    3  A    between atoms: N_7  and  C_8 
REMARK    4  A    between atoms: C_8  and  C_9 
REMARK    5  A    between atoms: C_11  and  O_12 
REMARK    6  A    between atoms: O_12  and  C_13 
ROOT
HETATM    1  C   UNL     1       7.454  28.300  57.135  1.00  0.00     0.161 C 
ENDROOT
BRANCH   1   2
HETATM    2  N   UNL     1       7.865  27.032  56.573  1.00  0.00    -0.353 N 
HETATM    3  C   UNL     1       7.978  25.913  57.352  1.00  0.00     0.241 C 
HETATM    4  O   UNL     1       7.808  25.895  58.562  1.00  0.00    -0.269 OA
HETATM    5  H   UNL     1       8.077  27.000  55.584  1.00  0.00     0.163 HD
BRANCH   3   6
HETATM    6  C   UNL     1       8.316  24.701  56.562  1.00  0.00     0.075 C 
HETATM    7  C   UNL     1       7.361  24.072  55.860  1.00  0.00     0.018 C 
BRANCH   7   8
HETATM    8  C   UNL     1       7.619  22.898  55.006  1.00  0.00    -0.014 A 
HETATM    9  C   UNL     1       7.627  21.611  55.571  1.00  0.00     0.013 A 
HETATM   10  C   UNL     1       7.851  20.479  54.780  1.00  0.00     0.001 A 
HETATM   11  C   UNL     1       8.057  20.615  53.410  1.00  0.00     0.002 A 
HETATM   12  C   UNL     1       8.035  21.881  52.829  1.00  0.00     0.024 A 
HETATM   13  C   UNL     1       7.815  23.017  53.618  1.00  0.00     0.044 A 
HETATM   14 CL   UNL     1       7.820  24.550  52.814  1.00  0.00    -0.083 Cl
ENDBRANCH   7   8
ENDBRANCH   3   6
ENDBRANCH   1   2
BRANCH   1  15
HETATM   15  C   UNL     1       6.265  28.859  56.398  1.00  0.00    -0.038 A 
HETATM   16  C   UNL     1       5.566  28.063  55.477  1.00  0.00     0.046 A 
HETATM   17  C   UNL     1       4.514  28.597  54.730  1.00  0.00     0.078 A 
HETATM   18  C   UNL     1       4.082  29.899  54.970  1.00  0.00     0.037 A 
HETATM   19  C   UNL     1       4.737  30.686  55.918  1.00  0.00     0.003 A 
HETATM   20  C   UNL     1       5.829  30.172  56.623  1.00  0.00     0.009 A 
BRANCH  17  21
HETATM   21  O   UNL     1       3.816  27.857  53.807  1.00  0.00    -0.292 OA
BRANCH  21  22
HETATM   22  C   UNL     1       4.339  27.775  52.518  1.00  0.00     0.169 A 
HETATM   23  N   UNL     1       4.256  28.832  51.675  1.00  0.00    -0.237 NA
HETATM   24  C   UNL     1       4.758  28.657  50.433  1.00  0.00     0.119 A 
HETATM   25  C   UNL     1       5.336  27.478  49.993  1.00  0.00     0.019 A 
HETATM   26  C   UNL     1       5.398  26.404  50.876  1.00  0.00     0.006 A 
HETATM   27  C   UNL     1       4.885  26.549  52.161  1.00  0.00     0.058 A 
ENDBRANCH  21  22
ENDBRANCH  17  21
ENDBRANCH   1  15
TORSDOF 6
ENDMDL
MODEL 10
REMARK VINA RESULT:      -8.7      2.703      4.397
REMARK  6 active torsions:
REMARK  status: ('A' for Active; 'I' for Inactive)
REMARK    1  A    between atoms: C_3  and  C_4 
REMARK    2  A    between atoms: C_5  and  C_6 
REMARK       I    between atoms: C_6  and  N_7 
REMARK    3  A    between atoms: N_7  and  C_8 
REMARK    4  A    between atoms: C_8  and  C_9 
REMARK    5  A    between atoms: C_11  and  O_12 
REMARK    6  A    between atoms: O_12  and  C_13 
ROOT
HETATM    1  C   UNL     1       9.235  31.327  58.809  1.00  0.00     0.161 C 
ENDROOT
BRANCH   1   2
HETATM    2  N   UNL     1       9.286  29.996  58.244  1.00  0.00    -0.353 N 
HETATM    3  C   UNL     1       8.252  29.502  57.496  1.00  0.00     0.241 C 
HETATM    4  O   UNL     1       7.202  30.094  57.295  1.00  0.00    -0.269 OA
HETATM    5  H   UNL     1      10.108  29.436  58.429  1.00  0.00     0.163 HD
BRANCH   3   6
HETATM    6  C   UNL     1       8.547  28.160  56.931  1.00  0.00     0.075 C 
HETATM    7  C   UNL     1       7.702  27.141  57.152  1.00  0.00     0.018 C 
BRANCH   7   8
HETATM    8  C   UNL     1       7.888  25.794  56.583  1.00  0.00    -0.014 A 
HETATM    9  C   UNL     1       8.489  24.785  57.357  1.00  0.00     0.013 A 
HETATM   10  C   UNL     1       8.659  23.494  56.848  1.00  0.00     0.001 A 
HETATM   11  C   UNL     1       8.221  23.186  55.564  1.00  0.00     0.002 A 
HETATM   12  C   UNL     1       7.606  24.167  54.788  1.00  0.00     0.024 A 
HETATM   13  C   UNL     1       7.436  25.462  55.292  1.00  0.00     0.044 A 
HETATM   14 CL   UNL     1       6.678  26.621  54.254  1.00  0.00    -0.083 Cl
ENDBRANCH   7   8
ENDBRANCH   3   6
ENDBRANCH   1   2
BRANCH   1  15
HETATM   15  C   UNL     1       8.629  31.305  60.189  1.00  0.00    -0.038 A 
HETATM   16  C   UNL     1       7.350  31.839  60.409  1.00  0.00     0.046 A 
HETATM   17  C   UNL     1       6.815  31.897  61.697  1.00  0.00     0.078 A 
HETATM   18  C   UNL     1       7.507  31.328  62.764  1.00  0.00     0.037 A 
HETATM   19  C   UNL     1       8.759  30.750  62.551  1.00  0.00     0.003 A 
HETATM   20  C   UNL     1       9.322  30.746  61.272  1.00  0.00     0.009 A 
BRANCH  17  21
HETATM   21  O   UNL     1       5.574  32.427  61.956  1.00  0.00    -0.292 OA
BRANCH  21  22
HETATM   22  C   UNL     1       5.452  33.277  63.054  1.00  0.00     0.169 A 
HETATM   23  N   UNL     1       4.831  32.855  64.182  1.00  0.00    -0.237 NA
HETATM   24  C   UNL     1       4.726  33.753  65.187  1.00  0.00     0.119 A 
HETATM   25  C   UNL     1       5.210  35.049  65.118  1.00  0.00     0.019 A 
HETATM   26  C   UNL     1       5.834  35.458  63.943  1.00  0.00     0.006 A 
HETATM   27  C   UNL     1       5.952  34.561  62.887  1.00  0.00     0.058 A 
ENDBRANCH  21  22
ENDBRANCH  17  21
ENDBRANCH   1  15
TORSDOF 6
ENDMDL
