MODEL 1
REMARK VINA RESULT:      -8.5      0.000      0.000
REMARK  10 active torsions:
REMARK  status: ('A' for Active; 'I' for Inactive)
REMARK    1  A    between atoms: C_2  and  O_3 
REMARK    2  A    between atoms: O_3  and  C_4 
REMARK    3  A    between atoms: C_7  and  C_8 
REMARK    4  A    between atoms: C_8  and  C_9 
REMARK    5  A    between atoms: C_10  and  C_11 
REMARK    6  A    between atoms: C_14  and  N_15 
REMARK    7  A    between atoms: N_20  and  C_21 
REMARK    8  A    between atoms: C_21  and  C_22 
REMARK    9  A    between atoms: C_22  and  N_23 
REMARK   10  A    between atoms: C_34  and  O_35 
ROOT
HETATM    1  C   UNL     1       5.135  27.587  51.299  1.00  0.00     0.059 C 
HETATM    2  C   UNL     1       4.733  28.402  52.488  1.00  0.00     0.161 C 
HETATM    3  N   UNL     1       4.801  29.751  51.925  1.00  0.00    -0.332 N 
HETATM    4  C   UNL     1       5.480  29.747  50.720  1.00  0.00     0.278 C 
HETATM    5  O   UNL     1       5.878  30.745  50.142  1.00  0.00    -0.265 OA
HETATM    6  C   UNL     1       5.595  28.341  50.288  1.00  0.00     0.146 C 
ENDROOT
BRANCH   1   7
HETATM    7  C   UNL     1       5.140  26.117  51.190  1.00  0.00     0.193 C 
HETATM    8  O   UNL     1       4.450  25.568  50.335  1.00  0.00    -0.287 OA
BRANCH   7   9
HETATM    9  C   UNL     1       6.007  25.313  52.072  1.00  0.00     0.015 A 
HETATM   10  C   UNL     1       7.361  25.111  51.787  1.00  0.00     0.018 A 
HETATM   11  C   UNL     1       8.146  24.329  52.644  1.00  0.00     0.038 A 
HETATM   12  C   UNL     1       7.588  23.770  53.794  1.00  0.00     0.069 A 
HETATM   13  C   UNL     1       6.244  24.016  54.089  1.00  0.00     0.038 A 
HETATM   14  C   UNL     1       5.451  24.786  53.238  1.00  0.00     0.018 A 
BRANCH  12  15
HETATM   15  O   UNL     1       8.230  23.005  54.724  1.00  0.00    -0.347 OA
BRANCH  15  16
HETATM   16  C   UNL     1       7.790  21.668  54.987  1.00  0.00     0.120 C 
HETATM   17  C   UNL     1       8.500  21.131  56.227  1.00  0.00     0.040 C 
HETATM   18  C   UNL     1       8.162  20.832  53.765  1.00  0.00     0.040 C 
ENDBRANCH  15  16
ENDBRANCH  12  15
ENDBRANCH   7   9
ENDBRANCH   1   7
BRANCH   2  19
HETATM   19  C   UNL     1       5.660  28.225  53.680  1.00  0.00    -0.030 A 
HETATM   20  C   UNL     1       7.061  28.321  53.552  1.00  0.00     0.012 A 
HETATM   21  C   UNL     1       7.899  28.124  54.653  1.00  0.00     0.037 A 
HETATM   22  C   UNL     1       7.343  27.820  55.899  1.00  0.00     0.102 A 
HETATM   23  C   UNL     1       5.955  27.711  56.048  1.00  0.00     0.037 A 
HETATM   24  C   UNL     1       5.122  27.918  54.943  1.00  0.00     0.012 A 
BRANCH  22  25
HETATM   25  N   UNL     1       8.220  27.627  57.059  1.00  0.00    -0.116 N 
HETATM   26  O   UNL     1       9.214  28.364  57.146  1.00  0.00    -0.532 OA
HETATM   27  O   UNL     1       7.898  26.767  57.886  1.00  0.00    -0.532 OA
ENDBRANCH  22  25
ENDBRANCH   2  19
BRANCH   6  28
HETATM   28  O   UNL     1       6.100  27.956  49.081  1.00  0.00    -0.355 OA
HETATM   29  H   UNL     1       5.983  28.709  48.454  1.00  0.00     0.218 HD
ENDBRANCH   6  28
BRANCH   3  30
HETATM   30  C   UNL     1       4.520  30.964  52.684  1.00  0.00     0.155 C 
BRANCH  30  31
HETATM   31  C   UNL     1       3.273  30.824  53.603  1.00  0.00     0.254 C 
BRANCH  31  32
HETATM   32  N   UNL     1       3.203  31.836  54.754  1.00  0.00    -0.066 N 
HETATM   33  H   UNL     1       2.712  32.651  54.351  1.00  0.00     0.280 HD
HETATM   34  C   UNL     1       4.603  32.342  55.146  1.00  0.00     0.262 C 
HETATM   35  C   UNL     1       5.348  31.352  56.079  1.00  0.00     0.260 C 
HETATM   36  N   UNL     1       4.524  31.033  57.296  1.00  0.00    -0.072 N 
HETATM   37  H   UNL     1       4.469  31.839  57.939  1.00  0.00     0.277 HD
HETATM   38  H   UNL     1       5.017  30.307  57.846  1.00  0.00     0.277 HD
HETATM   39  C   UNL     1       3.151  30.502  56.975  1.00  0.00     0.260 C 
HETATM   40  C   UNL     1       2.390  31.428  55.995  1.00  0.00     0.262 C 
ENDBRANCH  31  32
ENDBRANCH  30  31
ENDBRANCH   3  30
TORSDOF 10
ENDMDL
MODEL 2
REMARK VINA RESULT:      -8.4      0.647      1.185
REMARK  10 active torsions:
REMARK  status: ('A' for Active; 'I' for Inactive)
REMARK    1  A    between atoms: C_2  and  O_3 
REMARK    2  A    between atoms: O_3  and  C_4 
REMARK    3  A    between atoms: C_7  and  C_8 
REMARK    4  A    between atoms: C_8  and  C_9 
REMARK    5  A    between atoms: C_10  and  C_11 
REMARK    6  A    between atoms: C_14  and  N_15 
REMARK    7  A    between atoms: N_20  and  C_21 
REMARK    8  A    between atoms: C_21  and  C_22 
REMARK    9  A    between atoms: C_22  and  N_23 
REMARK   10  A    between atoms: C_34  and  O_35 
ROOT
HETATM    1  C   UNL     1       5.124  27.582  51.313  1.00  0.00     0.059 C 
HETATM    2  C   UNL     1       4.723  28.406  52.497  1.00  0.00     0.161 C 
HETATM    3  N   UNL     1       4.793  29.750  51.924  1.00  0.00    -0.332 N 
HETATM    4  C   UNL     1       5.471  29.737  50.718  1.00  0.00     0.278 C 
HETATM    5  O   UNL     1       5.870  30.730  50.133  1.00  0.00    -0.265 OA
HETATM    6  C   UNL     1       5.584  28.327  50.297  1.00  0.00     0.146 C 
ENDROOT
BRANCH   1   7
HETATM    7  C   UNL     1       5.126  26.111  51.216  1.00  0.00     0.193 C 
HETATM    8  O   UNL     1       4.426  25.557  50.373  1.00  0.00    -0.287 OA
BRANCH   7   9
HETATM    9  C   UNL     1       6.003  25.313  52.093  1.00  0.00     0.015 A 
HETATM   10  C   UNL     1       7.348  25.088  51.782  1.00  0.00     0.018 A 
HETATM   11  C   UNL     1       8.143  24.312  52.636  1.00  0.00     0.038 A 
HETATM   12  C   UNL     1       7.604  23.783  53.809  1.00  0.00     0.069 A 
HETATM   13  C   UNL     1       6.270  24.051  54.129  1.00  0.00     0.038 A 
HETATM   14  C   UNL     1       5.468  24.815  53.281  1.00  0.00     0.018 A 
BRANCH  12  15
HETATM   15  O   UNL     1       8.257  23.027  54.738  1.00  0.00    -0.347 OA
BRANCH  15  16
HETATM   16  C   UNL     1       7.761  21.733  55.095  1.00  0.00     0.120 C 
HETATM   17  C   UNL     1       8.501  21.224  56.329  1.00  0.00     0.040 C 
HETATM   18  C   UNL     1       8.028  20.814  53.906  1.00  0.00     0.040 C 
ENDBRANCH  15  16
ENDBRANCH  12  15
ENDBRANCH   7   9
ENDBRANCH   1   7
BRANCH   2  19
HETATM   19  C   UNL     1       5.652  28.237  53.690  1.00  0.00    -0.030 A 
HETATM   20  C   UNL     1       7.054  28.288  53.552  1.00  0.00     0.012 A 
HETATM   21  C   UNL     1       7.892  28.098  54.655  1.00  0.00     0.037 A 
HETATM   22  C   UNL     1       7.333  27.846  55.912  1.00  0.00     0.102 A 
HETATM   23  C   UNL     1       5.944  27.783  56.070  1.00  0.00     0.037 A 
HETATM   24  C   UNL     1       5.112  27.982  54.963  1.00  0.00     0.012 A 
BRANCH  22  25
HETATM   25  N   UNL     1       8.211  27.662  57.073  1.00  0.00    -0.116 N 
HETATM   26  O   UNL     1       9.184  28.424  57.174  1.00  0.00    -0.532 OA
HETATM   27  O   UNL     1       7.909  26.782  57.887  1.00  0.00    -0.532 OA
ENDBRANCH  22  25
ENDBRANCH   2  19
BRANCH   6  28
HETATM   28  O   UNL     1       6.087  27.933  49.093  1.00  0.00    -0.355 OA
HETATM   29  H   UNL     1       6.844  28.528  48.876  1.00  0.00     0.218 HD
ENDBRANCH   6  28
BRANCH   3  30
HETATM   30  C   UNL     1       4.515  30.970  52.674  1.00  0.00     0.155 C 
BRANCH  30  31
HETATM   31  C   UNL     1       3.165  30.907  53.445  1.00  0.00     0.254 C 
BRANCH  31  32
HETATM   32  N   UNL     1       3.279  31.103  54.963  1.00  0.00    -0.066 N 
HETATM   33  H   UNL     1       3.187  30.150  55.352  1.00  0.00     0.280 HD
HETATM   34  C   UNL     1       2.085  31.900  55.519  1.00  0.00     0.262 C 
HETATM   35  C   UNL     1       2.255  33.430  55.322  1.00  0.00     0.260 C 
HETATM   36  N   UNL     1       3.553  33.909  55.913  1.00  0.00    -0.072 N 
HETATM   37  H   UNL     1       3.532  33.888  56.945  1.00  0.00     0.277 HD
HETATM   38  H   UNL     1       3.667  34.913  55.685  1.00  0.00     0.277 HD
HETATM   39  C   UNL     1       4.763  33.185  55.381  1.00  0.00     0.260 C 
HETATM   40  C   UNL     1       4.613  31.649  55.499  1.00  0.00     0.262 C 
ENDBRANCH  31  32
ENDBRANCH  30  31
ENDBRANCH   3  30
TORSDOF 10
ENDMDL
MODEL 3
REMARK VINA RESULT:      -8.2      3.153      7.322
REMARK  10 active torsions:
REMARK  status: ('A' for Active; 'I' for Inactive)
REMARK    1  A    between atoms: C_2  and  O_3 
REMARK    2  A    between atoms: O_3  and  C_4 
REMARK    3  A    between atoms: C_7  and  C_8 
REMARK    4  A    between atoms: C_8  and  C_9 
REMARK    5  A    between atoms: C_10  and  C_11 
REMARK    6  A    between atoms: C_14  and  N_15 
REMARK    7  A    between atoms: N_20  and  C_21 
REMARK    8  A    between atoms: C_21  and  C_22 
REMARK    9  A    between atoms: C_22  and  N_23 
REMARK   10  A    between atoms: C_34  and  O_35 
ROOT
HETATM    1  C   UNL     1       6.476  26.822  55.450  1.00  0.00     0.059 C 
HETATM    2  C   UNL     1       7.065  26.309  54.173  1.00  0.00     0.161 C 
HETATM    3  N   UNL     1       6.006  26.661  53.228  1.00  0.00    -0.332 N 
HETATM    4  C   UNL     1       4.840  26.993  53.896  1.00  0.00     0.278 C 
HETATM    5  O   UNL     1       3.746  27.112  53.371  1.00  0.00    -0.265 OA
HETATM    6  C   UNL     1       5.192  27.189  55.316  1.00  0.00     0.146 C 
ENDROOT
BRANCH   1   7
HETATM    7  C   UNL     1       7.129  26.875  56.771  1.00  0.00     0.193 C 
HETATM    8  O   UNL     1       7.219  25.853  57.446  1.00  0.00    -0.287 OA
BRANCH   7   9
HETATM    9  C   UNL     1       7.715  28.139  57.255  1.00  0.00     0.015 A 
HETATM   10  C   UNL     1       9.080  28.415  57.125  1.00  0.00     0.018 A 
HETATM   11  C   UNL     1       9.599  29.622  57.612  1.00  0.00     0.038 A 
HETATM   12  C   UNL     1       8.754  30.561  58.205  1.00  0.00     0.069 A 
HETATM   13  C   UNL     1       7.386  30.290  58.290  1.00  0.00     0.038 A 
HETATM   14  C   UNL     1       6.861  29.087  57.817  1.00  0.00     0.018 A 
BRANCH  12  15
HETATM   15  O   UNL     1       9.112  31.778  58.707  1.00  0.00    -0.347 OA
BRANCH  15  16
HETATM   16  C   UNL     1       9.276  31.958  60.117  1.00  0.00     0.120 C 
HETATM   17  C   UNL     1       9.303  30.596  60.807  1.00  0.00     0.040 C 
HETATM   18  C   UNL     1       8.076  32.768  60.602  1.00  0.00     0.040 C 
ENDBRANCH  15  16
ENDBRANCH  12  15
ENDBRANCH   7   9
ENDBRANCH   1   7
BRANCH   2  19
HETATM   19  C   UNL     1       7.345  24.814  54.197  1.00  0.00    -0.030 A 
HETATM   20  C   UNL     1       6.962  24.004  55.286  1.00  0.00     0.012 A 
HETATM   21  C   UNL     1       7.256  22.638  55.305  1.00  0.00     0.037 A 
HETATM   22  C   UNL     1       7.947  22.066  54.233  1.00  0.00     0.102 A 
HETATM   23  C   UNL     1       8.346  22.852  53.146  1.00  0.00     0.037 A 
HETATM   24  C   UNL     1       8.040  24.217  53.130  1.00  0.00     0.012 A 
BRANCH  22  25
HETATM   25  N   UNL     1       8.244  20.629  54.245  1.00  0.00    -0.116 N 
HETATM   26  O   UNL     1       8.347  20.063  53.146  1.00  0.00    -0.532 OA
HETATM   27  O   UNL     1       8.403  20.084  55.343  1.00  0.00    -0.532 OA
ENDBRANCH  22  25
ENDBRANCH   2  19
BRANCH   6  28
HETATM   28  O   UNL     1       4.319  27.644  56.259  1.00  0.00    -0.355 OA
HETATM   29  H   UNL     1       3.987  28.524  55.958  1.00  0.00     0.218 HD
ENDBRANCH   6  28
BRANCH   3  30
HETATM   30  C   UNL     1       6.054  26.359  51.802  1.00  0.00     0.155 C 
BRANCH  30  31
HETATM   31  C   UNL     1       5.522  27.527  50.922  1.00  0.00     0.254 C 
BRANCH  31  32
HETATM   32  N   UNL     1       4.143  27.286  50.294  1.00  0.00    -0.066 N 
HETATM   33  H   UNL     1       3.611  26.787  51.026  1.00  0.00     0.280 HD
HETATM   34  C   UNL     1       4.228  26.314  49.102  1.00  0.00     0.262 C 
HETATM   35  C   UNL     1       4.684  27.020  47.798  1.00  0.00     0.260 C 
HETATM   36  N   UNL     1       3.798  28.195  47.482  1.00  0.00    -0.072 N 
HETATM   37  H   UNL     1       2.861  27.891  47.173  1.00  0.00     0.277 HD
HETATM   38  H   UNL     1       4.186  28.686  46.658  1.00  0.00     0.277 HD
HETATM   39  C   UNL     1       3.701  29.198  48.602  1.00  0.00     0.260 C 
HETATM   40  C   UNL     1       3.308  28.528  49.942  1.00  0.00     0.262 C 
ENDBRANCH  31  32
ENDBRANCH  30  31
ENDBRANCH   3  30
TORSDOF 10
ENDMDL
MODEL 4
REMARK VINA RESULT:      -8.2      8.728     12.570
REMARK  10 active torsions:
REMARK  status: ('A' for Active; 'I' for Inactive)
REMARK    1  A    between atoms: C_2  and  O_3 
REMARK    2  A    between atoms: O_3  and  C_4 
REMARK    3  A    between atoms: C_7  and  C_8 
REMARK    4  A    between atoms: C_8  and  C_9 
REMARK    5  A    between atoms: C_10  and  C_11 
REMARK    6  A    between atoms: C_14  and  N_15 
REMARK    7  A    between atoms: N_20  and  C_21 
REMARK    8  A    between atoms: C_21  and  C_22 
REMARK    9  A    between atoms: C_22  and  N_23 
REMARK   10  A    between atoms: C_34  and  O_35 
ROOT
HETATM    1  C   UNL     1       5.319  34.116  63.766  1.00  0.00     0.059 C 
HETATM    2  C   UNL     1       5.158  35.362  62.951  1.00  0.00     0.161 C 
HETATM    3  N   UNL     1       5.081  36.367  64.011  1.00  0.00    -0.332 N 
HETATM    4  C   UNL     1       4.865  35.771  65.241  1.00  0.00     0.278 C 
HETATM    5  O   UNL     1       4.542  36.365  66.255  1.00  0.00    -0.265 OA
HETATM    6  C   UNL     1       5.123  34.327  65.076  1.00  0.00     0.146 C 
ENDROOT
BRANCH   1   7
HETATM    7  C   UNL     1       5.577  32.754  63.264  1.00  0.00     0.193 C 
HETATM    8  O   UNL     1       4.950  31.806  63.729  1.00  0.00    -0.287 OA
BRANCH   7   9
HETATM    9  C   UNL     1       6.548  32.539  62.175  1.00  0.00     0.015 A 
HETATM   10  C   UNL     1       7.904  32.313  62.431  1.00  0.00     0.018 A 
HETATM   11  C   UNL     1       8.795  32.127  61.366  1.00  0.00     0.038 A 
HETATM   12  C   UNL     1       8.331  32.144  60.050  1.00  0.00     0.069 A 
HETATM   13  C   UNL     1       6.967  32.329  59.810  1.00  0.00     0.038 A 
HETATM   14  C   UNL     1       6.072  32.524  60.863  1.00  0.00     0.018 A 
BRANCH  12  15
HETATM   15  O   UNL     1       9.074  31.964  58.920  1.00  0.00    -0.347 OA
BRANCH  15  16
HETATM   16  C   UNL     1       9.704  30.705  58.664  1.00  0.00     0.120 C 
HETATM   17  C   UNL     1      10.688  30.852  57.506  1.00  0.00     0.040 C 
HETATM   18  C   UNL     1       8.596  29.724  58.290  1.00  0.00     0.040 C 
ENDBRANCH  15  16
ENDBRANCH  12  15
ENDBRANCH   7   9
ENDBRANCH   1   7
BRANCH   2  19
HETATM   19  C   UNL     1       3.917  35.351  62.073  1.00  0.00    -0.030 A 
HETATM   20  C   UNL     1       2.681  34.859  62.540  1.00  0.00     0.012 A 
HETATM   21  C   UNL     1       1.558  34.826  61.708  1.00  0.00     0.037 A 
HETATM   22  C   UNL     1       1.663  35.282  60.389  1.00  0.00     0.102 A 
HETATM   23  C   UNL     1       2.882  35.766  59.901  1.00  0.00     0.037 A 
HETATM   24  C   UNL     1       3.999  35.802  60.743  1.00  0.00     0.012 A 
BRANCH  22  25
HETATM   25  N   UNL     1       0.482  35.262  59.519  1.00  0.00    -0.116 N 
HETATM   26  O   UNL     1       0.662  35.495  58.315  1.00  0.00    -0.532 OA
HETATM   27  O   UNL     1      -0.607  34.986  60.035  1.00  0.00    -0.532 OA
ENDBRANCH  22  25
ENDBRANCH   2  19
BRANCH   6  28
HETATM   28  O   UNL     1       5.129  33.435  66.107  1.00  0.00    -0.355 OA
HETATM   29  H   UNL     1       5.302  32.540  65.727  1.00  0.00     0.218 HD
ENDBRANCH   6  28
BRANCH   3  30
HETATM   30  C   UNL     1       4.894  37.793  63.767  1.00  0.00     0.155 C 
BRANCH  30  31
HETATM   31  C   UNL     1       6.156  38.470  63.159  1.00  0.00     0.254 C 
BRANCH  31  32
HETATM   32  N   UNL     1       6.995  39.284  64.154  1.00  0.00    -0.066 N 
HETATM   33  H   UNL     1       7.508  38.572  64.699  1.00  0.00     0.280 HD
HETATM   34  C   UNL     1       6.104  40.025  65.167  1.00  0.00     0.262 C 
HETATM   35  C   UNL     1       5.529  41.346  64.591  1.00  0.00     0.260 C 
HETATM   36  N   UNL     1       6.630  42.235  64.079  1.00  0.00    -0.072 N 
HETATM   37  H   UNL     1       7.187  42.634  64.852  1.00  0.00     0.277 HD
HETATM   38  H   UNL     1       6.200  43.062  63.627  1.00  0.00     0.277 HD
HETATM   39  C   UNL     1       7.517  41.573  63.057  1.00  0.00     0.260 C 
HETATM   40  C   UNL     1       8.066  40.217  63.565  1.00  0.00     0.262 C 
ENDBRANCH  31  32
ENDBRANCH  30  31
ENDBRANCH   3  30
TORSDOF 10
ENDMDL
MODEL 5
REMARK VINA RESULT:      -8.2      4.905      9.315
REMARK  10 active torsions:
REMARK  status: ('A' for Active; 'I' for Inactive)
REMARK    1  A    between atoms: C_2  and  O_3 
REMARK    2  A    between atoms: O_3  and  C_4 
REMARK    3  A    between atoms: C_7  and  C_8 
REMARK    4  A    between atoms: C_8  and  C_9 
REMARK    5  A    between atoms: C_10  and  C_11 
REMARK    6  A    between atoms: C_14  and  N_15 
REMARK    7  A    between atoms: N_20  and  C_21 
REMARK    8  A    between atoms: C_21  and  C_22 
REMARK    9  A    between atoms: C_22  and  N_23 
REMARK   10  A    between atoms: C_34  and  O_35 
ROOT
HETATM    1  C   UNL     1       8.863  30.384  57.818  1.00  0.00     0.059 C 
HETATM    2  C   UNL     1       7.499  29.798  58.012  1.00  0.00     0.161 C 
HETATM    3  N   UNL     1       7.454  28.849  56.900  1.00  0.00    -0.332 N 
HETATM    4  C   UNL     1       8.472  29.100  55.996  1.00  0.00     0.278 C 
HETATM    5  O   UNL     1       8.545  28.618  54.879  1.00  0.00    -0.265 OA
HETATM    6  C   UNL     1       9.421  30.019  56.654  1.00  0.00     0.146 C 
ENDROOT
BRANCH   1   7
HETATM    7  C   UNL     1       9.557  31.330  58.710  1.00  0.00     0.193 C 
HETATM    8  O   UNL     1      10.481  32.011  58.273  1.00  0.00    -0.287 OA
BRANCH   7   9
HETATM    9  C   UNL     1       9.112  31.493  60.107  1.00  0.00     0.015 A 
HETATM   10  C   UNL     1       9.256  30.470  61.050  1.00  0.00     0.018 A 
HETATM   11  C   UNL     1       8.806  30.662  62.363  1.00  0.00     0.038 A 
HETATM   12  C   UNL     1       8.236  31.877  62.740  1.00  0.00     0.069 A 
HETATM   13  C   UNL     1       8.136  32.906  61.798  1.00  0.00     0.038 A 
HETATM   14  C   UNL     1       8.573  32.723  60.486  1.00  0.00     0.018 A 
BRANCH  12  15
HETATM   15  O   UNL     1       7.770  32.211  63.978  1.00  0.00    -0.347 OA
BRANCH  15  16
HETATM   16  C   UNL     1       6.836  33.284  64.133  1.00  0.00     0.120 C 
HETATM   17  C   UNL     1       6.923  33.836  65.554  1.00  0.00     0.040 C 
HETATM   18  C   UNL     1       5.448  32.701  63.881  1.00  0.00     0.040 C 
ENDBRANCH  15  16
ENDBRANCH  12  15
ENDBRANCH   7   9
ENDBRANCH   1   7
BRANCH   2  19
HETATM   19  C   UNL     1       6.384  30.830  57.937  1.00  0.00    -0.030 A 
HETATM   20  C   UNL     1       5.970  31.388  56.710  1.00  0.00     0.012 A 
HETATM   21  C   UNL     1       4.966  32.358  56.663  1.00  0.00     0.037 A 
HETATM   22  C   UNL     1       4.367  32.789  57.851  1.00  0.00     0.102 A 
HETATM   23  C   UNL     1       4.768  32.256  59.081  1.00  0.00     0.037 A 
HETATM   24  C   UNL     1       5.768  31.279  59.119  1.00  0.00     0.012 A 
BRANCH  22  25
HETATM   25  N   UNL     1       3.302  33.798  57.803  1.00  0.00    -0.116 N 
HETATM   26  O   UNL     1       2.432  33.662  56.930  1.00  0.00    -0.532 OA
HETATM   27  O   UNL     1       3.324  34.697  58.651  1.00  0.00    -0.532 OA
ENDBRANCH  22  25
ENDBRANCH   2  19
BRANCH   6  28
HETATM   28  O   UNL     1      10.614  30.394  56.111  1.00  0.00    -0.355 OA
HETATM   29  H   UNL     1      10.563  30.236  55.138  1.00  0.00     0.218 HD
ENDBRANCH   6  28
BRANCH   3  30
HETATM   30  C   UNL     1       6.305  28.002  56.598  1.00  0.00     0.155 C 
BRANCH  30  31
HETATM   31  C   UNL     1       6.562  26.502  56.920  1.00  0.00     0.254 C 
BRANCH  31  32
HETATM   32  N   UNL     1       7.765  25.883  56.195  1.00  0.00    -0.066 N 
HETATM   33  H   UNL     1       8.424  26.669  56.073  1.00  0.00     0.280 HD
HETATM   34  C   UNL     1       7.390  25.424  54.774  1.00  0.00     0.262 C 
HETATM   35  C   UNL     1       6.689  24.040  54.767  1.00  0.00     0.260 C 
HETATM   36  N   UNL     1       7.527  23.008  55.470  1.00  0.00    -0.072 N 
HETATM   37  H   UNL     1       8.364  22.759  54.919  1.00  0.00     0.277 HD
HETATM   38  H   UNL     1       6.987  22.124  55.518  1.00  0.00     0.277 HD
HETATM   39  C   UNL     1       7.898  23.387  56.880  1.00  0.00     0.260 C 
HETATM   40  C   UNL     1       8.546  24.792  56.946  1.00  0.00     0.262 C 
ENDBRANCH  31  32
ENDBRANCH  30  31
ENDBRANCH   3  30
TORSDOF 10
ENDMDL
MODEL 6
REMARK VINA RESULT:      -7.8      1.881      2.870
REMARK  10 active torsions:
REMARK  status: ('A' for Active; 'I' for Inactive)
REMARK    1  A    between atoms: C_2  and  O_3 
REMARK    2  A    between atoms: O_3  and  C_4 
REMARK    3  A    between atoms: C_7  and  C_8 
REMARK    4  A    between atoms: C_8  and  C_9 
REMARK    5  A    between atoms: C_10  and  C_11 
REMARK    6  A    between atoms: C_14  and  N_15 
REMARK    7  A    between atoms: N_20  and  C_21 
REMARK    8  A    between atoms: C_21  and  C_22 
REMARK    9  A    between atoms: C_22  and  N_23 
REMARK   10  A    between atoms: C_34  and  O_35 
ROOT
HETATM    1  C   UNL     1       5.049  27.685  51.350  1.00  0.00     0.059 C 
HETATM    2  C   UNL     1       4.597  28.429  52.567  1.00  0.00     0.161 C 
HETATM    3  N   UNL     1       4.576  29.798  52.053  1.00  0.00    -0.332 N 
HETATM    4  C   UNL     1       5.252  29.882  50.848  1.00  0.00     0.278 C 
HETATM    5  O   UNL     1       5.582  30.923  50.307  1.00  0.00    -0.265 OA
HETATM    6  C   UNL     1       5.457  28.502  50.367  1.00  0.00     0.146 C 
ENDROOT
BRANCH   1   7
HETATM    7  C   UNL     1       5.149  26.223  51.189  1.00  0.00     0.193 C 
HETATM    8  O   UNL     1       4.603  25.678  50.234  1.00  0.00    -0.287 OA
BRANCH   7   9
HETATM    9  C   UNL     1       5.943  25.427  52.144  1.00  0.00     0.015 A 
HETATM   10  C   UNL     1       5.373  24.877  53.297  1.00  0.00     0.018 A 
HETATM   11  C   UNL     1       6.167  24.139  54.185  1.00  0.00     0.038 A 
HETATM   12  C   UNL     1       7.518  23.929  53.911  1.00  0.00     0.069 A 
HETATM   13  C   UNL     1       8.065  24.448  52.734  1.00  0.00     0.038 A 
HETATM   14  C   UNL     1       7.286  25.192  51.848  1.00  0.00     0.018 A 
BRANCH  12  15
HETATM   15  O   UNL     1       8.404  23.223  54.671  1.00  0.00    -0.347 OA
BRANCH  15  16
HETATM   16  C   UNL     1       8.122  22.955  56.048  1.00  0.00     0.120 C 
HETATM   17  C   UNL     1       8.863  23.960  56.927  1.00  0.00     0.040 C 
HETATM   18  C   UNL     1       8.620  21.540  56.335  1.00  0.00     0.040 C 
ENDBRANCH  15  16
ENDBRANCH  12  15
ENDBRANCH   7   9
ENDBRANCH   1   7
BRANCH   2  19
HETATM   19  C   UNL     1       5.537  28.271  53.753  1.00  0.00    -0.030 A 
HETATM   20  C   UNL     1       6.937  28.351  53.606  1.00  0.00     0.012 A 
HETATM   21  C   UNL     1       7.786  28.171  54.702  1.00  0.00     0.037 A 
HETATM   22  C   UNL     1       7.241  27.900  55.961  1.00  0.00     0.102 A 
HETATM   23  C   UNL     1       5.855  27.807  56.128  1.00  0.00     0.037 A 
HETATM   24  C   UNL     1       5.011  27.997  55.028  1.00  0.00     0.012 A 
BRANCH  22  25
HETATM   25  N   UNL     1       8.131  27.725  57.115  1.00  0.00    -0.116 N 
HETATM   26  O   UNL     1       9.255  28.244  57.047  1.00  0.00    -0.532 OA
HETATM   27  O   UNL     1       7.693  27.101  58.088  1.00  0.00    -0.532 OA
ENDBRANCH  22  25
ENDBRANCH   2  19
BRANCH   6  28
HETATM   28  O   UNL     1       5.983  28.194  49.147  1.00  0.00    -0.355 OA
HETATM   29  H   UNL     1       5.566  27.351  48.846  1.00  0.00     0.218 HD
ENDBRANCH   6  28
BRANCH   3  30
HETATM   30  C   UNL     1       4.219  30.964  52.855  1.00  0.00     0.155 C 
BRANCH  30  31
HETATM   31  C   UNL     1       2.813  31.528  52.501  1.00  0.00     0.254 C 
BRANCH  31  32
HETATM   32  N   UNL     1       2.710  32.184  51.118  1.00  0.00    -0.066 N 
HETATM   33  H   UNL     1       3.686  32.229  50.781  1.00  0.00     0.280 HD
HETATM   34  C   UNL     1       2.234  33.644  51.221  1.00  0.00     0.262 C 
HETATM   35  C   UNL     1       0.694  33.753  51.373  1.00  0.00     0.260 C 
HETATM   36  N   UNL     1      -0.011  33.027  50.260  1.00  0.00    -0.072 N 
HETATM   37  H   UNL     1       0.090  33.522  49.359  1.00  0.00     0.277 HD
HETATM   38  H   UNL     1      -1.030  33.050  50.445  1.00  0.00     0.277 HD
HETATM   39  C   UNL     1       0.391  31.581  50.130  1.00  0.00     0.260 C 
HETATM   40  C   UNL     1       1.928  31.417  50.038  1.00  0.00     0.262 C 
ENDBRANCH  31  32
ENDBRANCH  30  31
ENDBRANCH   3  30
TORSDOF 10
ENDMDL
MODEL 7
REMARK VINA RESULT:      -7.7      2.243      3.152
REMARK  10 active torsions:
REMARK  status: ('A' for Active; 'I' for Inactive)
REMARK    1  A    between atoms: C_2  and  O_3 
REMARK    2  A    between atoms: O_3  and  C_4 
REMARK    3  A    between atoms: C_7  and  C_8 
REMARK    4  A    between atoms: C_8  and  C_9 
REMARK    5  A    between atoms: C_10  and  C_11 
REMARK    6  A    between atoms: C_14  and  N_15 
REMARK    7  A    between atoms: N_20  and  C_21 
REMARK    8  A    between atoms: C_21  and  C_22 
REMARK    9  A    between atoms: C_22  and  N_23 
REMARK   10  A    between atoms: C_34  and  O_35 
ROOT
HETATM    1  C   UNL     1       4.470  28.561  53.823  1.00  0.00     0.059 C 
HETATM    2  C   UNL     1       4.243  28.256  55.271  1.00  0.00     0.161 C 
HETATM    3  N   UNL     1       4.150  29.609  55.819  1.00  0.00    -0.332 N 
HETATM    4  C   UNL     1       4.609  30.542  54.906  1.00  0.00     0.278 C 
HETATM    5  O   UNL     1       4.853  31.708  55.166  1.00  0.00    -0.265 OA
HETATM    6  C   UNL     1       4.712  29.862  53.601  1.00  0.00     0.146 C 
ENDROOT
BRANCH   1   7
HETATM    7  C   UNL     1       4.523  27.595  52.710  1.00  0.00     0.193 C 
HETATM    8  O   UNL     1       3.847  27.789  51.704  1.00  0.00    -0.287 OA
BRANCH   7   9
HETATM    9  C   UNL     1       5.422  26.428  52.787  1.00  0.00     0.015 A 
HETATM   10  C   UNL     1       4.939  25.142  53.053  1.00  0.00     0.018 A 
HETATM   11  C   UNL     1       5.829  24.064  53.131  1.00  0.00     0.038 A 
HETATM   12  C   UNL     1       7.193  24.262  52.921  1.00  0.00     0.069 A 
HETATM   13  C   UNL     1       7.658  25.544  52.613  1.00  0.00     0.038 A 
HETATM   14  C   UNL     1       6.781  26.627  52.542  1.00  0.00     0.018 A 
BRANCH  12  15
HETATM   15  O   UNL     1       8.170  23.310  52.949  1.00  0.00    -0.347 OA
BRANCH  15  16
HETATM   16  C   UNL     1       8.039  22.165  53.798  1.00  0.00     0.120 C 
HETATM   17  C   UNL     1       9.269  22.049  54.694  1.00  0.00     0.040 C 
HETATM   18  C   UNL     1       7.936  20.946  52.885  1.00  0.00     0.040 C 
ENDBRANCH  15  16
ENDBRANCH  12  15
ENDBRANCH   7   9
ENDBRANCH   1   7
BRANCH   2  19
HETATM   19  C   UNL     1       5.372  27.454  55.901  1.00  0.00    -0.030 A 
HETATM   20  C   UNL     1       6.714  27.881  55.834  1.00  0.00     0.012 A 
HETATM   21  C   UNL     1       7.741  27.114  56.390  1.00  0.00     0.037 A 
HETATM   22  C   UNL     1       7.436  25.902  57.017  1.00  0.00     0.102 A 
HETATM   23  C   UNL     1       6.112  25.454  57.088  1.00  0.00     0.037 A 
HETATM   24  C   UNL     1       5.088  26.231  56.535  1.00  0.00     0.012 A 
BRANCH  22  25
HETATM   25  N   UNL     1       8.512  25.103  57.615  1.00  0.00    -0.116 N 
HETATM   26  O   UNL     1       9.354  24.619  56.844  1.00  0.00    -0.532 OA
HETATM   27  O   UNL     1       8.527  24.989  58.846  1.00  0.00    -0.532 OA
ENDBRANCH  22  25
ENDBRANCH   2  19
BRANCH   6  28
HETATM   28  O   UNL     1       5.015  30.498  52.434  1.00  0.00    -0.355 OA
HETATM   29  H   UNL     1       5.999  30.552  52.370  1.00  0.00     0.218 HD
ENDBRANCH   6  28
BRANCH   3  30
HETATM   30  C   UNL     1       3.950  29.903  57.234  1.00  0.00     0.155 C 
BRANCH  30  31
HETATM   31  C   UNL     1       5.220  30.494  57.911  1.00  0.00     0.254 C 
BRANCH  31  32
HETATM   32  N   UNL     1       5.175  32.008  58.155  1.00  0.00    -0.066 N 
HETATM   33  H   UNL     1       5.449  32.423  57.249  1.00  0.00     0.280 HD
HETATM   34  C   UNL     1       6.255  32.449  59.160  1.00  0.00     0.262 C 
HETATM   35  C   UNL     1       5.822  32.212  60.631  1.00  0.00     0.260 C 
HETATM   36  N   UNL     1       4.504  32.878  60.920  1.00  0.00    -0.072 N 
HETATM   37  H   UNL     1       4.597  33.906  60.950  1.00  0.00     0.277 HD
HETATM   38  H   UNL     1       4.212  32.624  61.880  1.00  0.00     0.277 HD
HETATM   39  C   UNL     1       3.398  32.461  59.986  1.00  0.00     0.260 C 
HETATM   40  C   UNL     1       3.808  32.621  58.501  1.00  0.00     0.262 C 
ENDBRANCH  31  32
ENDBRANCH  30  31
ENDBRANCH   3  30
TORSDOF 10
ENDMDL
MODEL 8
REMARK VINA RESULT:      -7.6      5.557      9.049
REMARK  10 active torsions:
REMARK  status: ('A' for Active; 'I' for Inactive)
REMARK    1  A    between atoms: C_2  and  O_3 
REMARK    2  A    between atoms: O_3  and  C_4 
REMARK    3  A    between atoms: C_7  and  C_8 
REMARK    4  A    between atoms: C_8  and  C_9 
REMARK    5  A    between atoms: C_10  and  C_11 
REMARK    6  A    between atoms: C_14  and  N_15 
REMARK    7  A    between atoms: N_20  and  C_21 
REMARK    8  A    between atoms: C_21  and  C_22 
REMARK    9  A    between atoms: C_22  and  N_23 
REMARK   10  A    between atoms: C_34  and  O_35 
ROOT
HETATM    1  C   UNL     1       6.862  32.304  60.754  1.00  0.00     0.059 C 
HETATM    2  C   UNL     1       5.653  33.148  60.497  1.00  0.00     0.161 C 
HETATM    3  N   UNL     1       4.902  32.925  61.733  1.00  0.00    -0.332 N 
HETATM    4  C   UNL     1       5.416  31.848  62.433  1.00  0.00     0.278 C 
HETATM    5  O   UNL     1       4.863  31.302  63.373  1.00  0.00    -0.265 OA
HETATM    6  C   UNL     1       6.730  31.530  61.842  1.00  0.00     0.146 C 
ENDROOT
BRANCH   1   7
HETATM    7  C   UNL     1       8.071  32.205  59.915  1.00  0.00     0.193 C 
HETATM    8  O   UNL     1       8.958  33.048  60.026  1.00  0.00    -0.287 OA
BRANCH   7   9
HETATM    9  C   UNL     1       8.234  31.074  58.983  1.00  0.00     0.015 A 
HETATM   10  C   UNL     1       9.497  30.617  58.594  1.00  0.00     0.018 A 
HETATM   11  C   UNL     1       9.607  29.548  57.695  1.00  0.00     0.038 A 
HETATM   12  C   UNL     1       8.461  28.921  57.205  1.00  0.00     0.069 A 
HETATM   13  C   UNL     1       7.206  29.360  57.635  1.00  0.00     0.038 A 
HETATM   14  C   UNL     1       7.085  30.430  58.523  1.00  0.00     0.018 A 
BRANCH  12  15
HETATM   15  O   UNL     1       8.414  27.865  56.343  1.00  0.00    -0.347 OA
BRANCH  15  16
HETATM   16  C   UNL     1       7.542  26.760  56.601  1.00  0.00     0.120 C 
HETATM   17  C   UNL     1       8.317  25.653  57.311  1.00  0.00     0.040 C 
HETATM   18  C   UNL     1       7.043  26.265  55.246  1.00  0.00     0.040 C 
ENDBRANCH  15  16
ENDBRANCH  12  15
ENDBRANCH   7   9
ENDBRANCH   1   7
BRANCH   2  19
HETATM   19  C   UNL     1       4.873  32.722  59.263  1.00  0.00    -0.030 A 
HETATM   20  C   UNL     1       4.090  31.549  59.246  1.00  0.00     0.012 A 
HETATM   21  C   UNL     1       3.406  31.157  58.093  1.00  0.00     0.037 A 
HETATM   22  C   UNL     1       3.504  31.934  56.934  1.00  0.00     0.102 A 
HETATM   23  C   UNL     1       4.282  33.097  56.924  1.00  0.00     0.037 A 
HETATM   24  C   UNL     1       4.957  33.488  58.086  1.00  0.00     0.012 A 
BRANCH  22  25
HETATM   25  N   UNL     1       2.774  31.531  55.726  1.00  0.00    -0.116 N 
HETATM   26  O   UNL     1       1.614  31.950  55.599  1.00  0.00    -0.532 OA
HETATM   27  O   UNL     1       3.371  30.828  54.903  1.00  0.00    -0.532 OA
ENDBRANCH  22  25
ENDBRANCH   2  19
BRANCH   6  28
HETATM   28  O   UNL     1       7.587  30.601  62.352  1.00  0.00    -0.355 OA
HETATM   29  H   UNL     1       7.269  30.365  63.257  1.00  0.00     0.218 HD
ENDBRANCH   6  28
BRANCH   3  30
HETATM   30  C   UNL     1       3.595  33.511  62.009  1.00  0.00     0.155 C 
BRANCH  30  31
HETATM   31  C   UNL     1       3.632  34.544  63.171  1.00  0.00     0.254 C 
BRANCH  31  32
HETATM   32  N   UNL     1       5.039  34.928  63.649  1.00  0.00    -0.066 N 
HETATM   33  H   UNL     1       5.645  34.165  63.304  1.00  0.00     0.280 HD
HETATM   34  C   UNL     1       5.143  34.884  65.185  1.00  0.00     0.262 C 
HETATM   35  C   UNL     1       4.581  36.167  65.851  1.00  0.00     0.260 C 
HETATM   36  N   UNL     1       5.243  37.398  65.294  1.00  0.00    -0.072 N 
HETATM   37  H   UNL     1       6.223  37.478  65.610  1.00  0.00     0.277 HD
HETATM   38  H   UNL     1       4.781  38.232  65.700  1.00  0.00     0.277 HD
HETATM   39  C   UNL     1       5.145  37.513  63.795  1.00  0.00     0.260 C 
HETATM   40  C   UNL     1       5.638  36.227  63.086  1.00  0.00     0.262 C 
ENDBRANCH  31  32
ENDBRANCH  30  31
ENDBRANCH   3  30
TORSDOF 10
ENDMDL
MODEL 9
REMARK VINA RESULT:      -7.4      3.380      6.326
REMARK  10 active torsions:
REMARK  status: ('A' for Active; 'I' for Inactive)
REMARK    1  A    between atoms: C_2  and  O_3 
REMARK    2  A    between atoms: O_3  and  C_4 
REMARK    3  A    between atoms: C_7  and  C_8 
REMARK    4  A    between atoms: C_8  and  C_9 
REMARK    5  A    between atoms: C_10  and  C_11 
REMARK    6  A    between atoms: C_14  and  N_15 
REMARK    7  A    between atoms: N_20  and  C_21 
REMARK    8  A    between atoms: C_21  and  C_22 
REMARK    9  A    between atoms: C_22  and  N_23 
REMARK   10  A    between atoms: C_34  and  O_35 
ROOT
HETATM    1  C   UNL     1       4.418  29.345  52.437  1.00  0.00     0.059 C 
HETATM    2  C   UNL     1       5.059  29.326  51.085  1.00  0.00     0.161 C 
HETATM    3  N   UNL     1       4.734  30.671  50.613  1.00  0.00    -0.332 N 
HETATM    4  C   UNL     1       3.757  31.248  51.406  1.00  0.00     0.278 C 
HETATM    5  O   UNL     1       3.140  32.260  51.124  1.00  0.00    -0.265 OA
HETATM    6  C   UNL     1       3.644  30.425  52.626  1.00  0.00     0.146 C 
ENDROOT
BRANCH   1   7
HETATM    7  C   UNL     1       4.503  28.302  53.475  1.00  0.00     0.193 C 
HETATM    8  O   UNL     1       3.803  28.387  54.481  1.00  0.00    -0.287 OA
BRANCH   7   9
HETATM    9  C   UNL     1       5.387  27.137  53.283  1.00  0.00     0.015 A 
HETATM   10  C   UNL     1       6.780  27.258  53.308  1.00  0.00     0.018 A 
HETATM   11  C   UNL     1       7.584  26.129  53.107  1.00  0.00     0.038 A 
HETATM   12  C   UNL     1       7.000  24.878  52.905  1.00  0.00     0.069 A 
HETATM   13  C   UNL     1       5.607  24.764  52.924  1.00  0.00     0.038 A 
HETATM   14  C   UNL     1       4.797  25.884  53.115  1.00  0.00     0.018 A 
BRANCH  12  15
HETATM   15  O   UNL     1       7.651  23.695  52.712  1.00  0.00    -0.347 OA
BRANCH  15  16
HETATM   16  C   UNL     1       7.609  22.675  53.716  1.00  0.00     0.120 C 
HETATM   17  C   UNL     1       8.632  22.987  54.805  1.00  0.00     0.040 C 
HETATM   18  C   UNL     1       7.960  21.360  53.025  1.00  0.00     0.040 C 
ENDBRANCH  15  16
ENDBRANCH  12  15
ENDBRANCH   7   9
ENDBRANCH   1   7
BRANCH   2  19
HETATM   19  C   UNL     1       4.505  28.243  50.172  1.00  0.00    -0.030 A 
HETATM   20  C   UNL     1       3.177  28.278  49.699  1.00  0.00     0.012 A 
HETATM   21  C   UNL     1       2.675  27.258  48.887  1.00  0.00     0.037 A 
HETATM   22  C   UNL     1       3.499  26.181  48.542  1.00  0.00     0.102 A 
HETATM   23  C   UNL     1       4.817  26.120  49.007  1.00  0.00     0.037 A 
HETATM   24  C   UNL     1       5.315  27.150  49.814  1.00  0.00     0.012 A 
BRANCH  22  25
HETATM   25  N   UNL     1       2.978  25.116  47.678  1.00  0.00    -0.116 N 
HETATM   26  O   UNL     1       2.725  24.026  48.211  1.00  0.00    -0.532 OA
HETATM   27  O   UNL     1       2.797  25.383  46.484  1.00  0.00    -0.532 OA
ENDBRANCH  22  25
ENDBRANCH   2  19
BRANCH   6  28
HETATM   28  O   UNL     1       2.865  30.755  53.695  1.00  0.00    -0.355 OA
HETATM   29  H   UNL     1       2.026  30.240  53.624  1.00  0.00     0.218 HD
ENDBRANCH   6  28
BRANCH   3  30
HETATM   30  C   UNL     1       5.110  31.188  49.302  1.00  0.00     0.155 C 
BRANCH  30  31
HETATM   31  C   UNL     1       6.211  32.284  49.381  1.00  0.00     0.254 C 
BRANCH  31  32
HETATM   32  N   UNL     1       5.834  33.625  48.738  1.00  0.00    -0.066 N 
HETATM   33  H   UNL     1       5.305  34.122  49.474  1.00  0.00     0.280 HD
HETATM   34  C   UNL     1       4.848  33.434  47.571  1.00  0.00     0.262 C 
HETATM   35  C   UNL     1       5.564  33.021  46.257  1.00  0.00     0.260 C 
HETATM   36  N   UNL     1       6.647  34.003  45.902  1.00  0.00    -0.072 N 
HETATM   37  H   UNL     1       6.254  34.904  45.586  1.00  0.00     0.277 HD
HETATM   38  H   UNL     1       7.154  33.646  45.072  1.00  0.00     0.277 HD
HETATM   39  C   UNL     1       7.661  34.208  46.996  1.00  0.00     0.260 C 
HETATM   40  C   UNL     1       6.989  34.561  48.345  1.00  0.00     0.262 C 
ENDBRANCH  31  32
ENDBRANCH  30  31
ENDBRANCH   3  30
TORSDOF 10
ENDMDL
MODEL 10
REMARK VINA RESULT:      -7.4      4.620      9.401
REMARK  10 active torsions:
REMARK  status: ('A' for Active; 'I' for Inactive)
REMARK    1  A    between atoms: C_2  and  O_3 
REMARK    2  A    between atoms: O_3  and  C_4 
REMARK    3  A    between atoms: C_7  and  C_8 
REMARK    4  A    between atoms: C_8  and  C_9 
REMARK    5  A    between atoms: C_10  and  C_11 
REMARK    6  A    between atoms: C_14  and  N_15 
REMARK    7  A    between atoms: N_20  and  C_21 
REMARK    8  A    between atoms: C_21  and  C_22 
REMARK    9  A    between atoms: C_22  and  N_23 
REMARK   10  A    between atoms: C_34  and  O_35 
ROOT
HETATM    1  C   UNL     1       8.254  30.688  58.545  1.00  0.00     0.059 C 
HETATM    2  C   UNL     1       7.053  29.817  58.346  1.00  0.00     0.161 C 
HETATM    3  N   UNL     1       7.597  28.813  57.432  1.00  0.00    -0.332 N 
HETATM    4  C   UNL     1       8.804  29.233  56.902  1.00  0.00     0.278 C 
HETATM    5  O   UNL     1       9.369  28.709  55.957  1.00  0.00    -0.265 OA
HETATM    6  C   UNL     1       9.256  30.387  57.704  1.00  0.00     0.146 C 
ENDROOT
BRANCH   1   7
HETATM    7  C   UNL     1       8.383  31.825  59.475  1.00  0.00     0.193 C 
HETATM    8  O   UNL     1       9.260  32.664  59.291  1.00  0.00    -0.287 OA
BRANCH   7   9
HETATM    9  C   UNL     1       7.432  31.978  60.591  1.00  0.00     0.015 A 
HETATM   10  C   UNL     1       7.652  31.376  61.835  1.00  0.00     0.018 A 
HETATM   11  C   UNL     1       6.715  31.536  62.864  1.00  0.00     0.038 A 
HETATM   12  C   UNL     1       5.574  32.313  62.662  1.00  0.00     0.069 A 
HETATM   13  C   UNL     1       5.388  32.944  61.428  1.00  0.00     0.038 A 
HETATM   14  C   UNL     1       6.310  32.784  60.394  1.00  0.00     0.018 A 
BRANCH  12  15
HETATM   15  O   UNL     1       4.590  32.569  63.571  1.00  0.00    -0.347 OA
BRANCH  15  16
HETATM   16  C   UNL     1       4.478  33.865  64.169  1.00  0.00     0.120 C 
HETATM   17  C   UNL     1       4.697  33.753  65.675  1.00  0.00     0.040 C 
HETATM   18  C   UNL     1       3.066  34.365  63.879  1.00  0.00     0.040 C 
ENDBRANCH  15  16
ENDBRANCH  12  15
ENDBRANCH   7   9
ENDBRANCH   1   7
BRANCH   2  19
HETATM   19  C   UNL     1       5.865  30.558  57.750  1.00  0.00    -0.030 A 
HETATM   20  C   UNL     1       6.030  31.563  56.775  1.00  0.00     0.012 A 
HETATM   21  C   UNL     1       4.929  32.255  56.263  1.00  0.00     0.037 A 
HETATM   22  C   UNL     1       3.646  31.952  56.728  1.00  0.00     0.102 A 
HETATM   23  C   UNL     1       3.459  30.965  57.702  1.00  0.00     0.037 A 
HETATM   24  C   UNL     1       4.566  30.271  58.205  1.00  0.00     0.012 A 
BRANCH  22  25
HETATM   25  N   UNL     1       2.488  32.668  56.181  1.00  0.00    -0.116 N 
HETATM   26  O   UNL     1       2.342  33.852  56.519  1.00  0.00    -0.532 OA
HETATM   27  O   UNL     1       1.753  32.056  55.397  1.00  0.00    -0.532 OA
ENDBRANCH  22  25
ENDBRANCH   2  19
BRANCH   6  28
HETATM   28  O   UNL     1      10.469  30.990  57.551  1.00  0.00    -0.355 OA
HETATM   29  H   UNL     1      10.349  31.953  57.733  1.00  0.00     0.218 HD
ENDBRANCH   6  28
BRANCH   3  30
HETATM   30  C   UNL     1       6.822  27.707  56.883  1.00  0.00     0.155 C 
BRANCH  30  31
HETATM   31  C   UNL     1       6.275  28.005  55.457  1.00  0.00     0.254 C 
BRANCH  31  32
HETATM   32  N   UNL     1       6.968  27.233  54.326  1.00  0.00    -0.066 N 
HETATM   33  H   UNL     1       7.865  27.727  54.190  1.00  0.00     0.280 HD
HETATM   34  C   UNL     1       6.205  27.377  52.997  1.00  0.00     0.262 C 
HETATM   35  C   UNL     1       4.997  26.407  52.902  1.00  0.00     0.260 C 
HETATM   36  N   UNL     1       5.430  24.985  53.131  1.00  0.00    -0.072 N 
HETATM   37  H   UNL     1       5.981  24.622  52.337  1.00  0.00     0.277 HD
HETATM   38  H   UNL     1       4.586  24.383  53.145  1.00  0.00     0.277 HD
HETATM   39  C   UNL     1       6.155  24.775  54.435  1.00  0.00     0.260 C 
HETATM   40  C   UNL     1       7.334  25.766  54.603  1.00  0.00     0.262 C 
ENDBRANCH  31  32
ENDBRANCH  30  31
ENDBRANCH   3  30
TORSDOF 10
ENDMDL
