MODEL 1
REMARK VINA RESULT:      -9.4      0.000      0.000
REMARK  5 active torsions:
REMARK  status: ('A' for Active; 'I' for Inactive)
REMARK    1  A    between atoms: C_2  and  C_3 
REMARK    2  A    between atoms: C_2  and  C_9 
REMARK    3  A    between atoms: C_9  and  C_10 
REMARK       I    between atoms: C_10  and  N_11 
REMARK    4  A    between atoms: N_11  and  C_12 
REMARK    5  A    between atoms: C_19  and  C_20 
REMARK       I    between atoms: C_20  and  N_21 
ROOT
HETATM    1  C   UNL     1       8.288  28.310  57.264  1.00  0.00     0.035 A 
HETATM    2  C   UNL     1       7.745  29.230  58.171  1.00  0.00     0.046 A 
HETATM    3  C   UNL     1       8.489  30.376  58.533  1.00  0.00     0.030 A 
HETATM    4  C   UNL     1       9.748  30.561  57.977  1.00  0.00     0.063 A 
HETATM    5  N   UNL     1      10.212  31.731  58.511  1.00  0.00    -0.277 N 
HETATM    6  H   UNL     1      11.104  32.176  58.331  1.00  0.00     0.189 HD
HETATM    7  N   UNL     1       9.366  32.328  59.365  1.00  0.00    -0.168 NA
HETATM    8  C   UNL     1       8.293  31.503  59.389  1.00  0.00     0.156 A 
HETATM    9  C   UNL     1      10.319  29.668  57.069  1.00  0.00     0.034 A 
HETATM   10  C   UNL     1       9.561  28.541  56.725  1.00  0.00     0.032 A 
ENDROOT
BRANCH   1  11
HETATM   11  N   UNL     1       7.624  27.137  56.842  1.00  0.00    -0.327 N 
HETATM   12  C   UNL     1       7.614  25.899  57.466  1.00  0.00     0.222 C 
HETATM   13  O   UNL     1       8.208  25.599  58.495  1.00  0.00    -0.273 OA
HETATM   14  H   UNL     1       7.114  27.205  55.971  1.00  0.00     0.169 HD
BRANCH  12  15
HETATM   15  C   UNL     1       6.772  24.894  56.694  1.00  0.00     0.112 C 
BRANCH  15  16
HETATM   16  C   UNL     1       7.553  24.179  55.577  1.00  0.00     0.023 C 
HETATM   17  C   UNL     1       7.488  22.652  55.721  1.00  0.00     0.015 C 
BRANCH  16  18
HETATM   18  C   UNL     1       7.045  24.619  54.211  1.00  0.00    -0.054 A 
HETATM   19  C   UNL     1       7.894  24.713  53.098  1.00  0.00     0.007 A 
HETATM   20  C   UNL     1       7.398  25.116  51.856  1.00  0.00     0.001 A 
HETATM   21  C   UNL     1       6.049  25.425  51.709  1.00  0.00     0.000 A 
HETATM   22  C   UNL     1       5.192  25.332  52.803  1.00  0.00     0.001 A 
HETATM   23  C   UNL     1       5.686  24.930  54.046  1.00  0.00     0.007 A 
ENDBRANCH  16  18
ENDBRANCH  15  16
ENDBRANCH  12  15
ENDBRANCH   1  11
BRANCH   8  24
HETATM   24  C   UNL     1       7.119  31.805  60.219  1.00  0.00     0.270 C 
HETATM   25  N   UNL     1       7.116  31.173  61.433  1.00  0.00    -0.365 N 
HETATM   26  H   UNL     1       7.893  30.565  61.665  1.00  0.00     0.159 HD
HETATM   27  H   UNL     1       6.350  31.323  62.070  1.00  0.00     0.159 HD
HETATM   28  O   UNL     1       6.204  32.553  59.893  1.00  0.00    -0.266 OA
ENDBRANCH   8  24
TORSDOF 5
ENDMDL
MODEL 2
REMARK VINA RESULT:      -9.3      1.130      2.286
REMARK  5 active torsions:
REMARK  status: ('A' for Active; 'I' for Inactive)
REMARK    1  A    between atoms: C_2  and  C_3 
REMARK    2  A    between atoms: C_2  and  C_9 
REMARK    3  A    between atoms: C_9  and  C_10 
REMARK       I    between atoms: C_10  and  N_11 
REMARK    4  A    between atoms: N_11  and  C_12 
REMARK    5  A    between atoms: C_19  and  C_20 
REMARK       I    between atoms: C_20  and  N_21 
ROOT
HETATM    1  C   UNL     1       8.088  28.285  57.246  1.00  0.00     0.035 A 
HETATM    2  C   UNL     1       7.656  29.210  58.206  1.00  0.00     0.046 A 
HETATM    3  C   UNL     1       8.469  30.323  58.519  1.00  0.00     0.030 A 
HETATM    4  C   UNL     1       9.683  30.472  57.863  1.00  0.00     0.063 A 
HETATM    5  N   UNL     1      10.232  31.616  58.371  1.00  0.00    -0.277 N 
HETATM    6  H   UNL     1      11.122  32.033  58.123  1.00  0.00     0.189 HD
HETATM    7  N   UNL     1       9.481  32.229  59.300  1.00  0.00    -0.168 NA
HETATM    8  C   UNL     1       8.385  31.442  59.402  1.00  0.00     0.156 A 
HETATM    9  C   UNL     1      10.144  29.574  56.899  1.00  0.00     0.034 A 
HETATM   10  C   UNL     1       9.320  28.480  56.605  1.00  0.00     0.032 A 
ENDROOT
BRANCH   1  11
HETATM   11  N   UNL     1       7.349  27.143  56.866  1.00  0.00    -0.327 N 
HETATM   12  C   UNL     1       7.752  25.817  56.921  1.00  0.00     0.222 C 
HETATM   13  O   UNL     1       8.844  25.405  57.294  1.00  0.00    -0.273 OA
HETATM   14  H   UNL     1       6.426  27.317  56.490  1.00  0.00     0.169 HD
BRANCH  12  15
HETATM   15  C   UNL     1       6.659  24.883  56.424  1.00  0.00     0.112 C 
BRANCH  15  16
HETATM   16  C   UNL     1       6.735  24.610  54.911  1.00  0.00     0.023 C 
HETATM   17  C   UNL     1       7.585  25.659  54.182  1.00  0.00     0.015 C 
BRANCH  16  18
HETATM   18  C   UNL     1       7.265  23.206  54.655  1.00  0.00    -0.054 A 
HETATM   19  C   UNL     1       7.470  22.288  55.697  1.00  0.00     0.007 A 
HETATM   20  C   UNL     1       7.953  21.005  55.430  1.00  0.00     0.001 A 
HETATM   21  C   UNL     1       8.232  20.621  54.121  1.00  0.00     0.000 A 
HETATM   22  C   UNL     1       8.028  21.519  53.076  1.00  0.00     0.001 A 
HETATM   23  C   UNL     1       7.546  22.802  53.340  1.00  0.00     0.007 A 
ENDBRANCH  16  18
ENDBRANCH  15  16
ENDBRANCH  12  15
ENDBRANCH   1  11
BRANCH   8  24
HETATM   24  C   UNL     1       7.296  31.773  60.331  1.00  0.00     0.270 C 
HETATM   25  N   UNL     1       7.346  31.089  61.516  1.00  0.00    -0.365 N 
HETATM   26  H   UNL     1       8.101  30.430  61.665  1.00  0.00     0.159 HD
HETATM   27  H   UNL     1       6.639  31.254  62.216  1.00  0.00     0.159 HD
HETATM   28  O   UNL     1       6.404  32.584  60.106  1.00  0.00    -0.266 OA
ENDBRANCH   8  24
TORSDOF 5
ENDMDL
MODEL 3
REMARK VINA RESULT:      -9.1      2.126      3.397
REMARK  5 active torsions:
REMARK  status: ('A' for Active; 'I' for Inactive)
REMARK    1  A    between atoms: C_2  and  C_3 
REMARK    2  A    between atoms: C_2  and  C_9 
REMARK    3  A    between atoms: C_9  and  C_10 
REMARK       I    between atoms: C_10  and  N_11 
REMARK    4  A    between atoms: N_11  and  C_12 
REMARK    5  A    between atoms: C_19  and  C_20 
REMARK       I    between atoms: C_20  and  N_21 
ROOT
HETATM    1  C   UNL     1       7.101  28.104  56.927  1.00  0.00     0.035 A 
HETATM    2  C   UNL     1       7.913  29.022  57.607  1.00  0.00     0.046 A 
HETATM    3  C   UNL     1       7.357  30.234  58.073  1.00  0.00     0.030 A 
HETATM    4  C   UNL     1       6.011  30.486  57.844  1.00  0.00     0.063 A 
HETATM    5  N   UNL     1       5.772  31.712  58.398  1.00  0.00    -0.277 N 
HETATM    6  H   UNL     1       4.893  32.217  58.417  1.00  0.00     0.189 HD
HETATM    7  N   UNL     1       6.843  32.283  58.972  1.00  0.00    -0.168 NA
HETATM    8  C   UNL     1       7.833  31.380  58.781  1.00  0.00     0.156 A 
HETATM    9  C   UNL     1       5.172  29.594  57.174  1.00  0.00     0.034 A 
HETATM   10  C   UNL     1       5.747  28.399  56.723  1.00  0.00     0.032 A 
ENDROOT
BRANCH   1  11
HETATM   11  N   UNL     1       7.564  26.868  56.422  1.00  0.00    -0.327 N 
HETATM   12  C   UNL     1       7.072  25.603  56.702  1.00  0.00     0.222 C 
HETATM   13  O   UNL     1       6.151  25.333  57.464  1.00  0.00    -0.273 OA
HETATM   14  H   UNL     1       8.361  26.914  55.800  1.00  0.00     0.169 HD
BRANCH  12  15
HETATM   15  C   UNL     1       7.844  24.528  55.950  1.00  0.00     0.112 C 
BRANCH  15  16
HETATM   16  C   UNL     1       6.992  23.787  54.905  1.00  0.00     0.023 C 
HETATM   17  C   UNL     1       6.822  24.606  53.620  1.00  0.00     0.015 C 
BRANCH  16  18
HETATM   18  C   UNL     1       7.595  22.421  54.605  1.00  0.00    -0.054 A 
HETATM   19  C   UNL     1       7.906  21.507  55.624  1.00  0.00     0.007 A 
HETATM   20  C   UNL     1       8.455  20.259  55.318  1.00  0.00     0.001 A 
HETATM   21  C   UNL     1       8.694  19.907  53.992  1.00  0.00     0.000 A 
HETATM   22  C   UNL     1       8.386  20.802  52.970  1.00  0.00     0.001 A 
HETATM   23  C   UNL     1       7.838  22.050  53.273  1.00  0.00     0.007 A 
ENDBRANCH  16  18
ENDBRANCH  15  16
ENDBRANCH  12  15
ENDBRANCH   1  11
BRANCH   8  24
HETATM   24  C   UNL     1       9.195  31.629  59.273  1.00  0.00     0.270 C 
HETATM   25  N   UNL     1       9.468  31.045  60.480  1.00  0.00    -0.365 N 
HETATM   26  H   UNL     1       8.741  30.502  60.932  1.00  0.00     0.159 HD
HETATM   27  H   UNL     1      10.379  31.160  60.895  1.00  0.00     0.159 HD
HETATM   28  O   UNL     1      10.042  32.292  58.685  1.00  0.00    -0.266 OA
ENDBRANCH   8  24
TORSDOF 5
ENDMDL
MODEL 4
REMARK VINA RESULT:      -8.8      5.405      8.270
REMARK  5 active torsions:
REMARK  status: ('A' for Active; 'I' for Inactive)
REMARK    1  A    between atoms: C_2  and  C_3 
REMARK    2  A    between atoms: C_2  and  C_9 
REMARK    3  A    between atoms: C_9  and  C_10 
REMARK       I    between atoms: C_10  and  N_11 
REMARK    4  A    between atoms: N_11  and  C_12 
REMARK    5  A    between atoms: C_19  and  C_20 
REMARK       I    between atoms: C_20  and  N_21 
ROOT
HETATM    1  C   UNL     1       4.610  27.054  52.423  1.00  0.00     0.035 A 
HETATM    2  C   UNL     1       4.782  26.859  51.046  1.00  0.00     0.046 A 
HETATM    3  C   UNL     1       4.295  27.826  50.137  1.00  0.00     0.030 A 
HETATM    4  C   UNL     1       3.653  28.952  50.636  1.00  0.00     0.063 A 
HETATM    5  N   UNL     1       3.300  29.684  49.538  1.00  0.00    -0.277 N 
HETATM    6  H   UNL     1       2.810  30.571  49.523  1.00  0.00     0.189 HD
HETATM    7  N   UNL     1       3.657  29.137  48.365  1.00  0.00    -0.168 NA
HETATM    8  C   UNL     1       4.275  27.987  48.718  1.00  0.00     0.156 A 
HETATM    9  C   UNL     1       3.467  29.181  52.000  1.00  0.00     0.034 A 
HETATM   10  C   UNL     1       3.960  28.209  52.880  1.00  0.00     0.032 A 
ENDROOT
BRANCH   1  11
HETATM   11  N   UNL     1       5.059  26.147  53.408  1.00  0.00    -0.327 N 
HETATM   12  C   UNL     1       6.324  26.066  53.970  1.00  0.00     0.222 C 
HETATM   13  O   UNL     1       7.291  26.765  53.687  1.00  0.00    -0.273 OA
HETATM   14  H   UNL     1       4.383  25.464  53.724  1.00  0.00     0.169 HD
BRANCH  12  15
HETATM   15  C   UNL     1       6.403  24.953  55.004  1.00  0.00     0.112 C 
BRANCH  15  16
HETATM   16  C   UNL     1       7.830  24.418  55.214  1.00  0.00     0.023 C 
HETATM   17  C   UNL     1       8.284  24.554  56.673  1.00  0.00     0.015 C 
BRANCH  16  18
HETATM   18  C   UNL     1       7.926  22.973  54.745  1.00  0.00    -0.054 A 
HETATM   19  C   UNL     1       7.951  21.900  55.649  1.00  0.00     0.007 A 
HETATM   20  C   UNL     1       8.035  20.583  55.190  1.00  0.00     0.001 A 
HETATM   21  C   UNL     1       8.091  20.322  53.823  1.00  0.00     0.000 A 
HETATM   22  C   UNL     1       8.062  21.376  52.914  1.00  0.00     0.001 A 
HETATM   23  C   UNL     1       7.979  22.693  53.371  1.00  0.00     0.007 A 
ENDBRANCH  16  18
ENDBRANCH  15  16
ENDBRANCH  12  15
ENDBRANCH   1  11
BRANCH   8  24
HETATM   24  C   UNL     1       4.827  27.077  47.704  1.00  0.00     0.270 C 
HETATM   25  N   UNL     1       6.067  27.435  47.249  1.00  0.00    -0.365 N 
HETATM   26  H   UNL     1       6.502  28.268  47.629  1.00  0.00     0.159 HD
HETATM   27  H   UNL     1       6.526  26.868  46.553  1.00  0.00     0.159 HD
HETATM   28  O   UNL     1       4.262  26.076  47.279  1.00  0.00    -0.266 OA
ENDBRANCH   8  24
TORSDOF 5
ENDMDL
MODEL 5
REMARK VINA RESULT:      -8.8      2.620      4.217
REMARK  5 active torsions:
REMARK  status: ('A' for Active; 'I' for Inactive)
REMARK    1  A    between atoms: C_2  and  C_3 
REMARK    2  A    between atoms: C_2  and  C_9 
REMARK    3  A    between atoms: C_9  and  C_10 
REMARK       I    between atoms: C_10  and  N_11 
REMARK    4  A    between atoms: N_11  and  C_12 
REMARK    5  A    between atoms: C_19  and  C_20 
REMARK       I    between atoms: C_20  and  N_21 
ROOT
HETATM    1  C   UNL     1       6.258  27.095  55.887  1.00  0.00     0.035 A 
HETATM    2  C   UNL     1       7.484  27.748  56.067  1.00  0.00     0.046 A 
HETATM    3  C   UNL     1       7.558  28.870  56.923  1.00  0.00     0.030 A 
HETATM    4  C   UNL     1       6.406  29.299  57.568  1.00  0.00     0.063 A 
HETATM    5  N   UNL     1       6.786  30.383  58.308  1.00  0.00    -0.277 N 
HETATM    6  H   UNL     1       6.200  30.953  58.907  1.00  0.00     0.189 HD
HETATM    7  N   UNL     1       8.087  30.699  58.205  1.00  0.00    -0.168 NA
HETATM    8  C   UNL     1       8.579  29.771  57.353  1.00  0.00     0.156 A 
HETATM    9  C   UNL     1       5.169  28.670  57.416  1.00  0.00     0.034 A 
HETATM   10  C   UNL     1       5.122  27.560  56.564  1.00  0.00     0.032 A 
ENDROOT
BRANCH   1  11
HETATM   11  N   UNL     1       6.082  25.968  55.053  1.00  0.00    -0.327 N 
HETATM   12  C   UNL     1       5.775  25.955  53.701  1.00  0.00     0.222 C 
HETATM   13  O   UNL     1       5.577  26.935  52.992  1.00  0.00    -0.273 OA
HETATM   14  H   UNL     1       6.171  25.065  55.502  1.00  0.00     0.169 HD
BRANCH  12  15
HETATM   15  C   UNL     1       5.677  24.534  53.167  1.00  0.00     0.112 C 
BRANCH  15  16
HETATM   16  C   UNL     1       7.018  23.987  52.648  1.00  0.00     0.023 C 
HETATM   17  C   UNL     1       8.114  25.061  52.651  1.00  0.00     0.015 C 
BRANCH  16  18
HETATM   18  C   UNL     1       7.444  22.773  53.461  1.00  0.00    -0.054 A 
HETATM   19  C   UNL     1       7.889  21.590  52.851  1.00  0.00     0.007 A 
HETATM   20  C   UNL     1       8.278  20.493  53.624  1.00  0.00     0.001 A 
HETATM   21  C   UNL     1       8.230  20.565  55.014  1.00  0.00     0.000 A 
HETATM   22  C   UNL     1       7.795  21.734  55.633  1.00  0.00     0.001 A 
HETATM   23  C   UNL     1       7.406  22.831  54.863  1.00  0.00     0.007 A 
ENDBRANCH  16  18
ENDBRANCH  15  16
ENDBRANCH  12  15
ENDBRANCH   1  11
BRANCH   8  24
HETATM   24  C   UNL     1       9.999  29.766  56.971  1.00  0.00     0.270 C 
HETATM   25  N   UNL     1      10.213  29.734  55.620  1.00  0.00    -0.365 N 
HETATM   26  H   UNL     1       9.411  29.717  55.002  1.00  0.00     0.159 HD
HETATM   27  H   UNL     1      11.157  29.730  55.266  1.00  0.00     0.159 HD
HETATM   28  O   UNL     1      10.937  29.791  57.760  1.00  0.00    -0.266 OA
ENDBRANCH   8  24
TORSDOF 5
ENDMDL
MODEL 6
REMARK VINA RESULT:      -8.8      3.316      8.223
REMARK  5 active torsions:
REMARK  status: ('A' for Active; 'I' for Inactive)
REMARK    1  A    between atoms: C_2  and  C_3 
REMARK    2  A    between atoms: C_2  and  C_9 
REMARK    3  A    between atoms: C_9  and  C_10 
REMARK       I    between atoms: C_10  and  N_11 
REMARK    4  A    between atoms: N_11  and  C_12 
REMARK    5  A    between atoms: C_19  and  C_20 
REMARK       I    between atoms: C_20  and  N_21 
ROOT
HETATM    1  C   UNL     1       7.308  25.117  55.103  1.00  0.00     0.035 A 
HETATM    2  C   UNL     1       7.760  23.907  55.647  1.00  0.00     0.046 A 
HETATM    3  C   UNL     1       7.905  22.777  54.811  1.00  0.00     0.030 A 
HETATM    4  C   UNL     1       7.593  22.896  53.463  1.00  0.00     0.063 A 
HETATM    5  N   UNL     1       7.827  21.660  52.927  1.00  0.00    -0.277 N 
HETATM    6  H   UNL     1       7.703  21.377  51.961  1.00  0.00     0.189 HD
HETATM    7  N   UNL     1       8.265  20.745  53.805  1.00  0.00    -0.168 NA
HETATM    8  C   UNL     1       8.322  21.421  54.976  1.00  0.00     0.156 A 
HETATM    9  C   UNL     1       7.144  24.085  52.886  1.00  0.00     0.034 A 
HETATM   10  C   UNL     1       7.010  25.191  53.736  1.00  0.00     0.032 A 
ENDROOT
BRANCH   1  11
HETATM   11  N   UNL     1       7.130  26.299  55.856  1.00  0.00    -0.327 N 
HETATM   12  C   UNL     1       6.040  26.649  56.638  1.00  0.00     0.222 C 
HETATM   13  O   UNL     1       5.017  25.991  56.794  1.00  0.00    -0.273 OA
HETATM   14  H   UNL     1       7.879  26.978  55.799  1.00  0.00     0.169 HD
BRANCH  12  15
HETATM   15  C   UNL     1       6.239  28.007  57.293  1.00  0.00     0.112 C 
BRANCH  15  16
HETATM   16  C   UNL     1       6.776  29.076  56.324  1.00  0.00     0.023 C 
HETATM   17  C   UNL     1       5.811  30.261  56.187  1.00  0.00     0.015 C 
BRANCH  16  18
HETATM   18  C   UNL     1       8.155  29.545  56.768  1.00  0.00    -0.054 A 
HETATM   19  C   UNL     1       8.358  30.198  57.994  1.00  0.00     0.007 A 
HETATM   20  C   UNL     1       9.635  30.614  58.376  1.00  0.00     0.001 A 
HETATM   21  C   UNL     1      10.726  30.377  57.543  1.00  0.00     0.000 A 
HETATM   22  C   UNL     1      10.541  29.726  56.327  1.00  0.00     0.001 A 
HETATM   23  C   UNL     1       9.265  29.310  55.941  1.00  0.00     0.007 A 
ENDBRANCH  16  18
ENDBRANCH  15  16
ENDBRANCH  12  15
ENDBRANCH   1  11
BRANCH   8  24
HETATM   24  C   UNL     1       8.766  20.763  56.213  1.00  0.00     0.270 C 
HETATM   25  N   UNL     1       9.803  19.887  56.038  1.00  0.00    -0.365 N 
HETATM   26  H   UNL     1      10.178  19.760  55.105  1.00  0.00     0.159 HD
HETATM   27  H   UNL     1      10.176  19.391  56.832  1.00  0.00     0.159 HD
HETATM   28  O   UNL     1       8.281  20.955  57.323  1.00  0.00    -0.266 OA
ENDBRANCH   8  24
TORSDOF 5
ENDMDL
MODEL 7
REMARK VINA RESULT:      -8.3      2.650      3.776
REMARK  5 active torsions:
REMARK  status: ('A' for Active; 'I' for Inactive)
REMARK    1  A    between atoms: C_2  and  C_3 
REMARK    2  A    between atoms: C_2  and  C_9 
REMARK    3  A    between atoms: C_9  and  C_10 
REMARK       I    between atoms: C_10  and  N_11 
REMARK    4  A    between atoms: N_11  and  C_12 
REMARK    5  A    between atoms: C_19  and  C_20 
REMARK       I    between atoms: C_20  and  N_21 
ROOT
HETATM    1  C   UNL     1       6.628  27.232  56.223  1.00  0.00     0.035 A 
HETATM    2  C   UNL     1       5.694  28.212  56.584  1.00  0.00     0.046 A 
HETATM    3  C   UNL     1       6.108  29.320  57.358  1.00  0.00     0.030 A 
HETATM    4  C   UNL     1       7.439  29.409  57.743  1.00  0.00     0.063 A 
HETATM    5  N   UNL     1       7.530  30.563  58.469  1.00  0.00    -0.277 N 
HETATM    6  H   UNL     1       8.357  30.947  58.911  1.00  0.00     0.189 HD
HETATM    7  N   UNL     1       6.376  31.238  58.590  1.00  0.00    -0.168 NA
HETATM    8  C   UNL     1       5.485  30.483  57.906  1.00  0.00     0.156 A 
HETATM    9  C   UNL     1       8.397  28.454  57.399  1.00  0.00     0.034 A 
HETATM   10  C   UNL     1       7.962  27.367  56.631  1.00  0.00     0.032 A 
ENDROOT
BRANCH   1  11
HETATM   11  N   UNL     1       6.312  26.090  55.454  1.00  0.00    -0.327 N 
HETATM   12  C   UNL     1       6.051  26.032  54.093  1.00  0.00     0.222 C 
HETATM   13  O   UNL     1       6.028  26.979  53.317  1.00  0.00    -0.273 OA
HETATM   14  H   UNL     1       6.249  25.217  55.962  1.00  0.00     0.169 HD
BRANCH  12  15
HETATM   15  C   UNL     1       5.758  24.607  53.645  1.00  0.00     0.112 C 
BRANCH  15  16
HETATM   16  C   UNL     1       6.935  23.950  52.904  1.00  0.00     0.023 C 
HETATM   17  C   UNL     1       8.081  24.940  52.656  1.00  0.00     0.015 C 
BRANCH  16  18
HETATM   18  C   UNL     1       7.427  22.730  53.672  1.00  0.00    -0.054 A 
HETATM   19  C   UNL     1       7.420  22.683  55.074  1.00  0.00     0.007 A 
HETATM   20  C   UNL     1       7.873  21.548  55.751  1.00  0.00     0.001 A 
HETATM   21  C   UNL     1       8.333  20.445  55.037  1.00  0.00     0.000 A 
HETATM   22  C   UNL     1       8.341  20.475  53.644  1.00  0.00     0.001 A 
HETATM   23  C   UNL     1       7.890  21.609  52.965  1.00  0.00     0.007 A 
ENDBRANCH  16  18
ENDBRANCH  15  16
ENDBRANCH  12  15
ENDBRANCH   1  11
BRANCH   8  24
HETATM   24  C   UNL     1       4.076  30.884  57.792  1.00  0.00     0.270 C 
HETATM   25  N   UNL     1       3.685  31.814  58.717  1.00  0.00    -0.365 N 
HETATM   26  H   UNL     1       4.367  32.149  59.387  1.00  0.00     0.159 HD
HETATM   27  H   UNL     1       2.735  32.150  58.714  1.00  0.00     0.159 HD
HETATM   28  O   UNL     1       3.289  30.451  56.958  1.00  0.00    -0.266 OA
ENDBRANCH   8  24
TORSDOF 5
ENDMDL
MODEL 8
REMARK VINA RESULT:      -8.3      5.915      8.389
REMARK  5 active torsions:
REMARK  status: ('A' for Active; 'I' for Inactive)
REMARK    1  A    between atoms: C_2  and  C_3 
REMARK    2  A    between atoms: C_2  and  C_9 
REMARK    3  A    between atoms: C_9  and  C_10 
REMARK       I    between atoms: C_10  and  N_11 
REMARK    4  A    between atoms: N_11  and  C_12 
REMARK    5  A    between atoms: C_19  and  C_20 
REMARK       I    between atoms: C_20  and  N_21 
ROOT
HETATM    1  C   UNL     1       4.777  26.562  50.111  1.00  0.00     0.035 A 
HETATM    2  C   UNL     1       5.092  27.927  50.161  1.00  0.00     0.046 A 
HETATM    3  C   UNL     1       4.719  28.770  49.090  1.00  0.00     0.030 A 
HETATM    4  C   UNL     1       4.045  28.220  48.007  1.00  0.00     0.063 A 
HETATM    5  N   UNL     1       3.827  29.261  47.149  1.00  0.00    -0.277 N 
HETATM    6  H   UNL     1       3.361  29.228  46.250  1.00  0.00     0.189 HD
HETATM    7  N   UNL     1       4.298  30.443  47.576  1.00  0.00    -0.168 NA
HETATM    8  C   UNL     1       4.851  30.157  48.778  1.00  0.00     0.156 A 
HETATM    9  C   UNL     1       3.711  26.867  47.925  1.00  0.00     0.034 A 
HETATM   10  C   UNL     1       4.090  26.053  49.000  1.00  0.00     0.032 A 
ENDROOT
BRANCH   1  11
HETATM   11  N   UNL     1       5.107  25.641  51.129  1.00  0.00    -0.327 N 
HETATM   12  C   UNL     1       4.957  25.803  52.498  1.00  0.00     0.222 C 
HETATM   13  O   UNL     1       4.526  26.797  53.069  1.00  0.00    -0.273 OA
HETATM   14  H   UNL     1       5.521  24.770  50.822  1.00  0.00     0.169 HD
BRANCH  12  15
HETATM   15  C   UNL     1       5.428  24.571  53.258  1.00  0.00     0.112 C 
BRANCH  15  16
HETATM   16  C   UNL     1       6.957  24.505  53.419  1.00  0.00     0.023 C 
HETATM   17  C   UNL     1       7.472  25.544  54.423  1.00  0.00     0.015 C 
BRANCH  16  18
HETATM   18  C   UNL     1       7.385  23.100  53.821  1.00  0.00    -0.054 A 
HETATM   19  C   UNL     1       7.768  22.140  52.871  1.00  0.00     0.007 A 
HETATM   20  C   UNL     1       8.160  20.860  53.270  1.00  0.00     0.001 A 
HETATM   21  C   UNL     1       8.179  20.525  54.621  1.00  0.00     0.000 A 
HETATM   22  C   UNL     1       7.806  21.467  55.576  1.00  0.00     0.001 A 
HETATM   23  C   UNL     1       7.413  22.747  55.179  1.00  0.00     0.007 A 
ENDBRANCH  16  18
ENDBRANCH  15  16
ENDBRANCH  12  15
ENDBRANCH   1  11
BRANCH   8  24
HETATM   24  C   UNL     1       5.487  31.203  49.591  1.00  0.00     0.270 C 
HETATM   25  N   UNL     1       4.608  31.946  50.331  1.00  0.00    -0.365 N 
HETATM   26  H   UNL     1       3.620  31.731  50.271  1.00  0.00     0.159 HD
HETATM   27  H   UNL     1       4.955  32.685  50.922  1.00  0.00     0.159 HD
HETATM   28  O   UNL     1       6.693  31.422  49.633  1.00  0.00    -0.266 OA
ENDBRANCH   8  24
TORSDOF 5
ENDMDL
MODEL 9
REMARK VINA RESULT:      -8.3      5.401      8.114
REMARK  5 active torsions:
REMARK  status: ('A' for Active; 'I' for Inactive)
REMARK    1  A    between atoms: C_2  and  C_3 
REMARK    2  A    between atoms: C_2  and  C_9 
REMARK    3  A    between atoms: C_9  and  C_10 
REMARK       I    between atoms: C_10  and  N_11 
REMARK    4  A    between atoms: N_11  and  C_12 
REMARK    5  A    between atoms: C_19  and  C_20 
REMARK       I    between atoms: C_20  and  N_21 
ROOT
HETATM    1  C   UNL     1       7.214  24.992  53.662  1.00  0.00     0.035 A 
HETATM    2  C   UNL     1       7.510  23.629  53.795  1.00  0.00     0.046 A 
HETATM    3  C   UNL     1       7.839  23.107  55.066  1.00  0.00     0.030 A 
HETATM    4  C   UNL     1       7.862  23.964  56.159  1.00  0.00     0.063 A 
HETATM    5  N   UNL     1       8.210  23.184  57.225  1.00  0.00    -0.277 N 
HETATM    6  H   UNL     1       8.326  23.478  58.188  1.00  0.00     0.189 HD
HETATM    7  N   UNL     1       8.415  21.891  56.927  1.00  0.00    -0.168 NA
HETATM    8  C   UNL     1       8.187  21.826  55.594  1.00  0.00     0.156 A 
HETATM    9  C   UNL     1       7.569  25.326  56.064  1.00  0.00     0.034 A 
HETATM   10  C   UNL     1       7.244  25.819  54.794  1.00  0.00     0.032 A 
ENDROOT
BRANCH   1  11
HETATM   11  N   UNL     1       6.875  25.607  52.437  1.00  0.00    -0.327 N 
HETATM   12  C   UNL     1       5.649  25.584  51.789  1.00  0.00     0.222 C 
HETATM   13  O   UNL     1       4.641  24.997  52.163  1.00  0.00    -0.273 OA
HETATM   14  H   UNL     1       7.621  26.105  51.969  1.00  0.00     0.169 HD
BRANCH  12  15
HETATM   15  C   UNL     1       5.692  26.377  50.491  1.00  0.00     0.112 C 
BRANCH  15  16
HETATM   16  C   UNL     1       4.589  27.445  50.395  1.00  0.00     0.023 C 
HETATM   17  C   UNL     1       5.172  28.861  50.290  1.00  0.00     0.015 C 
BRANCH  16  18
HETATM   18  C   UNL     1       3.665  27.148  49.222  1.00  0.00    -0.054 A 
HETATM   19  C   UNL     1       3.854  26.031  48.393  1.00  0.00     0.007 A 
HETATM   20  C   UNL     1       2.988  25.781  47.327  1.00  0.00     0.001 A 
HETATM   21  C   UNL     1       1.920  26.639  47.077  1.00  0.00     0.000 A 
HETATM   22  C   UNL     1       1.717  27.749  47.893  1.00  0.00     0.001 A 
HETATM   23  C   UNL     1       2.583  28.002  48.960  1.00  0.00     0.007 A 
ENDBRANCH  16  18
ENDBRANCH  15  16
ENDBRANCH  12  15
ENDBRANCH   1  11
BRANCH   8  24
HETATM   24  C   UNL     1       8.307  20.557  54.864  1.00  0.00     0.270 C 
HETATM   25  N   UNL     1       9.108  19.632  55.478  1.00  0.00    -0.365 N 
HETATM   26  H   UNL     1       9.543  19.877  56.360  1.00  0.00     0.159 HD
HETATM   27  H   UNL     1       9.246  18.731  55.051  1.00  0.00     0.159 HD
HETATM   28  O   UNL     1       7.754  20.306  53.798  1.00  0.00    -0.266 OA
ENDBRANCH   8  24
TORSDOF 5
ENDMDL
MODEL 10
REMARK VINA RESULT:      -8.2      2.699      8.818
REMARK  5 active torsions:
REMARK  status: ('A' for Active; 'I' for Inactive)
REMARK    1  A    between atoms: C_2  and  C_3 
REMARK    2  A    between atoms: C_2  and  C_9 
REMARK    3  A    between atoms: C_9  and  C_10 
REMARK       I    between atoms: C_10  and  N_11 
REMARK    4  A    between atoms: N_11  and  C_12 
REMARK    5  A    between atoms: C_19  and  C_20 
REMARK       I    between atoms: C_20  and  N_21 
ROOT
HETATM    1  C   UNL     1       7.208  29.606  57.841  1.00  0.00     0.035 A 
HETATM    2  C   UNL     1       7.549  28.247  57.881  1.00  0.00     0.046 A 
HETATM    3  C   UNL     1       7.164  27.399  56.818  1.00  0.00     0.030 A 
HETATM    4  C   UNL     1       6.452  27.938  55.755  1.00  0.00     0.063 A 
HETATM    5  N   UNL     1       6.226  26.893  54.904  1.00  0.00    -0.277 N 
HETATM    6  H   UNL     1       5.730  26.917  54.020  1.00  0.00     0.189 HD
HETATM    7  N   UNL     1       6.730  25.718  55.316  1.00  0.00    -0.168 NA
HETATM    8  C   UNL     1       7.316  26.015  56.500  1.00  0.00     0.156 A 
HETATM    9  C   UNL     1       6.098  29.286  55.679  1.00  0.00     0.034 A 
HETATM   10  C   UNL     1       6.493  30.106  56.744  1.00  0.00     0.032 A 
ENDROOT
BRANCH   1  11
HETATM   11  N   UNL     1       7.546  30.532  58.853  1.00  0.00    -0.327 N 
HETATM   12  C   UNL     1       8.712  31.273  58.967  1.00  0.00     0.222 C 
HETATM   13  O   UNL     1       9.674  31.234  58.209  1.00  0.00    -0.273 OA
HETATM   14  H   UNL     1       6.864  30.650  59.591  1.00  0.00     0.169 HD
BRANCH  12  15
HETATM   15  C   UNL     1       8.687  32.163  60.201  1.00  0.00     0.112 C 
BRANCH  15  16
HETATM   16  C   UNL     1       8.072  31.475  61.433  1.00  0.00     0.023 C 
HETATM   17  C   UNL     1       9.075  30.546  62.129  1.00  0.00     0.015 C 
BRANCH  16  18
HETATM   18  C   UNL     1       7.529  32.516  62.402  1.00  0.00    -0.054 A 
HETATM   19  C   UNL     1       7.942  32.569  63.743  1.00  0.00     0.007 A 
HETATM   20  C   UNL     1       7.430  33.538  64.608  1.00  0.00     0.001 A 
HETATM   21  C   UNL     1       6.504  34.469  64.146  1.00  0.00     0.000 A 
HETATM   22  C   UNL     1       6.089  34.433  62.817  1.00  0.00     0.001 A 
HETATM   23  C   UNL     1       6.598  33.464  61.950  1.00  0.00     0.007 A 
ENDBRANCH  16  18
ENDBRANCH  15  16
ENDBRANCH  12  15
ENDBRANCH   1  11
BRANCH   8  24
HETATM   24  C   UNL     1       7.998  24.982  57.290  1.00  0.00     0.270 C 
HETATM   25  N   UNL     1       7.647  23.701  56.958  1.00  0.00    -0.365 N 
HETATM   26  H   UNL     1       6.969  23.561  56.218  1.00  0.00     0.159 HD
HETATM   27  H   UNL     1       8.067  22.927  57.446  1.00  0.00     0.159 HD
HETATM   28  O   UNL     1       8.817  25.203  58.176  1.00  0.00    -0.266 OA
ENDBRANCH   8  24
TORSDOF 5
ENDMDL
