MODEL 1
REMARK VINA RESULT:      -9.5      0.000      0.000
REMARK  8 active torsions:
REMARK  status: ('A' for Active; 'I' for Inactive)
REMARK    1  A    between atoms: C_2  and  C_3 
REMARK    2  A    between atoms: C_4  and  N_5 
REMARK       I    between atoms: N_5  and  C_6 
REMARK    3  A    between atoms: C_6  and  C_7 
REMARK    4  A    between atoms: C_7  and  N_8 
REMARK    5  A    between atoms: C_11  and  C_12 
REMARK       I    between atoms: C_12  and  N_13 
REMARK    6  A    between atoms: N_13  and  C_14 
REMARK    7  A    between atoms: C_15  and  O_16 
REMARK    8  A    between atoms: C_24  and  N_25 
ROOT
HETATM    1  N   UNL     1       7.022  26.864  55.976  1.00  0.00    -0.252 N 
HETATM    2  N   UNL     1       7.821  27.800  55.429  1.00  0.00     0.007 NA
HETATM    3  N   UNL     1       7.230  28.234  54.323  1.00  0.00    -0.151 NA
HETATM    4  C   UNL     1       6.030  27.574  54.184  1.00  0.00     0.181 A 
HETATM    5  C   UNL     1       5.854  26.727  55.265  1.00  0.00     0.130 A 
ENDROOT
BRANCH   1   6
HETATM    6  C   UNL     1       7.470  26.080  57.104  1.00  0.00     0.251 C 
BRANCH   6   7
HETATM    7  C   UNL     1       8.113  24.765  56.697  1.00  0.00     0.241 C 
HETATM    8  N   UNL     1       7.353  23.969  55.851  1.00  0.00    -0.325 N 
HETATM    9  H   UNL     1       6.445  24.336  55.578  1.00  0.00     0.169 HD
HETATM   10  O   UNL     1       9.192  24.451  57.197  1.00  0.00    -0.271 OA
BRANCH   8  11
HETATM   11  C   UNL     1       7.702  22.723  55.269  1.00  0.00     0.041 A 
HETATM   12  C   UNL     1       7.956  22.656  53.877  1.00  0.00    -0.032 A 
HETATM   13  C   UNL     1       8.330  21.423  53.303  1.00  0.00     0.009 A 
HETATM   14  C   UNL     1       8.442  20.272  54.078  1.00  0.00     0.001 A 
HETATM   15  C   UNL     1       8.183  20.337  55.439  1.00  0.00     0.002 A 
HETATM   16  C   UNL     1       7.819  21.552  56.028  1.00  0.00     0.030 A 
BRANCH  12  17
HETATM   17  C   UNL     1       7.896  23.852  52.951  1.00  0.00     0.036 C 
HETATM   18  C   UNL     1       6.465  24.213  52.579  1.00  0.00     0.010 C 
ENDBRANCH  12  17
ENDBRANCH   8  11
ENDBRANCH   6   7
ENDBRANCH   1   6
BRANCH   5  19
HETATM   19  N   UNL     1       4.878  25.838  55.593  1.00  0.00    -0.285 NA
HETATM   20  H   UNL     1       4.112  25.767  54.908  1.00  0.00     0.125 HD
HETATM   21  H   UNL     1       4.480  25.855  56.532  1.00  0.00     0.125 HD
ENDBRANCH   5  19
BRANCH   4  22
HETATM   22  C   UNL     1       5.138  27.741  53.043  1.00  0.00     0.279 C 
HETATM   23  N   UNL     1       5.807  27.724  51.839  1.00  0.00    -0.319 N 
HETATM   24  H   UNL     1       6.823  27.662  51.880  1.00  0.00     0.169 HD
HETATM   25  O   UNL     1       3.927  27.867  53.200  1.00  0.00    -0.265 OA
BRANCH  23  26
HETATM   26  C   UNL     1       5.274  27.752  50.533  1.00  0.00     0.069 A 
HETATM   27  C   UNL     1       5.434  28.947  49.802  1.00  0.00     0.095 A 
HETATM   28  C   UNL     1       4.961  29.025  48.490  1.00  0.00     0.039 A 
HETATM   29  C   UNL     1       4.324  27.927  47.905  1.00  0.00     0.009 A 
HETATM   30  C   UNL     1       4.142  26.744  48.627  1.00  0.00    -0.060 A 
HETATM   31  C   UNL     1       3.496  25.550  47.989  1.00  0.00     0.048 C 
HETATM   32  C   UNL     1       4.632  26.662  49.939  1.00  0.00     0.039 A 
BRANCH  27  33
HETATM   33  O   UNL     1       6.079  29.965  50.467  1.00  0.00    -0.354 OA
HETATM   34  C   UNL     1       5.512  31.265  50.361  1.00  0.00     0.210 C 
ENDBRANCH  27  33
ENDBRANCH  23  26
ENDBRANCH   4  22
TORSDOF 8
ENDMDL
MODEL 2
REMARK VINA RESULT:      -9.4      5.586      8.750
REMARK  8 active torsions:
REMARK  status: ('A' for Active; 'I' for Inactive)
REMARK    1  A    between atoms: C_2  and  C_3 
REMARK    2  A    between atoms: C_4  and  N_5 
REMARK       I    between atoms: N_5  and  C_6 
REMARK    3  A    between atoms: C_6  and  C_7 
REMARK    4  A    between atoms: C_7  and  N_8 
REMARK    5  A    between atoms: C_11  and  C_12 
REMARK       I    between atoms: C_12  and  N_13 
REMARK    6  A    between atoms: N_13  and  C_14 
REMARK    7  A    between atoms: C_15  and  O_16 
REMARK    8  A    between atoms: C_24  and  N_25 
ROOT
HETATM    1  N   UNL     1       6.982  28.745  56.904  1.00  0.00    -0.252 N 
HETATM    2  N   UNL     1       8.318  28.581  56.936  1.00  0.00     0.007 NA
HETATM    3  N   UNL     1       8.812  29.476  57.782  1.00  0.00    -0.151 NA
HETATM    4  C   UNL     1       7.765  30.202  58.306  1.00  0.00     0.181 A 
HETATM    5  C   UNL     1       6.577  29.712  57.793  1.00  0.00     0.130 A 
ENDROOT
BRANCH   1   6
HETATM    6  C   UNL     1       6.173  28.028  55.945  1.00  0.00     0.251 C 
BRANCH   6   7
HETATM    7  C   UNL     1       6.206  26.523  56.146  1.00  0.00     0.241 C 
HETATM    8  N   UNL     1       7.229  25.857  55.483  1.00  0.00    -0.325 N 
HETATM    9  H   UNL     1       7.861  26.432  54.932  1.00  0.00     0.169 HD
HETATM   10  O   UNL     1       5.302  25.989  56.787  1.00  0.00    -0.271 OA
BRANCH   8  11
HETATM   11  C   UNL     1       7.542  24.474  55.516  1.00  0.00     0.041 A 
HETATM   12  C   UNL     1       7.302  23.682  54.367  1.00  0.00    -0.032 A 
HETATM   13  C   UNL     1       7.638  22.312  54.390  1.00  0.00     0.009 A 
HETATM   14  C   UNL     1       8.189  21.726  55.526  1.00  0.00     0.001 A 
HETATM   15  C   UNL     1       8.414  22.500  56.654  1.00  0.00     0.002 A 
HETATM   16  C   UNL     1       8.095  23.861  56.648  1.00  0.00     0.030 A 
BRANCH  12  17
HETATM   17  C   UNL     1       6.738  24.226  53.071  1.00  0.00     0.036 C 
HETATM   18  C   UNL     1       7.833  24.728  52.141  1.00  0.00     0.010 C 
ENDBRANCH  12  17
ENDBRANCH   8  11
ENDBRANCH   6   7
ENDBRANCH   1   6
BRANCH   5  19
HETATM   19  N   UNL     1       5.279  30.087  57.950  1.00  0.00    -0.285 NA
HETATM   20  H   UNL     1       4.596  29.320  57.877  1.00  0.00     0.125 HD
HETATM   21  H   UNL     1       4.925  30.894  57.434  1.00  0.00     0.125 HD
ENDBRANCH   5  19
BRANCH   4  22
HETATM   22  C   UNL     1       7.933  31.326  59.219  1.00  0.00     0.279 C 
HETATM   23  N   UNL     1       7.108  31.243  60.320  1.00  0.00    -0.319 N 
HETATM   24  H   UNL     1       6.449  30.467  60.341  1.00  0.00     0.169 HD
HETATM   25  O   UNL     1       8.748  32.214  58.986  1.00  0.00    -0.265 OA
BRANCH  23  26
HETATM   26  C   UNL     1       7.065  32.081  61.454  1.00  0.00     0.069 A 
HETATM   27  C   UNL     1       7.737  31.630  62.609  1.00  0.00     0.095 A 
HETATM   28  C   UNL     1       7.762  32.430  63.753  1.00  0.00     0.039 A 
HETATM   29  C   UNL     1       7.116  33.670  63.759  1.00  0.00     0.009 A 
HETATM   30  C   UNL     1       6.429  34.118  62.626  1.00  0.00    -0.060 A 
HETATM   31  C   UNL     1       5.771  35.466  62.615  1.00  0.00     0.048 C 
HETATM   32  C   UNL     1       6.419  33.320  61.473  1.00  0.00     0.039 A 
BRANCH  27  33
HETATM   33  O   UNL     1       8.344  30.400  62.496  1.00  0.00    -0.354 OA
HETATM   34  C   UNL     1       9.726  30.391  62.160  1.00  0.00     0.210 C 
ENDBRANCH  27  33
ENDBRANCH  23  26
ENDBRANCH   4  22
TORSDOF 8
ENDMDL
MODEL 3
REMARK VINA RESULT:      -9.4      5.385      8.954
REMARK  8 active torsions:
REMARK  status: ('A' for Active; 'I' for Inactive)
REMARK    1  A    between atoms: C_2  and  C_3 
REMARK    2  A    between atoms: C_4  and  N_5 
REMARK       I    between atoms: N_5  and  C_6 
REMARK    3  A    between atoms: C_6  and  C_7 
REMARK    4  A    between atoms: C_7  and  N_8 
REMARK    5  A    between atoms: C_11  and  C_12 
REMARK       I    between atoms: C_12  and  N_13 
REMARK    6  A    between atoms: N_13  and  C_14 
REMARK    7  A    between atoms: C_15  and  O_16 
REMARK    8  A    between atoms: C_24  and  N_25 
ROOT
HETATM    1  N   UNL     1       6.484  29.965  58.011  1.00  0.00    -0.252 N 
HETATM    2  N   UNL     1       7.768  30.036  58.410  1.00  0.00     0.007 NA
HETATM    3  N   UNL     1       8.323  28.852  58.186  1.00  0.00    -0.151 NA
HETATM    4  C   UNL     1       7.377  28.029  57.617  1.00  0.00     0.181 A 
HETATM    5  C   UNL     1       6.203  28.743  57.449  1.00  0.00     0.130 A 
ENDROOT
BRANCH   1   6
HETATM    6  C   UNL     1       5.566  31.048  58.282  1.00  0.00     0.251 C 
BRANCH   6   7
HETATM    7  C   UNL     1       6.071  32.004  59.348  1.00  0.00     0.241 C 
HETATM    8  N   UNL     1       5.930  31.563  60.657  1.00  0.00    -0.325 N 
HETATM    9  H   UNL     1       5.510  30.646  60.784  1.00  0.00     0.169 HD
HETATM   10  O   UNL     1       6.476  33.115  59.007  1.00  0.00    -0.271 OA
BRANCH   8  11
HETATM   11  C   UNL     1       6.347  32.207  61.850  1.00  0.00     0.041 A 
HETATM   12  C   UNL     1       7.656  31.977  62.339  1.00  0.00    -0.032 A 
HETATM   13  C   UNL     1       8.082  32.638  63.510  1.00  0.00     0.009 A 
HETATM   14  C   UNL     1       7.234  33.501  64.198  1.00  0.00     0.001 A 
HETATM   15  C   UNL     1       5.948  33.718  63.724  1.00  0.00     0.002 A 
HETATM   16  C   UNL     1       5.511  33.078  62.560  1.00  0.00     0.030 A 
BRANCH  12  17
HETATM   17  C   UNL     1       8.668  31.085  61.651  1.00  0.00     0.036 C 
HETATM   18  C   UNL     1       9.705  31.889  60.881  1.00  0.00     0.010 C 
ENDBRANCH  12  17
ENDBRANCH   8  11
ENDBRANCH   6   7
ENDBRANCH   1   6
BRANCH   5  19
HETATM   19  N   UNL     1       4.974  28.401  56.976  1.00  0.00    -0.285 NA
HETATM   20  H   UNL     1       4.183  28.821  57.486  1.00  0.00     0.125 HD
HETATM   21  H   UNL     1       4.763  27.419  56.794  1.00  0.00     0.125 HD
ENDBRANCH   5  19
BRANCH   4  22
HETATM   22  C   UNL     1       7.607  26.625  57.298  1.00  0.00     0.279 C 
HETATM   23  N   UNL     1       7.245  26.308  56.008  1.00  0.00    -0.319 N 
HETATM   24  H   UNL     1       6.811  27.048  55.458  1.00  0.00     0.169 HD
HETATM   25  O   UNL     1       8.087  25.859  58.128  1.00  0.00    -0.265 OA
BRANCH  23  26
HETATM   26  C   UNL     1       7.417  25.089  55.317  1.00  0.00     0.069 A 
HETATM   27  C   UNL     1       7.565  25.162  53.917  1.00  0.00     0.095 A 
HETATM   28  C   UNL     1       7.776  23.994  53.181  1.00  0.00     0.039 A 
HETATM   29  C   UNL     1       7.831  22.755  53.827  1.00  0.00     0.009 A 
HETATM   30  C   UNL     1       7.664  22.669  55.212  1.00  0.00    -0.060 A 
HETATM   31  C   UNL     1       7.765  21.347  55.914  1.00  0.00     0.048 C 
HETATM   32  C   UNL     1       7.469  23.845  55.952  1.00  0.00     0.039 A 
BRANCH  27  33
HETATM   33  O   UNL     1       7.501  26.428  53.381  1.00  0.00    -0.354 OA
HETATM   34  C   UNL     1       6.422  26.699  52.495  1.00  0.00     0.210 C 
ENDBRANCH  27  33
ENDBRANCH  23  26
ENDBRANCH   4  22
TORSDOF 8
ENDMDL
MODEL 4
REMARK VINA RESULT:      -9.4      5.360      8.924
REMARK  8 active torsions:
REMARK  status: ('A' for Active; 'I' for Inactive)
REMARK    1  A    between atoms: C_2  and  C_3 
REMARK    2  A    between atoms: C_4  and  N_5 
REMARK       I    between atoms: N_5  and  C_6 
REMARK    3  A    between atoms: C_6  and  C_7 
REMARK    4  A    between atoms: C_7  and  N_8 
REMARK    5  A    between atoms: C_11  and  C_12 
REMARK       I    between atoms: C_12  and  N_13 
REMARK    6  A    between atoms: N_13  and  C_14 
REMARK    7  A    between atoms: C_15  and  O_16 
REMARK    8  A    between atoms: C_24  and  N_25 
ROOT
HETATM    1  N   UNL     1       6.920  29.386  57.602  1.00  0.00    -0.252 N 
HETATM    2  N   UNL     1       7.870  28.870  58.404  1.00  0.00     0.007 NA
HETATM    3  N   UNL     1       7.924  27.564  58.172  1.00  0.00    -0.151 NA
HETATM    4  C   UNL     1       7.005  27.259  57.192  1.00  0.00     0.181 A 
HETATM    5  C   UNL     1       6.387  28.426  56.776  1.00  0.00     0.130 A 
ENDROOT
BRANCH   1   6
HETATM    6  C   UNL     1       6.506  30.764  57.741  1.00  0.00     0.251 C 
BRANCH   6   7
HETATM    7  C   UNL     1       7.179  31.473  58.903  1.00  0.00     0.241 C 
HETATM    8  N   UNL     1       6.433  31.535  60.073  1.00  0.00    -0.325 N 
HETATM    9  H   UNL     1       5.515  31.099  60.050  1.00  0.00     0.169 HD
HETATM   10  O   UNL     1       8.268  32.014  58.719  1.00  0.00    -0.271 OA
BRANCH   8  11
HETATM   11  C   UNL     1       6.810  32.084  61.326  1.00  0.00     0.041 A 
HETATM   12  C   UNL     1       6.109  33.209  61.827  1.00  0.00    -0.032 A 
HETATM   13  C   UNL     1       6.465  33.739  63.085  1.00  0.00     0.009 A 
HETATM   14  C   UNL     1       7.499  33.184  63.833  1.00  0.00     0.001 A 
HETATM   15  C   UNL     1       8.192  32.090  63.337  1.00  0.00     0.002 A 
HETATM   16  C   UNL     1       7.848  31.545  62.096  1.00  0.00     0.030 A 
BRANCH  12  17
HETATM   17  C   UNL     1       4.949  33.867  61.110  1.00  0.00     0.036 C 
HETATM   18  C   UNL     1       3.634  33.660  61.847  1.00  0.00     0.010 C 
ENDBRANCH  12  17
ENDBRANCH   8  11
ENDBRANCH   6   7
ENDBRANCH   1   6
BRANCH   5  19
HETATM   19  N   UNL     1       5.397  28.676  55.877  1.00  0.00    -0.285 NA
HETATM   20  H   UNL     1       5.054  27.847  55.371  1.00  0.00     0.125 HD
HETATM   21  H   UNL     1       5.506  29.445  55.214  1.00  0.00     0.125 HD
ENDBRANCH   5  19
BRANCH   4  22
HETATM   22  C   UNL     1       6.732  25.904  56.728  1.00  0.00     0.279 C 
HETATM   23  N   UNL     1       7.568  25.515  55.704  1.00  0.00    -0.319 N 
HETATM   24  H   UNL     1       8.220  26.215  55.354  1.00  0.00     0.169 HD
HETATM   25  O   UNL     1       5.847  25.226  57.241  1.00  0.00    -0.265 OA
BRANCH  23  26
HETATM   26  C   UNL     1       7.671  24.253  55.081  1.00  0.00     0.069 A 
HETATM   27  C   UNL     1       7.814  24.243  53.678  1.00  0.00     0.095 A 
HETATM   28  C   UNL     1       7.958  23.027  53.006  1.00  0.00     0.039 A 
HETATM   29  C   UNL     1       7.951  21.824  53.717  1.00  0.00     0.009 A 
HETATM   30  C   UNL     1       7.789  21.822  55.106  1.00  0.00    -0.060 A 
HETATM   31  C   UNL     1       7.824  20.536  55.877  1.00  0.00     0.048 C 
HETATM   32  C   UNL     1       7.661  23.044  55.781  1.00  0.00     0.039 A 
BRANCH  27  33
HETATM   33  O   UNL     1       7.813  25.480  53.075  1.00  0.00    -0.354 OA
HETATM   34  C   UNL     1       6.778  25.737  52.134  1.00  0.00     0.210 C 
ENDBRANCH  27  33
ENDBRANCH  23  26
ENDBRANCH   4  22
TORSDOF 8
ENDMDL
MODEL 5
REMARK VINA RESULT:      -9.3      3.757      7.011
REMARK  8 active torsions:
REMARK  status: ('A' for Active; 'I' for Inactive)
REMARK    1  A    between atoms: C_2  and  C_3 
REMARK    2  A    between atoms: C_4  and  N_5 
REMARK       I    between atoms: N_5  and  C_6 
REMARK    3  A    between atoms: C_6  and  C_7 
REMARK    4  A    between atoms: C_7  and  N_8 
REMARK    5  A    between atoms: C_11  and  C_12 
REMARK       I    between atoms: C_12  and  N_13 
REMARK    6  A    between atoms: N_13  and  C_14 
REMARK    7  A    between atoms: C_15  and  O_16 
REMARK    8  A    between atoms: C_24  and  N_25 
ROOT
HETATM    1  N   UNL     1       6.318  27.046  54.264  1.00  0.00    -0.252 N 
HETATM    2  N   UNL     1       5.353  26.602  55.091  1.00  0.00     0.007 NA
HETATM    3  N   UNL     1       5.651  27.017  56.316  1.00  0.00    -0.151 NA
HETATM    4  C   UNL     1       6.814  27.753  56.253  1.00  0.00     0.181 A 
HETATM    5  C   UNL     1       7.229  27.827  54.935  1.00  0.00     0.130 A 
ENDROOT
BRANCH   1   6
HETATM    6  C   UNL     1       6.366  26.614  52.886  1.00  0.00     0.251 C 
BRANCH   6   7
HETATM    7  C   UNL     1       7.009  25.249  52.712  1.00  0.00     0.241 C 
HETATM    8  N   UNL     1       7.011  24.445  53.844  1.00  0.00    -0.325 N 
HETATM    9  H   UNL     1       6.583  24.836  54.679  1.00  0.00     0.169 HD
HETATM   10  O   UNL     1       7.553  24.981  51.642  1.00  0.00    -0.271 OA
BRANCH   8  11
HETATM   11  C   UNL     1       7.491  23.116  53.975  1.00  0.00     0.041 A 
HETATM   12  C   UNL     1       7.771  22.606  55.267  1.00  0.00    -0.032 A 
HETATM   13  C   UNL     1       8.221  21.276  55.400  1.00  0.00     0.009 A 
HETATM   14  C   UNL     1       8.407  20.463  54.286  1.00  0.00     0.001 A 
HETATM   15  C   UNL     1       8.142  20.967  53.021  1.00  0.00     0.002 A 
HETATM   16  C   UNL     1       7.686  22.281  52.868  1.00  0.00     0.030 A 
BRANCH  12  17
HETATM   17  C   UNL     1       7.572  23.393  56.545  1.00  0.00     0.036 C 
HETATM   18  C   UNL     1       8.806  24.205  56.911  1.00  0.00     0.010 C 
ENDBRANCH  12  17
ENDBRANCH   8  11
ENDBRANCH   6   7
ENDBRANCH   1   6
BRANCH   5  19
HETATM   19  N   UNL     1       8.315  28.391  54.339  1.00  0.00    -0.285 NA
HETATM   20  H   UNL     1       8.207  28.574  53.331  1.00  0.00     0.125 HD
HETATM   21  H   UNL     1       9.240  27.992  54.504  1.00  0.00     0.125 HD
ENDBRANCH   5  19
BRANCH   4  22
HETATM   22  C   UNL     1       7.485  28.311  57.421  1.00  0.00     0.279 C 
HETATM   23  N   UNL     1       7.651  29.676  57.336  1.00  0.00    -0.319 N 
HETATM   24  H   UNL     1       7.355  30.121  56.469  1.00  0.00     0.169 HD
HETATM   25  O   UNL     1       7.831  27.593  58.355  1.00  0.00    -0.265 OA
BRANCH  23  26
HETATM   26  C   UNL     1       8.158  30.566  58.307  1.00  0.00     0.069 A 
HETATM   27  C   UNL     1       9.481  31.021  58.131  1.00  0.00     0.095 A 
HETATM   28  C   UNL     1      10.026  31.931  59.038  1.00  0.00     0.039 A 
HETATM   29  C   UNL     1       9.270  32.384  60.123  1.00  0.00     0.009 A 
HETATM   30  C   UNL     1       7.964  31.923  60.319  1.00  0.00    -0.060 A 
HETATM   31  C   UNL     1       7.135  32.439  61.458  1.00  0.00     0.048 C 
HETATM   32  C   UNL     1       7.412  31.022  59.398  1.00  0.00     0.039 A 
BRANCH  27  33
HETATM   33  O   UNL     1      10.136  30.519  57.030  1.00  0.00    -0.354 OA
HETATM   34  C   UNL     1      11.332  29.787  57.270  1.00  0.00     0.210 C 
ENDBRANCH  27  33
ENDBRANCH  23  26
ENDBRANCH   4  22
TORSDOF 8
ENDMDL
MODEL 6
REMARK VINA RESULT:      -9.2      6.029      9.259
REMARK  8 active torsions:
REMARK  status: ('A' for Active; 'I' for Inactive)
REMARK    1  A    between atoms: C_2  and  C_3 
REMARK    2  A    between atoms: C_4  and  N_5 
REMARK       I    between atoms: N_5  and  C_6 
REMARK    3  A    between atoms: C_6  and  C_7 
REMARK    4  A    between atoms: C_7  and  N_8 
REMARK    5  A    between atoms: C_11  and  C_12 
REMARK       I    between atoms: C_12  and  N_13 
REMARK    6  A    between atoms: N_13  and  C_14 
REMARK    7  A    between atoms: C_15  and  O_16 
REMARK    8  A    between atoms: C_24  and  N_25 
ROOT
HETATM    1  N   UNL     1       5.729  31.348  58.459  1.00  0.00    -0.252 N 
HETATM    2  N   UNL     1       6.980  31.840  58.536  1.00  0.00     0.007 NA
HETATM    3  N   UNL     1       7.809  30.899  58.101  1.00  0.00    -0.151 NA
HETATM    4  C   UNL     1       7.063  29.804  57.725  1.00  0.00     0.181 A 
HETATM    5  C   UNL     1       5.721  30.093  57.898  1.00  0.00     0.130 A 
ENDROOT
BRANCH   1   6
HETATM    6  C   UNL     1       4.614  32.075  59.020  1.00  0.00     0.251 C 
BRANCH   6   7
HETATM    7  C   UNL     1       4.973  32.830  60.288  1.00  0.00     0.241 C 
HETATM    8  N   UNL     1       5.579  32.071  61.280  1.00  0.00    -0.325 N 
HETATM    9  H   UNL     1       5.731  31.088  61.070  1.00  0.00     0.169 HD
HETATM   10  O   UNL     1       4.634  34.008  60.395  1.00  0.00    -0.271 OA
BRANCH   8  11
HETATM   11  C   UNL     1       6.066  32.502  62.541  1.00  0.00     0.041 A 
HETATM   12  C   UNL     1       7.463  32.511  62.777  1.00  0.00    -0.032 A 
HETATM   13  C   UNL     1       7.949  32.966  64.020  1.00  0.00     0.009 A 
HETATM   14  C   UNL     1       7.081  33.393  65.020  1.00  0.00     0.001 A 
HETATM   15  C   UNL     1       5.713  33.375  64.792  1.00  0.00     0.002 A 
HETATM   16  C   UNL     1       5.212  32.935  63.563  1.00  0.00     0.030 A 
BRANCH  12  17
HETATM   17  C   UNL     1       8.494  32.099  61.747  1.00  0.00     0.036 C 
HETATM   18  C   UNL     1       9.007  30.687  61.989  1.00  0.00     0.010 C 
ENDBRANCH  12  17
ENDBRANCH   8  11
ENDBRANCH   6   7
ENDBRANCH   1   6
BRANCH   5  19
HETATM   19  N   UNL     1       4.588  29.361  57.717  1.00  0.00    -0.285 NA
HETATM   20  H   UNL     1       3.748  29.746  58.173  1.00  0.00     0.125 HD
HETATM   21  H   UNL     1       4.613  28.353  57.872  1.00  0.00     0.125 HD
ENDBRANCH   5  19
BRANCH   4  22
HETATM   22  C   UNL     1       7.641  28.548  57.262  1.00  0.00     0.279 C 
HETATM   23  N   UNL     1       6.861  27.922  56.315  1.00  0.00    -0.319 N 
HETATM   24  H   UNL     1       5.967  28.358  56.096  1.00  0.00     0.169 HD
HETATM   25  O   UNL     1       8.717  28.149  57.698  1.00  0.00    -0.265 OA
BRANCH  23  26
HETATM   26  C   UNL     1       7.143  26.756  55.571  1.00  0.00     0.069 A 
HETATM   27  C   UNL     1       7.201  26.891  54.168  1.00  0.00     0.095 A 
HETATM   28  C   UNL     1       7.512  25.782  53.379  1.00  0.00     0.039 A 
HETATM   29  C   UNL     1       7.755  24.540  53.973  1.00  0.00     0.009 A 
HETATM   30  C   UNL     1       7.679  24.391  55.361  1.00  0.00    -0.060 A 
HETATM   31  C   UNL     1       7.981  23.070  56.005  1.00  0.00     0.048 C 
HETATM   32  C   UNL     1       7.383  25.509  56.154  1.00  0.00     0.039 A 
BRANCH  27  33
HETATM   33  O   UNL     1       6.952  28.155  53.685  1.00  0.00    -0.354 OA
HETATM   34  C   UNL     1       6.121  28.253  52.535  1.00  0.00     0.210 C 
ENDBRANCH  27  33
ENDBRANCH  23  26
ENDBRANCH   4  22
TORSDOF 8
ENDMDL
MODEL 7
REMARK VINA RESULT:      -9.2      5.771      8.491
REMARK  8 active torsions:
REMARK  status: ('A' for Active; 'I' for Inactive)
REMARK    1  A    between atoms: C_2  and  C_3 
REMARK    2  A    between atoms: C_4  and  N_5 
REMARK       I    between atoms: N_5  and  C_6 
REMARK    3  A    between atoms: C_6  and  C_7 
REMARK    4  A    between atoms: C_7  and  N_8 
REMARK    5  A    between atoms: C_11  and  C_12 
REMARK       I    between atoms: C_12  and  N_13 
REMARK    6  A    between atoms: N_13  and  C_14 
REMARK    7  A    between atoms: C_15  and  O_16 
REMARK    8  A    between atoms: C_24  and  N_25 
ROOT
HETATM    1  N   UNL     1       7.127  28.865  56.894  1.00  0.00    -0.252 N 
HETATM    2  N   UNL     1       8.333  28.498  57.365  1.00  0.00     0.007 NA
HETATM    3  N   UNL     1       8.695  29.389  58.280  1.00  0.00    -0.151 NA
HETATM    4  C   UNL     1       7.688  30.321  58.400  1.00  0.00     0.181 A 
HETATM    5  C   UNL     1       6.649  29.971  57.555  1.00  0.00     0.130 A 
ENDROOT
BRANCH   1   6
HETATM    6  C   UNL     1       6.539  28.186  55.762  1.00  0.00     0.251 C 
BRANCH   6   7
HETATM    7  C   UNL     1       6.427  26.685  55.960  1.00  0.00     0.241 C 
HETATM    8  N   UNL     1       7.473  25.937  55.436  1.00  0.00    -0.325 N 
HETATM    9  H   UNL     1       8.216  26.456  54.975  1.00  0.00     0.169 HD
HETATM   10  O   UNL     1       5.407  26.227  56.474  1.00  0.00    -0.271 OA
BRANCH   8  11
HETATM   11  C   UNL     1       7.670  24.534  55.506  1.00  0.00     0.041 A 
HETATM   12  C   UNL     1       7.326  23.730  54.392  1.00  0.00    -0.032 A 
HETATM   13  C   UNL     1       7.547  22.338  54.450  1.00  0.00     0.009 A 
HETATM   14  C   UNL     1       8.085  21.742  55.587  1.00  0.00     0.001 A 
HETATM   15  C   UNL     1       8.412  22.528  56.682  1.00  0.00     0.002 A 
HETATM   16  C   UNL     1       8.208  23.911  56.640  1.00  0.00     0.030 A 
BRANCH  12  17
HETATM   17  C   UNL     1       6.767  24.281  53.096  1.00  0.00     0.036 C 
HETATM   18  C   UNL     1       7.868  24.720  52.142  1.00  0.00     0.010 C 
ENDBRANCH  12  17
ENDBRANCH   8  11
ENDBRANCH   6   7
ENDBRANCH   1   6
BRANCH   5  19
HETATM   19  N   UNL     1       5.457  30.560  57.264  1.00  0.00    -0.285 NA
HETATM   20  H   UNL     1       4.864  30.033  56.608  1.00  0.00     0.125 HD
HETATM   21  H   UNL     1       5.436  31.548  57.007  1.00  0.00     0.125 HD
ENDBRANCH   5  19
BRANCH   4  22
HETATM   22  C   UNL     1       7.766  31.495  59.262  1.00  0.00     0.279 C 
HETATM   23  N   UNL     1       6.666  31.624  60.082  1.00  0.00    -0.319 N 
HETATM   24  H   UNL     1       5.917  30.946  59.956  1.00  0.00     0.169 HD
HETATM   25  O   UNL     1       8.738  32.244  59.224  1.00  0.00    -0.265 OA
BRANCH  23  26
HETATM   26  C   UNL     1       6.439  32.564  61.110  1.00  0.00     0.069 A 
HETATM   27  C   UNL     1       5.453  33.544  60.875  1.00  0.00     0.095 A 
HETATM   28  C   UNL     1       5.155  34.479  61.868  1.00  0.00     0.039 A 
HETATM   29  C   UNL     1       5.837  34.452  63.088  1.00  0.00     0.009 A 
HETATM   30  C   UNL     1       6.831  33.498  63.324  1.00  0.00    -0.060 A 
HETATM   31  C   UNL     1       7.536  33.439  64.647  1.00  0.00     0.048 C 
HETATM   32  C   UNL     1       7.118  32.549  62.332  1.00  0.00     0.039 A 
BRANCH  27  33
HETATM   33  O   UNL     1       4.838  33.479  59.645  1.00  0.00    -0.354 OA
HETATM   34  C   UNL     1       3.424  33.635  59.623  1.00  0.00     0.210 C 
ENDBRANCH  27  33
ENDBRANCH  23  26
ENDBRANCH   4  22
TORSDOF 8
ENDMDL
MODEL 8
REMARK VINA RESULT:      -9.1      4.156      8.002
REMARK  8 active torsions:
REMARK  status: ('A' for Active; 'I' for Inactive)
REMARK    1  A    between atoms: C_2  and  C_3 
REMARK    2  A    between atoms: C_4  and  N_5 
REMARK       I    between atoms: N_5  and  C_6 
REMARK    3  A    between atoms: C_6  and  C_7 
REMARK    4  A    between atoms: C_7  and  N_8 
REMARK    5  A    between atoms: C_11  and  C_12 
REMARK       I    between atoms: C_12  and  N_13 
REMARK    6  A    between atoms: N_13  and  C_14 
REMARK    7  A    between atoms: C_15  and  O_16 
REMARK    8  A    between atoms: C_24  and  N_25 
ROOT
HETATM    1  N   UNL     1       5.647  29.366  56.337  1.00  0.00    -0.252 N 
HETATM    2  N   UNL     1       6.975  29.279  56.134  1.00  0.00     0.007 NA
HETATM    3  N   UNL     1       7.271  27.997  55.964  1.00  0.00    -0.151 NA
HETATM    4  C   UNL     1       6.105  27.268  56.042  1.00  0.00     0.181 A 
HETATM    5  C   UNL     1       5.044  28.136  56.229  1.00  0.00     0.130 A 
ENDROOT
BRANCH   1   6
HETATM    6  C   UNL     1       5.040  30.620  56.722  1.00  0.00     0.251 C 
BRANCH   6   7
HETATM    7  C   UNL     1       5.911  31.441  57.657  1.00  0.00     0.241 C 
HETATM    8  N   UNL     1       6.581  30.715  58.634  1.00  0.00    -0.325 N 
HETATM    9  H   UNL     1       6.434  29.709  58.632  1.00  0.00     0.169 HD
HETATM   10  O   UNL     1       5.899  32.667  57.557  1.00  0.00    -0.271 OA
BRANCH   8  11
HETATM   11  C   UNL     1       7.493  31.193  59.609  1.00  0.00     0.041 A 
HETATM   12  C   UNL     1       8.883  31.003  59.409  1.00  0.00    -0.032 A 
HETATM   13  C   UNL     1       9.792  31.501  60.365  1.00  0.00     0.009 A 
HETATM   14  C   UNL     1       9.347  32.164  61.505  1.00  0.00     0.001 A 
HETATM   15  C   UNL     1       7.986  32.341  61.705  1.00  0.00     0.002 A 
HETATM   16  C   UNL     1       7.069  31.862  60.765  1.00  0.00     0.030 A 
BRANCH  12  17
HETATM   17  C   UNL     1       9.473  30.325  58.190  1.00  0.00     0.036 C 
HETATM   18  C   UNL     1      10.851  30.873  57.847  1.00  0.00     0.010 C 
ENDBRANCH  12  17
ENDBRANCH   8  11
ENDBRANCH   6   7
ENDBRANCH   1   6
BRANCH   5  19
HETATM   19  N   UNL     1       3.709  27.938  56.405  1.00  0.00    -0.285 NA
HETATM   20  H   UNL     1       3.284  28.504  57.154  1.00  0.00     0.125 HD
HETATM   21  H   UNL     1       3.348  26.986  56.467  1.00  0.00     0.125 HD
ENDBRANCH   5  19
BRANCH   4  22
HETATM   22  C   UNL     1       6.051  25.812  55.974  1.00  0.00     0.279 C 
HETATM   23  N   UNL     1       7.001  25.285  55.127  1.00  0.00    -0.319 N 
HETATM   24  H   UNL     1       7.574  25.949  54.610  1.00  0.00     0.169 HD
HETATM   25  O   UNL     1       5.233  25.178  56.635  1.00  0.00    -0.265 OA
BRANCH  23  26
HETATM   26  C   UNL     1       7.317  23.930  54.890  1.00  0.00     0.069 A 
HETATM   27  C   UNL     1       7.201  23.469  53.563  1.00  0.00     0.095 A 
HETATM   28  C   UNL     1       7.535  22.147  53.257  1.00  0.00     0.039 A 
HETATM   29  C   UNL     1       7.973  21.281  54.263  1.00  0.00     0.009 A 
HETATM   30  C   UNL     1       8.072  21.722  55.586  1.00  0.00    -0.060 A 
HETATM   31  C   UNL     1       8.582  20.808  56.661  1.00  0.00     0.048 C 
HETATM   32  C   UNL     1       7.752  23.054  55.889  1.00  0.00     0.039 A 
BRANCH  27  33
HETATM   33  O   UNL     1       6.766  24.401  52.649  1.00  0.00    -0.354 OA
HETATM   34  C   UNL     1       7.756  25.005  51.824  1.00  0.00     0.210 C 
ENDBRANCH  27  33
ENDBRANCH  23  26
ENDBRANCH   4  22
TORSDOF 8
ENDMDL
MODEL 9
REMARK VINA RESULT:      -9.1      5.235      8.189
REMARK  8 active torsions:
REMARK  status: ('A' for Active; 'I' for Inactive)
REMARK    1  A    between atoms: C_2  and  C_3 
REMARK    2  A    between atoms: C_4  and  N_5 
REMARK       I    between atoms: N_5  and  C_6 
REMARK    3  A    between atoms: C_6  and  C_7 
REMARK    4  A    between atoms: C_7  and  N_8 
REMARK    5  A    between atoms: C_11  and  C_12 
REMARK       I    between atoms: C_12  and  N_13 
REMARK    6  A    between atoms: N_13  and  C_14 
REMARK    7  A    between atoms: C_15  and  O_16 
REMARK    8  A    between atoms: C_24  and  N_25 
ROOT
HETATM    1  N   UNL     1       7.129  28.595  56.058  1.00  0.00    -0.252 N 
HETATM    2  N   UNL     1       7.962  27.839  56.797  1.00  0.00     0.007 NA
HETATM    3  N   UNL     1       8.317  28.554  57.858  1.00  0.00    -0.151 NA
HETATM    4  C   UNL     1       7.677  29.773  57.793  1.00  0.00     0.181 A 
HETATM    5  C   UNL     1       6.868  29.797  56.670  1.00  0.00     0.130 A 
ENDROOT
BRANCH   1   6
HETATM    6  C   UNL     1       6.702  28.156  54.749  1.00  0.00     0.251 C 
BRANCH   6   7
HETATM    7  C   UNL     1       6.463  26.658  54.670  1.00  0.00     0.241 C 
HETATM    8  N   UNL     1       7.575  25.896  54.338  1.00  0.00    -0.325 N 
HETATM    9  H   UNL     1       8.443  26.403  54.183  1.00  0.00     0.169 HD
HETATM   10  O   UNL     1       5.318  26.231  54.810  1.00  0.00    -0.271 OA
BRANCH   8  11
HETATM   11  C   UNL     1       7.673  24.485  54.237  1.00  0.00     0.041 A 
HETATM   12  C   UNL     1       7.681  23.705  55.420  1.00  0.00    -0.032 A 
HETATM   13  C   UNL     1       7.750  22.300  55.320  1.00  0.00     0.009 A 
HETATM   14  C   UNL     1       7.824  21.669  54.082  1.00  0.00     0.001 A 
HETATM   15  C   UNL     1       7.827  22.434  52.924  1.00  0.00     0.002 A 
HETATM   16  C   UNL     1       7.750  23.828  53.002  1.00  0.00     0.030 A 
BRANCH  12  17
HETATM   17  C   UNL     1       7.571  24.288  56.814  1.00  0.00     0.036 C 
HETATM   18  C   UNL     1       8.932  24.438  57.477  1.00  0.00     0.010 C 
ENDBRANCH  12  17
ENDBRANCH   8  11
ENDBRANCH   6   7
ENDBRANCH   1   6
BRANCH   5  19
HETATM   19  N   UNL     1       6.068  30.755  56.129  1.00  0.00    -0.285 NA
HETATM   20  H   UNL     1       5.355  31.133  56.769  1.00  0.00     0.125 HD
HETATM   21  H   UNL     1       5.640  30.594  55.217  1.00  0.00     0.125 HD
ENDBRANCH   5  19
BRANCH   4  22
HETATM   22  C   UNL     1       7.882  30.849  58.755  1.00  0.00     0.279 C 
HETATM   23  N   UNL     1       6.720  31.213  59.400  1.00  0.00    -0.319 N 
HETATM   24  H   UNL     1       5.864  30.751  59.098  1.00  0.00     0.169 HD
HETATM   25  O   UNL     1       8.997  31.332  58.936  1.00  0.00    -0.265 OA
BRANCH  23  26
HETATM   26  C   UNL     1       6.549  32.133  60.456  1.00  0.00     0.069 A 
HETATM   27  C   UNL     1       5.548  33.113  60.295  1.00  0.00     0.095 A 
HETATM   28  C   UNL     1       5.305  34.029  61.321  1.00  0.00     0.039 A 
HETATM   29  C   UNL     1       6.055  33.982  62.499  1.00  0.00     0.009 A 
HETATM   30  C   UNL     1       7.064  33.028  62.661  1.00  0.00    -0.060 A 
HETATM   31  C   UNL     1       7.842  32.947  63.941  1.00  0.00     0.048 C 
HETATM   32  C   UNL     1       7.296  32.098  61.637  1.00  0.00     0.039 A 
BRANCH  27  33
HETATM   33  O   UNL     1       4.865  33.069  59.102  1.00  0.00    -0.354 OA
HETATM   34  C   UNL     1       3.512  33.510  59.117  1.00  0.00     0.210 C 
ENDBRANCH  27  33
ENDBRANCH  23  26
ENDBRANCH   4  22
TORSDOF 8
ENDMDL
MODEL 10
REMARK VINA RESULT:      -9.0      4.039      7.306
REMARK  8 active torsions:
REMARK  status: ('A' for Active; 'I' for Inactive)
REMARK    1  A    between atoms: C_2  and  C_3 
REMARK    2  A    between atoms: C_4  and  N_5 
REMARK       I    between atoms: N_5  and  C_6 
REMARK    3  A    between atoms: C_6  and  C_7 
REMARK    4  A    between atoms: C_7  and  N_8 
REMARK    5  A    between atoms: C_11  and  C_12 
REMARK       I    between atoms: C_12  and  N_13 
REMARK    6  A    between atoms: N_13  and  C_14 
REMARK    7  A    between atoms: C_15  and  O_16 
REMARK    8  A    between atoms: C_24  and  N_25 
ROOT
HETATM    1  N   UNL     1       6.389  27.493  54.378  1.00  0.00    -0.252 N 
HETATM    2  N   UNL     1       5.477  27.362  55.360  1.00  0.00     0.007 NA
HETATM    3  N   UNL     1       5.919  28.040  56.411  1.00  0.00    -0.151 NA
HETATM    4  C   UNL     1       7.121  28.625  56.077  1.00  0.00     0.181 A 
HETATM    5  C   UNL     1       7.413  28.327  54.757  1.00  0.00     0.130 A 
ENDROOT
BRANCH   1   6
HETATM    6  C   UNL     1       6.274  26.729  53.158  1.00  0.00     0.251 C 
BRANCH   6   7
HETATM    7  C   UNL     1       6.179  25.232  53.399  1.00  0.00     0.241 C 
HETATM    8  N   UNL     1       7.382  24.598  53.677  1.00  0.00    -0.325 N 
HETATM    9  H   UNL     1       8.211  25.186  53.699  1.00  0.00     0.169 HD
HETATM   10  O   UNL     1       5.093  24.673  53.248  1.00  0.00    -0.271 OA
BRANCH   8  11
HETATM   11  C   UNL     1       7.602  23.232  53.990  1.00  0.00     0.041 A 
HETATM   12  C   UNL     1       7.676  22.836  55.348  1.00  0.00    -0.032 A 
HETATM   13  C   UNL     1       7.866  21.474  55.661  1.00  0.00     0.009 A 
HETATM   14  C   UNL     1       7.996  20.517  54.659  1.00  0.00     0.001 A 
HETATM   15  C   UNL     1       7.934  20.907  53.329  1.00  0.00     0.002 A 
HETATM   16  C   UNL     1       7.736  22.251  52.999  1.00  0.00     0.030 A 
BRANCH  12  17
HETATM   17  C   UNL     1       7.515  23.790  56.514  1.00  0.00     0.036 C 
HETATM   18  C   UNL     1       8.854  24.324  57.000  1.00  0.00     0.010 C 
ENDBRANCH  12  17
ENDBRANCH   8  11
ENDBRANCH   6   7
ENDBRANCH   1   6
BRANCH   5  19
HETATM   19  N   UNL     1       8.475  28.619  53.958  1.00  0.00    -0.285 NA
HETATM   20  H   UNL     1       8.700  29.622  53.889  1.00  0.00     0.125 HD
HETATM   21  H   UNL     1       8.531  28.205  53.027  1.00  0.00     0.125 HD
ENDBRANCH   5  19
BRANCH   4  22
HETATM   22  C   UNL     1       7.939  29.391  57.009  1.00  0.00     0.279 C 
HETATM   23  N   UNL     1       7.195  29.981  58.007  1.00  0.00    -0.319 N 
HETATM   24  H   UNL     1       6.184  29.875  57.949  1.00  0.00     0.169 HD
HETATM   25  O   UNL     1       9.158  29.455  56.876  1.00  0.00    -0.265 OA
BRANCH  23  26
HETATM   26  C   UNL     1       7.645  30.703  59.133  1.00  0.00     0.069 A 
HETATM   27  C   UNL     1       7.154  32.015  59.290  1.00  0.00     0.095 A 
HETATM   28  C   UNL     1       7.533  32.767  60.404  1.00  0.00     0.039 A 
HETATM   29  C   UNL     1       8.402  32.227  61.356  1.00  0.00     0.009 A 
HETATM   30  C   UNL     1       8.910  30.934  61.200  1.00  0.00    -0.060 A 
HETATM   31  C   UNL     1       9.809  30.335  62.241  1.00  0.00     0.048 C 
HETATM   32  C   UNL     1       8.516  30.174  60.090  1.00  0.00     0.039 A 
BRANCH  27  33
HETATM   33  O   UNL     1       6.302  32.450  58.301  1.00  0.00    -0.354 OA
HETATM   34  C   UNL     1       4.987  32.819  58.698  1.00  0.00     0.210 C 
ENDBRANCH  27  33
ENDBRANCH  23  26
ENDBRANCH   4  22
TORSDOF 8
ENDMDL
