MODEL 1
REMARK VINA RESULT:      -8.9      0.000      0.000
REMARK  8 active torsions:
REMARK  status: ('A' for Active; 'I' for Inactive)
REMARK    1  A    between atoms: C_2  and  C_3 
REMARK    2  A    between atoms: C_3  and  O_4 
REMARK    3  A    between atoms: O_4  and  C_5 
REMARK    4  A    between atoms: C_6  and  C_7 
REMARK    5  A    between atoms: C_11  and  C_12 
REMARK       I    between atoms: C_12  and  N_13 
REMARK    6  A    between atoms: N_13  and  N_14 
REMARK    7  A    between atoms: C_15  and  C_16 
REMARK    8  A    between atoms: C_19  and  N_20 
ROOT
HETATM    1  C   UNL     1       8.304  31.737  60.274  1.00  0.00     0.092 A 
HETATM    2  N   UNL     1       9.150  32.362  59.435  1.00  0.00    -0.174 NA
HETATM    3  N   UNL     1       9.423  31.453  58.489  1.00  0.00    -0.272 N 
HETATM    4  H   UNL     1      10.059  31.700  57.736  1.00  0.00     0.189 HD
HETATM    5  C   UNL     1       8.777  30.260  58.649  1.00  0.00     0.121 A 
HETATM    6  C   UNL     1       8.036  30.420  59.802  1.00  0.00     0.071 A 
ENDROOT
BRANCH   5   7
HETATM    7  C   UNL     1       8.956  29.188  57.702  1.00  0.00     0.289 C 
HETATM    8  N   UNL     1       8.040  28.152  57.816  1.00  0.00    -0.242 N 
HETATM    9  H   UNL     1       7.319  28.180  58.523  1.00  0.00     0.192 HD
HETATM   10  O   UNL     1       9.859  29.226  56.869  1.00  0.00    -0.264 OA
BRANCH   8  11
HETATM   11  N   UNL     1       8.088  27.103  56.944  1.00  0.00    -0.184 NA
HETATM   12  C   UNL     1       7.947  25.927  57.465  1.00  0.00     0.150 C 
BRANCH  12  13
HETATM   13  C   UNL     1       7.956  24.709  56.631  1.00  0.00    -0.017 A 
HETATM   14  C   UNL     1       7.469  24.730  55.326  1.00  0.00     0.015 A 
HETATM   15  C   UNL     1       7.461  23.556  54.562  1.00  0.00     0.030 A 
HETATM   16  C   UNL     1       7.949  22.340  55.068  1.00  0.00     0.029 A 
HETATM   17  C   UNL     1       8.429  22.353  56.391  1.00  0.00     0.030 A 
HETATM   18  C   UNL     1       8.438  23.518  57.169  1.00  0.00     0.015 A 
BRANCH  16  19
HETATM   19  N   UNL     1       7.930  21.141  54.337  1.00  0.00    -0.390 N 
HETATM   20  C   UNL     1       8.763  20.069  54.890  1.00  0.00     0.149 C 
HETATM   21  C   UNL     1       7.940  21.220  52.876  1.00  0.00     0.149 C 
ENDBRANCH  16  19
ENDBRANCH  12  13
ENDBRANCH   8  11
ENDBRANCH   5   7
BRANCH   1  22
HETATM   22  C   UNL     1       7.763  32.426  61.458  1.00  0.00     0.028 A 
HETATM   23  C   UNL     1       6.584  33.201  61.430  1.00  0.00     0.081 A 
HETATM   24  C   UNL     1       6.147  33.830  62.608  1.00  0.00     0.038 A 
HETATM   25  C   UNL     1       6.855  33.688  63.803  1.00  0.00     0.003 A 
HETATM   26  C   UNL     1       8.010  32.918  63.839  1.00  0.00     0.001 A 
HETATM   27  C   UNL     1       8.458  32.293  62.677  1.00  0.00     0.017 A 
BRANCH  23  28
HETATM   28  O   UNL     1       5.915  33.296  60.234  1.00  0.00    -0.350 OA
BRANCH  28  29
HETATM   29  C   UNL     1       4.626  32.691  60.137  1.00  0.00     0.175 C 
BRANCH  29  30
HETATM   30  C   UNL     1       4.640  31.763  58.925  1.00  0.00     0.022 C 
HETATM   31  C   UNL     1       5.515  32.304  57.810  1.00  0.00     0.007 C 
ENDBRANCH  29  30
ENDBRANCH  28  29
ENDBRANCH  23  28
ENDBRANCH   1  22
TORSDOF 8
ENDMDL
MODEL 2
REMARK VINA RESULT:      -8.6      7.305     11.494
REMARK  8 active torsions:
REMARK  status: ('A' for Active; 'I' for Inactive)
REMARK    1  A    between atoms: C_2  and  C_3 
REMARK    2  A    between atoms: C_3  and  O_4 
REMARK    3  A    between atoms: O_4  and  C_5 
REMARK    4  A    between atoms: C_6  and  C_7 
REMARK    5  A    between atoms: C_11  and  C_12 
REMARK       I    between atoms: C_12  and  N_13 
REMARK    6  A    between atoms: N_13  and  N_14 
REMARK    7  A    between atoms: C_15  and  C_16 
REMARK    8  A    between atoms: C_19  and  N_20 
ROOT
HETATM    1  C   UNL     1       7.376  23.605  53.261  1.00  0.00     0.092 A 
HETATM    2  N   UNL     1       8.289  24.238  52.501  1.00  0.00    -0.174 NA
HETATM    3  N   UNL     1       7.597  25.188  51.859  1.00  0.00    -0.272 N 
HETATM    4  H   UNL     1       8.083  25.800  51.210  1.00  0.00     0.189 HD
HETATM    5  C   UNL     1       6.269  25.231  52.177  1.00  0.00     0.121 A 
HETATM    6  C   UNL     1       6.099  24.214  53.093  1.00  0.00     0.071 A 
ENDROOT
BRANCH   5   7
HETATM    7  C   UNL     1       5.396  26.211  51.580  1.00  0.00     0.289 C 
HETATM    8  N   UNL     1       5.393  26.221  50.193  1.00  0.00    -0.242 N 
HETATM    9  H   UNL     1       5.976  25.578  49.674  1.00  0.00     0.192 HD
HETATM   10  O   UNL     1       4.717  26.960  52.279  1.00  0.00    -0.264 OA
BRANCH   8  11
HETATM   11  N   UNL     1       4.573  27.079  49.520  1.00  0.00    -0.184 NA
HETATM   12  C   UNL     1       3.712  26.531  48.723  1.00  0.00     0.150 C 
BRANCH  12  13
HETATM   13  C   UNL     1       2.750  27.344  47.953  1.00  0.00    -0.017 A 
HETATM   14  C   UNL     1       3.102  28.599  47.462  1.00  0.00     0.015 A 
HETATM   15  C   UNL     1       2.164  29.365  46.758  1.00  0.00     0.030 A 
HETATM   16  C   UNL     1       0.862  28.899  46.512  1.00  0.00     0.029 A 
HETATM   17  C   UNL     1       0.538  27.629  47.027  1.00  0.00     0.030 A 
HETATM   18  C   UNL     1       1.464  26.854  47.737  1.00  0.00     0.015 A 
BRANCH  16  19
HETATM   19  N   UNL     1      -0.108  29.653  45.834  1.00  0.00    -0.390 N 
HETATM   20  C   UNL     1      -0.676  30.764  46.604  1.00  0.00     0.149 C 
HETATM   21  C   UNL     1      -1.076  28.943  44.997  1.00  0.00     0.149 C 
ENDBRANCH  16  19
ENDBRANCH  12  13
ENDBRANCH   8  11
ENDBRANCH   5   7
BRANCH   1  22
HETATM   22  C   UNL     1       7.761  22.483  54.133  1.00  0.00     0.028 A 
HETATM   23  C   UNL     1       7.831  22.586  55.539  1.00  0.00     0.081 A 
HETATM   24  C   UNL     1       8.216  21.463  56.292  1.00  0.00     0.038 A 
HETATM   25  C   UNL     1       8.519  20.250  55.668  1.00  0.00     0.003 A 
HETATM   26  C   UNL     1       8.442  20.140  54.286  1.00  0.00     0.001 A 
HETATM   27  C   UNL     1       8.066  21.247  53.527  1.00  0.00     0.017 A 
BRANCH  23  28
HETATM   28  O   UNL     1       7.508  23.795  56.104  1.00  0.00    -0.350 OA
BRANCH  28  29
HETATM   29  C   UNL     1       8.437  24.377  57.018  1.00  0.00     0.175 C 
BRANCH  29  30
HETATM   30  C   UNL     1       8.125  25.868  57.111  1.00  0.00     0.022 C 
HETATM   31  C   UNL     1       7.466  26.386  55.845  1.00  0.00     0.007 C 
ENDBRANCH  29  30
ENDBRANCH  28  29
ENDBRANCH  23  28
ENDBRANCH   1  22
TORSDOF 8
ENDMDL
MODEL 3
REMARK VINA RESULT:      -8.1      1.705      2.260
REMARK  8 active torsions:
REMARK  status: ('A' for Active; 'I' for Inactive)
REMARK    1  A    between atoms: C_2  and  C_3 
REMARK    2  A    between atoms: C_3  and  O_4 
REMARK    3  A    between atoms: O_4  and  C_5 
REMARK    4  A    between atoms: C_6  and  C_7 
REMARK    5  A    between atoms: C_11  and  C_12 
REMARK       I    between atoms: C_12  and  N_13 
REMARK    6  A    between atoms: N_13  and  N_14 
REMARK    7  A    between atoms: C_15  and  C_16 
REMARK    8  A    between atoms: C_19  and  N_20 
ROOT
HETATM    1  C   UNL     1       6.966  32.280  61.447  1.00  0.00     0.092 A 
HETATM    2  N   UNL     1       6.461  32.848  60.337  1.00  0.00    -0.174 NA
HETATM    3  N   UNL     1       6.931  32.103  59.329  1.00  0.00    -0.272 N 
HETATM    4  H   UNL     1       6.684  32.350  58.375  1.00  0.00     0.189 HD
HETATM    5  C   UNL     1       7.708  31.049  59.721  1.00  0.00     0.121 A 
HETATM    6  C   UNL     1       7.742  31.137  61.097  1.00  0.00     0.071 A 
ENDROOT
BRANCH   5   7
HETATM    7  C   UNL     1       8.273  30.145  58.750  1.00  0.00     0.289 C 
HETATM    8  N   UNL     1       7.638  28.915  58.661  1.00  0.00    -0.242 N 
HETATM    9  H   UNL     1       6.845  28.703  59.251  1.00  0.00     0.192 HD
HETATM   10  O   UNL     1       9.241  30.476  58.069  1.00  0.00    -0.264 OA
BRANCH   8  11
HETATM   11  N   UNL     1       8.062  27.995  57.747  1.00  0.00    -0.184 NA
HETATM   12  C   UNL     1       7.446  26.856  57.762  1.00  0.00     0.150 C 
BRANCH  12  13
HETATM   13  C   UNL     1       7.791  25.782  56.810  1.00  0.00    -0.017 A 
HETATM   14  C   UNL     1       7.325  25.810  55.497  1.00  0.00     0.015 A 
HETATM   15  C   UNL     1       7.641  24.767  54.618  1.00  0.00     0.030 A 
HETATM   16  C   UNL     1       8.437  23.680  55.015  1.00  0.00     0.029 A 
HETATM   17  C   UNL     1       8.887  23.680  56.350  1.00  0.00     0.030 A 
HETATM   18  C   UNL     1       8.575  24.715  57.241  1.00  0.00     0.015 A 
BRANCH  16  19
HETATM   19  N   UNL     1       8.750  22.606  54.167  1.00  0.00    -0.390 N 
HETATM   20  C   UNL     1       7.990  22.568  52.914  1.00  0.00     0.149 C 
HETATM   21  C   UNL     1       8.984  21.293  54.770  1.00  0.00     0.149 C 
ENDBRANCH  16  19
ENDBRANCH  12  13
ENDBRANCH   8  11
ENDBRANCH   5   7
BRANCH   1  22
HETATM   22  C   UNL     1       6.662  32.821  62.783  1.00  0.00     0.028 A 
HETATM   23  C   UNL     1       5.352  33.108  63.221  1.00  0.00     0.081 A 
HETATM   24  C   UNL     1       5.157  33.630  64.511  1.00  0.00     0.038 A 
HETATM   25  C   UNL     1       6.240  33.856  65.365  1.00  0.00     0.003 A 
HETATM   26  C   UNL     1       7.530  33.566  64.943  1.00  0.00     0.001 A 
HETATM   27  C   UNL     1       7.738  33.053  63.664  1.00  0.00     0.017 A 
BRANCH  23  28
HETATM   28  O   UNL     1       4.321  32.852  62.350  1.00  0.00    -0.350 OA
BRANCH  28  29
HETATM   29  C   UNL     1       3.084  33.532  62.558  1.00  0.00     0.175 C 
BRANCH  29  30
HETATM   30  C   UNL     1       2.739  34.273  61.269  1.00  0.00     0.022 C 
HETATM   31  C   UNL     1       1.281  34.695  61.233  1.00  0.00     0.007 C 
ENDBRANCH  29  30
ENDBRANCH  28  29
ENDBRANCH  23  28
ENDBRANCH   1  22
TORSDOF 8
ENDMDL
MODEL 4
REMARK VINA RESULT:      -8.0      1.194      2.820
REMARK  8 active torsions:
REMARK  status: ('A' for Active; 'I' for Inactive)
REMARK    1  A    between atoms: C_2  and  C_3 
REMARK    2  A    between atoms: C_3  and  O_4 
REMARK    3  A    between atoms: O_4  and  C_5 
REMARK    4  A    between atoms: C_6  and  C_7 
REMARK    5  A    between atoms: C_11  and  C_12 
REMARK       I    between atoms: C_12  and  N_13 
REMARK    6  A    between atoms: N_13  and  N_14 
REMARK    7  A    between atoms: C_15  and  C_16 
REMARK    8  A    between atoms: C_19  and  N_20 
ROOT
HETATM    1  C   UNL     1       6.762  31.881  59.083  1.00  0.00     0.092 A 
HETATM    2  N   UNL     1       8.071  32.183  59.152  1.00  0.00    -0.174 NA
HETATM    3  N   UNL     1       8.691  31.134  58.596  1.00  0.00    -0.272 N 
HETATM    4  H   UNL     1       9.706  31.132  58.541  1.00  0.00     0.189 HD
HETATM    5  C   UNL     1       7.851  30.159  58.140  1.00  0.00     0.121 A 
HETATM    6  C   UNL     1       6.587  30.623  58.439  1.00  0.00     0.071 A 
ENDROOT
BRANCH   5   7
HETATM    7  C   UNL     1       8.369  28.974  57.501  1.00  0.00     0.289 C 
HETATM    8  N   UNL     1       7.414  28.019  57.184  1.00  0.00    -0.242 N 
HETATM    9  H   UNL     1       6.440  28.175  57.403  1.00  0.00     0.192 HD
HETATM   10  O   UNL     1       9.570  28.857  57.267  1.00  0.00    -0.264 OA
BRANCH   8  11
HETATM   11  N   UNL     1       7.785  26.875  56.539  1.00  0.00    -0.184 NA
HETATM   12  C   UNL     1       7.022  25.846  56.729  1.00  0.00     0.150 C 
BRANCH  12  13
HETATM   13  C   UNL     1       7.296  24.553  56.071  1.00  0.00    -0.017 A 
HETATM   14  C   UNL     1       6.898  24.317  54.757  1.00  0.00     0.015 A 
HETATM   15  C   UNL     1       7.145  23.073  54.162  1.00  0.00     0.030 A 
HETATM   16  C   UNL     1       7.803  22.041  54.850  1.00  0.00     0.029 A 
HETATM   17  C   UNL     1       8.186  22.311  56.178  1.00  0.00     0.030 A 
HETATM   18  C   UNL     1       7.943  23.548  56.788  1.00  0.00     0.015 A 
BRANCH  16  19
HETATM   19  N   UNL     1       8.040  20.775  54.292  1.00  0.00    -0.390 N 
HETATM   20  C   UNL     1       8.918  19.907  55.083  1.00  0.00     0.149 C 
HETATM   21  C   UNL     1       8.245  20.683  52.846  1.00  0.00     0.149 C 
ENDBRANCH  16  19
ENDBRANCH  12  13
ENDBRANCH   8  11
ENDBRANCH   5   7
BRANCH   1  22
HETATM   22  C   UNL     1       5.740  32.810  59.596  1.00  0.00     0.028 A 
HETATM   23  C   UNL     1       5.541  33.059  60.971  1.00  0.00     0.081 A 
HETATM   24  C   UNL     1       4.536  33.957  61.369  1.00  0.00     0.038 A 
HETATM   25  C   UNL     1       3.743  34.611  60.423  1.00  0.00     0.003 A 
HETATM   26  C   UNL     1       3.941  34.379  59.069  1.00  0.00     0.001 A 
HETATM   27  C   UNL     1       4.931  33.487  58.661  1.00  0.00     0.017 A 
BRANCH  23  28
HETATM   28  O   UNL     1       6.357  32.402  61.859  1.00  0.00    -0.350 OA
BRANCH  28  29
HETATM   29  C   UNL     1       7.424  33.137  62.458  1.00  0.00     0.175 C 
BRANCH  29  30
HETATM   30  C   UNL     1       7.615  32.605  63.876  1.00  0.00     0.022 C 
HETATM   31  C   UNL     1       7.252  33.644  64.922  1.00  0.00     0.007 C 
ENDBRANCH  29  30
ENDBRANCH  28  29
ENDBRANCH  23  28
ENDBRANCH   1  22
TORSDOF 8
ENDMDL
MODEL 5
REMARK VINA RESULT:      -8.0      2.538     11.244
REMARK  8 active torsions:
REMARK  status: ('A' for Active; 'I' for Inactive)
REMARK    1  A    between atoms: C_2  and  C_3 
REMARK    2  A    between atoms: C_3  and  O_4 
REMARK    3  A    between atoms: O_4  and  C_5 
REMARK    4  A    between atoms: C_6  and  C_7 
REMARK    5  A    between atoms: C_11  and  C_12 
REMARK       I    between atoms: C_12  and  N_13 
REMARK    6  A    between atoms: N_13  and  N_14 
REMARK    7  A    between atoms: C_15  and  C_16 
REMARK    8  A    between atoms: C_19  and  N_20 
ROOT
HETATM    1  C   UNL     1       7.063  26.607  55.717  1.00  0.00     0.092 A 
HETATM    2  N   UNL     1       5.812  26.766  56.184  1.00  0.00    -0.174 NA
HETATM    3  N   UNL     1       5.909  27.746  57.092  1.00  0.00    -0.272 N 
HETATM    4  H   UNL     1       5.076  28.041  57.593  1.00  0.00     0.189 HD
HETATM    5  C   UNL     1       7.166  28.263  57.231  1.00  0.00     0.121 A 
HETATM    6  C   UNL     1       7.937  27.543  56.342  1.00  0.00     0.071 A 
ENDROOT
BRANCH   5   7
HETATM    7  C   UNL     1       7.427  29.337  58.157  1.00  0.00     0.289 C 
HETATM    8  N   UNL     1       6.530  30.393  58.092  1.00  0.00    -0.242 N 
HETATM    9  H   UNL     1       5.766  30.377  57.430  1.00  0.00     0.192 HD
HETATM   10  O   UNL     1       8.378  29.283  58.933  1.00  0.00    -0.264 OA
BRANCH   8  11
HETATM   11  N   UNL     1       6.654  31.445  58.952  1.00  0.00    -0.184 NA
HETATM   12  C   UNL     1       5.549  31.916  59.435  1.00  0.00     0.150 C 
BRANCH  12  13
HETATM   13  C   UNL     1       5.544  33.038  60.394  1.00  0.00    -0.017 A 
HETATM   14  C   UNL     1       6.443  33.076  61.458  1.00  0.00     0.015 A 
HETATM   15  C   UNL     1       6.402  34.137  62.372  1.00  0.00     0.030 A 
HETATM   16  C   UNL     1       5.481  35.189  62.244  1.00  0.00     0.029 A 
HETATM   17  C   UNL     1       4.584  35.117  61.161  1.00  0.00     0.030 A 
HETATM   18  C   UNL     1       4.610  34.060  60.242  1.00  0.00     0.015 A 
BRANCH  16  19
HETATM   19  N   UNL     1       5.397  36.252  63.158  1.00  0.00    -0.390 N 
HETATM   20  C   UNL     1       4.175  36.274  63.968  1.00  0.00     0.149 C 
HETATM   21  C   UNL     1       5.859  37.572  62.729  1.00  0.00     0.149 C 
ENDBRANCH  16  19
ENDBRANCH  12  13
ENDBRANCH   8  11
ENDBRANCH   5   7
BRANCH   1  22
HETATM   22  C   UNL     1       7.364  25.607  54.679  1.00  0.00     0.028 A 
HETATM   23  C   UNL     1       7.591  24.242  54.963  1.00  0.00     0.081 A 
HETATM   24  C   UNL     1       7.880  23.360  53.908  1.00  0.00     0.038 A 
HETATM   25  C   UNL     1       7.935  23.813  52.588  1.00  0.00     0.003 A 
HETATM   26  C   UNL     1       7.704  25.152  52.302  1.00  0.00     0.001 A 
HETATM   27  C   UNL     1       7.420  26.039  53.339  1.00  0.00     0.017 A 
BRANCH  23  28
HETATM   28  O   UNL     1       7.509  23.845  56.275  1.00  0.00    -0.350 OA
BRANCH  28  29
HETATM   29  C   UNL     1       8.591  23.086  56.813  1.00  0.00     0.175 C 
BRANCH  29  30
HETATM   30  C   UNL     1       8.093  21.660  57.032  1.00  0.00     0.022 C 
HETATM   31  C   UNL     1       8.944  20.645  56.292  1.00  0.00     0.007 C 
ENDBRANCH  29  30
ENDBRANCH  28  29
ENDBRANCH  23  28
ENDBRANCH   1  22
TORSDOF 8
ENDMDL
MODEL 6
REMARK VINA RESULT:      -8.0      2.350      3.703
REMARK  8 active torsions:
REMARK  status: ('A' for Active; 'I' for Inactive)
REMARK    1  A    between atoms: C_2  and  C_3 
REMARK    2  A    between atoms: C_3  and  O_4 
REMARK    3  A    between atoms: O_4  and  C_5 
REMARK    4  A    between atoms: C_6  and  C_7 
REMARK    5  A    between atoms: C_11  and  C_12 
REMARK       I    between atoms: C_12  and  N_13 
REMARK    6  A    between atoms: N_13  and  N_14 
REMARK    7  A    between atoms: C_15  and  C_16 
REMARK    8  A    between atoms: C_19  and  N_20 
ROOT
HETATM    1  C   UNL     1       4.255  32.388  59.467  1.00  0.00     0.092 A 
HETATM    2  N   UNL     1       3.193  31.586  59.664  1.00  0.00    -0.174 NA
HETATM    3  N   UNL     1       3.396  30.546  58.844  1.00  0.00    -0.272 N 
HETATM    4  H   UNL     1       2.707  29.800  58.813  1.00  0.00     0.189 HD
HETATM    5  C   UNL     1       4.558  30.609  58.129  1.00  0.00     0.121 A 
HETATM    6  C   UNL     1       5.141  31.797  58.520  1.00  0.00     0.071 A 
ENDROOT
BRANCH   5   7
HETATM    7  C   UNL     1       4.925  29.555  57.217  1.00  0.00     0.289 C 
HETATM    8  N   UNL     1       6.016  28.795  57.612  1.00  0.00    -0.242 N 
HETATM    9  H   UNL     1       6.495  28.998  58.479  1.00  0.00     0.192 HD
HETATM   10  O   UNL     1       4.292  29.370  56.180  1.00  0.00    -0.264 OA
BRANCH   8  11
HETATM   11  N   UNL     1       6.426  27.743  56.847  1.00  0.00    -0.184 NA
HETATM   12  C   UNL     1       6.888  26.720  57.491  1.00  0.00     0.150 C 
BRANCH  12  13
HETATM   13  C   UNL     1       7.344  25.506  56.785  1.00  0.00    -0.017 A 
HETATM   14  C   UNL     1       6.567  24.924  55.785  1.00  0.00     0.015 A 
HETATM   15  C   UNL     1       7.006  23.757  55.147  1.00  0.00     0.030 A 
HETATM   16  C   UNL     1       8.229  23.149  55.474  1.00  0.00     0.029 A 
HETATM   17  C   UNL     1       8.986  23.760  56.493  1.00  0.00     0.030 A 
HETATM   18  C   UNL     1       8.558  24.925  57.143  1.00  0.00     0.015 A 
BRANCH  16  19
HETATM   19  N   UNL     1       8.684  21.965  54.873  1.00  0.00    -0.390 N 
HETATM   20  C   UNL     1       7.965  21.575  53.657  1.00  0.00     0.149 C 
HETATM   21  C   UNL     1       9.054  20.846  55.740  1.00  0.00     0.149 C 
ENDBRANCH  16  19
ENDBRANCH  12  13
ENDBRANCH   8  11
ENDBRANCH   5   7
BRANCH   1  22
HETATM   22  C   UNL     1       4.400  33.652  60.208  1.00  0.00     0.028 A 
HETATM   23  C   UNL     1       5.238  33.796  61.335  1.00  0.00     0.081 A 
HETATM   24  C   UNL     1       5.307  35.040  61.985  1.00  0.00     0.038 A 
HETATM   25  C   UNL     1       4.567  36.133  61.525  1.00  0.00     0.003 A 
HETATM   26  C   UNL     1       3.749  35.999  60.412  1.00  0.00     0.001 A 
HETATM   27  C   UNL     1       3.667  34.770  59.760  1.00  0.00     0.017 A 
BRANCH  23  28
HETATM   28  O   UNL     1       5.956  32.697  61.736  1.00  0.00    -0.350 OA
BRANCH  28  29
HETATM   29  C   UNL     1       7.373  32.723  61.564  1.00  0.00     0.175 C 
BRANCH  29  30
HETATM   30  C   UNL     1       8.004  32.136  62.824  1.00  0.00     0.022 C 
HETATM   31  C   UNL     1       7.762  33.015  64.038  1.00  0.00     0.007 C 
ENDBRANCH  29  30
ENDBRANCH  28  29
ENDBRANCH  23  28
ENDBRANCH   1  22
TORSDOF 8
ENDMDL
MODEL 7
REMARK VINA RESULT:      -7.6      7.281     11.641
REMARK  8 active torsions:
REMARK  status: ('A' for Active; 'I' for Inactive)
REMARK    1  A    between atoms: C_2  and  C_3 
REMARK    2  A    between atoms: C_3  and  O_4 
REMARK    3  A    between atoms: O_4  and  C_5 
REMARK    4  A    between atoms: C_6  and  C_7 
REMARK    5  A    between atoms: C_11  and  C_12 
REMARK       I    between atoms: C_12  and  N_13 
REMARK    6  A    between atoms: N_13  and  N_14 
REMARK    7  A    between atoms: C_15  and  C_16 
REMARK    8  A    between atoms: C_19  and  N_20 
ROOT
HETATM    1  C   UNL     1       6.452  24.413  52.899  1.00  0.00     0.092 A 
HETATM    2  N   UNL     1       5.143  24.450  53.206  1.00  0.00    -0.174 NA
HETATM    3  N   UNL     1       4.611  25.306  52.324  1.00  0.00    -0.272 N 
HETATM    4  H   UNL     1       3.615  25.504  52.366  1.00  0.00     0.189 HD
HETATM    5  C   UNL     1       5.504  25.821  51.428  1.00  0.00     0.121 A 
HETATM    6  C   UNL     1       6.711  25.252  51.777  1.00  0.00     0.071 A 
ENDROOT
BRANCH   5   7
HETATM    7  C   UNL     1       5.079  26.744  50.405  1.00  0.00     0.289 C 
HETATM    8  N   UNL     1       5.382  28.074  50.659  1.00  0.00    -0.242 N 
HETATM    9  H   UNL     1       5.861  28.338  51.508  1.00  0.00     0.192 HD
HETATM   10  O   UNL     1       4.500  26.346  49.397  1.00  0.00    -0.264 OA
BRANCH   8  11
HETATM   11  N   UNL     1       5.064  29.031  49.739  1.00  0.00    -0.184 NA
HETATM   12  C   UNL     1       5.736  30.135  49.817  1.00  0.00     0.150 C 
BRANCH  12  13
HETATM   13  C   UNL     1       5.507  31.243  48.868  1.00  0.00    -0.017 A 
HETATM   14  C   UNL     1       4.550  31.140  47.861  1.00  0.00     0.015 A 
HETATM   15  C   UNL     1       4.369  32.192  46.955  1.00  0.00     0.030 A 
HETATM   16  C   UNL     1       5.122  33.375  47.034  1.00  0.00     0.029 A 
HETATM   17  C   UNL     1       6.084  33.444  48.060  1.00  0.00     0.030 A 
HETATM   18  C   UNL     1       6.279  32.398  48.971  1.00  0.00     0.015 A 
BRANCH  16  19
HETATM   19  N   UNL     1       4.984  34.436  46.125  1.00  0.00    -0.390 N 
HETATM   20  C   UNL     1       3.918  34.265  45.134  1.00  0.00     0.149 C 
HETATM   21  C   UNL     1       6.199  35.063  45.602  1.00  0.00     0.149 C 
ENDBRANCH  16  19
ENDBRANCH  12  13
ENDBRANCH   8  11
ENDBRANCH   5   7
BRANCH   1  22
HETATM   22  C   UNL     1       7.386  23.562  53.656  1.00  0.00     0.028 A 
HETATM   23  C   UNL     1       7.832  23.872  54.959  1.00  0.00     0.081 A 
HETATM   24  C   UNL     1       8.730  23.004  55.602  1.00  0.00     0.038 A 
HETATM   25  C   UNL     1       9.177  21.839  54.975  1.00  0.00     0.003 A 
HETATM   26  C   UNL     1       8.734  21.524  53.697  1.00  0.00     0.001 A 
HETATM   27  C   UNL     1       7.846  22.378  53.046  1.00  0.00     0.017 A 
BRANCH  23  28
HETATM   28  O   UNL     1       7.351  25.021  55.538  1.00  0.00    -0.350 OA
BRANCH  28  29
HETATM   29  C   UNL     1       6.628  24.902  56.763  1.00  0.00     0.175 C 
BRANCH  29  30
HETATM   30  C   UNL     1       5.361  25.744  56.637  1.00  0.00     0.022 C 
HETATM   31  C   UNL     1       5.564  26.935  55.718  1.00  0.00     0.007 C 
ENDBRANCH  29  30
ENDBRANCH  28  29
ENDBRANCH  23  28
ENDBRANCH   1  22
TORSDOF 8
ENDMDL
MODEL 8
REMARK VINA RESULT:      -7.3      2.831      3.443
REMARK  8 active torsions:
REMARK  status: ('A' for Active; 'I' for Inactive)
REMARK    1  A    between atoms: C_2  and  C_3 
REMARK    2  A    between atoms: C_3  and  O_4 
REMARK    3  A    between atoms: O_4  and  C_5 
REMARK    4  A    between atoms: C_6  and  C_7 
REMARK    5  A    between atoms: C_11  and  C_12 
REMARK       I    between atoms: C_12  and  N_13 
REMARK    6  A    between atoms: N_13  and  N_14 
REMARK    7  A    between atoms: C_15  and  C_16 
REMARK    8  A    between atoms: C_19  and  N_20 
ROOT
HETATM    1  C   UNL     1       4.270  31.926  58.935  1.00  0.00     0.092 A 
HETATM    2  N   UNL     1       3.234  31.071  59.001  1.00  0.00    -0.174 NA
HETATM    3  N   UNL     1       3.597  30.035  58.234  1.00  0.00    -0.272 N 
HETATM    4  H   UNL     1       2.957  29.253  58.124  1.00  0.00     0.189 HD
HETATM    5  C   UNL     1       4.840  30.151  57.680  1.00  0.00     0.121 A 
HETATM    6  C   UNL     1       5.304  31.372  58.125  1.00  0.00     0.071 A 
ENDROOT
BRANCH   5   7
HETATM    7  C   UNL     1       5.379  29.109  56.843  1.00  0.00     0.289 C 
HETATM    8  N   UNL     1       5.051  27.819  57.236  1.00  0.00    -0.242 N 
HETATM    9  H   UNL     1       4.479  27.662  58.055  1.00  0.00     0.192 HD
HETATM   10  O   UNL     1       6.068  29.379  55.862  1.00  0.00    -0.264 OA
BRANCH   8  11
HETATM   11  N   UNL     1       5.471  26.754  56.494  1.00  0.00    -0.184 NA
HETATM   12  C   UNL     1       6.480  26.096  56.968  1.00  0.00     0.150 C 
BRANCH  12  13
HETATM   13  C   UNL     1       7.020  24.909  56.276  1.00  0.00    -0.017 A 
HETATM   14  C   UNL     1       6.575  24.557  55.003  1.00  0.00     0.015 A 
HETATM   15  C   UNL     1       7.080  23.411  54.376  1.00  0.00     0.030 A 
HETATM   16  C   UNL     1       8.047  22.597  54.989  1.00  0.00     0.029 A 
HETATM   17  C   UNL     1       8.470  22.978  56.276  1.00  0.00     0.030 A 
HETATM   18  C   UNL     1       7.970  24.119  56.918  1.00  0.00     0.015 A 
BRANCH  16  19
HETATM   19  N   UNL     1       8.553  21.428  54.398  1.00  0.00    -0.390 N 
HETATM   20  C   UNL     1       7.890  21.029  53.153  1.00  0.00     0.149 C 
HETATM   21  C   UNL     1       8.917  20.313  55.272  1.00  0.00     0.149 C 
ENDBRANCH  16  19
ENDBRANCH  12  13
ENDBRANCH   8  11
ENDBRANCH   5   7
BRANCH   1  22
HETATM   22  C   UNL     1       4.249  33.203  59.666  1.00  0.00     0.028 A 
HETATM   23  C   UNL     1       3.430  34.292  59.298  1.00  0.00     0.081 A 
HETATM   24  C   UNL     1       3.482  35.477  60.051  1.00  0.00     0.038 A 
HETATM   25  C   UNL     1       4.322  35.586  61.162  1.00  0.00     0.003 A 
HETATM   26  C   UNL     1       5.123  34.515  61.535  1.00  0.00     0.001 A 
HETATM   27  C   UNL     1       5.085  33.335  60.794  1.00  0.00     0.017 A 
BRANCH  23  28
HETATM   28  O   UNL     1       2.610  34.129  58.208  1.00  0.00    -0.350 OA
BRANCH  28  29
HETATM   29  C   UNL     1       3.057  34.636  56.952  1.00  0.00     0.175 C 
BRANCH  29  30
HETATM   30  C   UNL     1       2.281  33.911  55.856  1.00  0.00     0.022 C 
HETATM   31  C   UNL     1       2.915  32.577  55.504  1.00  0.00     0.007 C 
ENDBRANCH  29  30
ENDBRANCH  28  29
ENDBRANCH  23  28
ENDBRANCH   1  22
TORSDOF 8
ENDMDL
MODEL 9
REMARK VINA RESULT:      -7.3      7.406     11.609
REMARK  8 active torsions:
REMARK  status: ('A' for Active; 'I' for Inactive)
REMARK    1  A    between atoms: C_2  and  C_3 
REMARK    2  A    between atoms: C_3  and  O_4 
REMARK    3  A    between atoms: O_4  and  C_5 
REMARK    4  A    between atoms: C_6  and  C_7 
REMARK    5  A    between atoms: C_11  and  C_12 
REMARK       I    between atoms: C_12  and  N_13 
REMARK    6  A    between atoms: N_13  and  N_14 
REMARK    7  A    between atoms: C_15  and  C_16 
REMARK    8  A    between atoms: C_19  and  N_20 
ROOT
HETATM    1  C   UNL     1       6.326  25.347  53.836  1.00  0.00     0.092 A 
HETATM    2  N   UNL     1       5.106  24.820  53.629  1.00  0.00    -0.174 NA
HETATM    3  N   UNL     1       4.639  25.458  52.548  1.00  0.00    -0.272 N 
HETATM    4  H   UNL     1       3.712  25.227  52.200  1.00  0.00     0.189 HD
HETATM    5  C   UNL     1       5.504  26.368  52.012  1.00  0.00     0.121 A 
HETATM    6  C   UNL     1       6.615  26.313  52.829  1.00  0.00     0.071 A 
ENDROOT
BRANCH   5   7
HETATM    7  C   UNL     1       5.151  27.123  50.835  1.00  0.00     0.289 C 
HETATM    8  N   UNL     1       5.482  28.470  50.886  1.00  0.00    -0.242 N 
HETATM    9  H   UNL     1       5.931  28.857  51.705  1.00  0.00     0.192 HD
HETATM   10  O   UNL     1       4.605  26.580  49.878  1.00  0.00    -0.264 OA
BRANCH   8  11
HETATM   11  N   UNL     1       5.233  29.272  49.811  1.00  0.00    -0.184 NA
HETATM   12  C   UNL     1       5.716  30.472  49.876  1.00  0.00     0.150 C 
BRANCH  12  13
HETATM   13  C   UNL     1       5.539  31.434  48.771  1.00  0.00    -0.017 A 
HETATM   14  C   UNL     1       6.263  32.624  48.732  1.00  0.00     0.015 A 
HETATM   15  C   UNL     1       6.058  33.535  47.689  1.00  0.00     0.030 A 
HETATM   16  C   UNL     1       5.144  33.282  46.653  1.00  0.00     0.029 A 
HETATM   17  C   UNL     1       4.426  32.073  46.725  1.00  0.00     0.030 A 
HETATM   18  C   UNL     1       4.616  31.154  47.765  1.00  0.00     0.015 A 
BRANCH  16  19
HETATM   19  N   UNL     1       4.897  34.186  45.608  1.00  0.00    -0.390 N 
HETATM   20  C   UNL     1       3.992  33.692  44.566  1.00  0.00     0.149 C 
HETATM   21  C   UNL     1       6.014  34.987  45.106  1.00  0.00     0.149 C 
ENDBRANCH  16  19
ENDBRANCH  12  13
ENDBRANCH   8  11
ENDBRANCH   5   7
BRANCH   1  22
HETATM   22  C   UNL     1       7.172  24.888  54.951  1.00  0.00     0.028 A 
HETATM   23  C   UNL     1       8.140  23.870  54.818  1.00  0.00     0.081 A 
HETATM   24  C   UNL     1       8.896  23.491  55.940  1.00  0.00     0.038 A 
HETATM   25  C   UNL     1       8.711  24.116  57.176  1.00  0.00     0.003 A 
HETATM   26  C   UNL     1       7.767  25.125  57.310  1.00  0.00     0.001 A 
HETATM   27  C   UNL     1       7.006  25.507  56.207  1.00  0.00     0.017 A 
BRANCH  23  28
HETATM   28  O   UNL     1       8.294  23.299  53.579  1.00  0.00    -0.350 OA
BRANCH  28  29
HETATM   29  C   UNL     1       7.616  22.071  53.318  1.00  0.00     0.175 C 
BRANCH  29  30
HETATM   30  C   UNL     1       8.664  20.962  53.272  1.00  0.00     0.022 C 
HETATM   31  C   UNL     1       8.659  20.127  54.539  1.00  0.00     0.007 C 
ENDBRANCH  29  30
ENDBRANCH  28  29
ENDBRANCH  23  28
ENDBRANCH   1  22
TORSDOF 8
ENDMDL
MODEL 10
REMARK VINA RESULT:      -7.2      7.782     10.521
REMARK  8 active torsions:
REMARK  status: ('A' for Active; 'I' for Inactive)
REMARK    1  A    between atoms: C_2  and  C_3 
REMARK    2  A    between atoms: C_3  and  O_4 
REMARK    3  A    between atoms: O_4  and  C_5 
REMARK    4  A    between atoms: C_6  and  C_7 
REMARK    5  A    between atoms: C_11  and  C_12 
REMARK       I    between atoms: C_12  and  N_13 
REMARK    6  A    between atoms: N_13  and  N_14 
REMARK    7  A    between atoms: C_15  and  C_16 
REMARK    8  A    between atoms: C_19  and  N_20 
ROOT
HETATM    1  C   UNL     1       3.670  29.982  49.259  1.00  0.00     0.092 A 
HETATM    2  N   UNL     1       3.061  30.534  50.323  1.00  0.00    -0.174 NA
HETATM    3  N   UNL     1       3.356  29.719  51.344  1.00  0.00    -0.272 N 
HETATM    4  H   UNL     1       2.992  29.933  52.269  1.00  0.00     0.189 HD
HETATM    5  C   UNL     1       4.157  28.664  51.011  1.00  0.00     0.121 A 
HETATM    6  C   UNL     1       4.381  28.814  49.658  1.00  0.00     0.071 A 
ENDROOT
BRANCH   5   7
HETATM    7  C   UNL     1       4.575  27.708  52.006  1.00  0.00     0.289 C 
HETATM    8  N   UNL     1       4.643  26.396  51.560  1.00  0.00    -0.242 N 
HETATM    9  H   UNL     1       4.405  26.165  50.605  1.00  0.00     0.192 HD
HETATM   10  O   UNL     1       4.848  28.066  53.149  1.00  0.00    -0.264 OA
BRANCH   8  11
HETATM   11  N   UNL     1       5.069  25.412  52.405  1.00  0.00    -0.184 NA
HETATM   12  C   UNL     1       6.335  25.145  52.370  1.00  0.00     0.150 C 
BRANCH  12  13
HETATM   13  C   UNL     1       6.930  24.119  53.249  1.00  0.00    -0.017 A 
HETATM   14  C   UNL     1       6.723  24.147  54.627  1.00  0.00     0.015 A 
HETATM   15  C   UNL     1       7.319  23.179  55.445  1.00  0.00     0.030 A 
HETATM   16  C   UNL     1       8.122  22.155  54.916  1.00  0.00     0.029 A 
HETATM   17  C   UNL     1       8.315  22.160  53.522  1.00  0.00     0.030 A 
HETATM   18  C   UNL     1       7.728  23.123  52.691  1.00  0.00     0.015 A 
BRANCH  16  19
HETATM   19  N   UNL     1       8.756  21.187  55.712  1.00  0.00    -0.390 N 
HETATM   20  C   UNL     1       8.992  19.902  55.048  1.00  0.00     0.149 C 
HETATM   21  C   UNL     1       8.359  21.077  57.116  1.00  0.00     0.149 C 
ENDBRANCH  16  19
ENDBRANCH  12  13
ENDBRANCH   8  11
ENDBRANCH   5   7
BRANCH   1  22
HETATM   22  C   UNL     1       3.582  30.604  47.927  1.00  0.00     0.028 A 
HETATM   23  C   UNL     1       2.521  30.361  47.029  1.00  0.00     0.081 A 
HETATM   24  C   UNL     1       2.524  30.994  45.774  1.00  0.00     0.038 A 
HETATM   25  C   UNL     1       3.555  31.864  45.411  1.00  0.00     0.003 A 
HETATM   26  C   UNL     1       4.596  32.115  46.294  1.00  0.00     0.001 A 
HETATM   27  C   UNL     1       4.608  31.491  47.540  1.00  0.00     0.017 A 
BRANCH  23  28
HETATM   28  O   UNL     1       1.524  29.511  47.439  1.00  0.00    -0.350 OA
BRANCH  28  29
HETATM   29  C   UNL     1       1.410  28.247  46.785  1.00  0.00     0.175 C 
BRANCH  29  30
HETATM   30  C   UNL     1       1.609  27.160  47.838  1.00  0.00     0.022 C 
HETATM   31  C   UNL     1       2.529  26.059  47.345  1.00  0.00     0.007 C 
ENDBRANCH  29  30
ENDBRANCH  28  29
ENDBRANCH  23  28
ENDBRANCH   1  22
TORSDOF 8
ENDMDL
