MODEL 1
REMARK VINA RESULT:      -9.6      0.000      0.000
REMARK  3 active torsions:
REMARK  status: ('A' for Active; 'I' for Inactive)
REMARK    1  A    between atoms: C_8  and  C_9 
REMARK    2  A    between atoms: C_10  and  O_11 
REMARK    3  A    between atoms: C_24  and  N_25 
ROOT
HETATM    1  C   UNL     1       5.514  26.408  50.929  1.00  0.00     0.070 C 
HETATM    2  C   UNL     1       5.002  27.167  52.091  1.00  0.00     0.035 A 
HETATM    3  N   UNL     1       3.696  27.593  52.183  1.00  0.00    -0.280 N 
HETATM    4  H   UNL     1       2.944  27.455  51.515  1.00  0.00     0.189 HD
HETATM    5  N   UNL     1       3.428  28.292  53.305  1.00  0.00    -0.148 NA
HETATM    6  C   UNL     1       4.599  28.290  53.928  1.00  0.00     0.199 A 
HETATM    7  C   UNL     1       5.607  27.593  53.256  1.00  0.00     0.034 A 
HETATM    8  C   UNL     1       6.978  27.497  53.833  1.00  0.00     0.107 C 
HETATM    9  C   UNL     1       7.128  28.478  54.982  1.00  0.00     0.067 C 
HETATM   10  C   UNL     1       8.539  28.911  55.345  1.00  0.00     0.020 C 
HETATM   11  N   UNL     1       9.710  29.270  55.646  1.00  0.00    -0.096 N 
HETATM   12  C   UNL     1       6.075  29.123  55.553  1.00  0.00     0.139 C 
HETATM   13  O   UNL     1       4.759  28.944  55.094  1.00  0.00    -0.277 OA
ENDROOT
BRANCH   8  14
HETATM   14  C   UNL     1       7.146  26.049  54.278  1.00  0.00    -0.010 A 
HETATM   15  C   UNL     1       6.748  25.647  55.561  1.00  0.00     0.076 A 
HETATM   16  C   UNL     1       6.844  24.305  55.953  1.00  0.00     0.049 A 
HETATM   17  C   UNL     1       7.383  23.337  55.089  1.00  0.00    -0.023 A 
HETATM   18  C   UNL     1       7.811  23.726  53.804  1.00  0.00    -0.025 A 
HETATM   19  C   UNL     1       7.499  21.990  55.469  1.00  0.00     0.012 A 
HETATM   20  C   UNL     1       7.673  25.066  53.410  1.00  0.00     0.023 A 
HETATM   21  C   UNL     1       8.359  22.766  52.938  1.00  0.00     0.012 A 
HETATM   22  C   UNL     1       8.477  21.434  53.334  1.00  0.00     0.001 A 
HETATM   23  C   UNL     1       8.043  21.046  54.597  1.00  0.00     0.001 A 
BRANCH  15  24
HETATM   24  O   UNL     1       6.191  26.594  56.382  1.00  0.00    -0.355 OA
HETATM   25  C   UNL     1       5.045  26.119  57.086  1.00  0.00     0.210 C 
ENDBRANCH  15  24
ENDBRANCH   8  14
BRANCH  12  26
HETATM   26  N   UNL     1       6.159  30.036  56.581  1.00  0.00    -0.282 NA
HETATM   27  H   UNL     1       5.287  30.472  56.869  1.00  0.00     0.126 HD
HETATM   28  H   UNL     1       6.706  29.680  57.362  1.00  0.00     0.126 HD
ENDBRANCH  12  26
TORSDOF 3
ENDMDL
MODEL 2
REMARK VINA RESULT:      -9.5      1.795      2.937
REMARK  3 active torsions:
REMARK  status: ('A' for Active; 'I' for Inactive)
REMARK    1  A    between atoms: C_8  and  C_9 
REMARK    2  A    between atoms: C_10  and  O_11 
REMARK    3  A    between atoms: C_24  and  N_25 
ROOT
HETATM    1  C   UNL     1       3.937  28.162  53.798  1.00  0.00     0.070 C 
HETATM    2  C   UNL     1       4.363  28.409  55.192  1.00  0.00     0.035 A 
HETATM    3  N   UNL     1       3.467  28.625  56.215  1.00  0.00    -0.280 N 
HETATM    4  H   UNL     1       2.453  28.642  56.166  1.00  0.00     0.189 HD
HETATM    5  N   UNL     1       4.049  28.857  57.410  1.00  0.00    -0.148 NA
HETATM    6  C   UNL     1       5.340  28.773  57.119  1.00  0.00     0.199 A 
HETATM    7  C   UNL     1       5.610  28.471  55.780  1.00  0.00     0.034 A 
HETATM    8  C   UNL     1       7.014  28.339  55.301  1.00  0.00     0.107 C 
HETATM    9  C   UNL     1       7.974  28.871  56.349  1.00  0.00     0.067 C 
HETATM   10  C   UNL     1       9.349  29.309  55.872  1.00  0.00     0.020 C 
HETATM   11  N   UNL     1      10.490  29.673  55.476  1.00  0.00    -0.096 N 
HETATM   12  C   UNL     1       7.601  29.154  57.626  1.00  0.00     0.139 C 
HETATM   13  O   UNL     1       6.274  28.997  58.062  1.00  0.00    -0.277 OA
ENDROOT
BRANCH   8  14
HETATM   14  C   UNL     1       7.224  26.855  55.020  1.00  0.00    -0.010 A 
HETATM   15  C   UNL     1       7.119  26.355  53.714  1.00  0.00     0.076 A 
HETATM   16  C   UNL     1       7.372  25.004  53.443  1.00  0.00     0.049 A 
HETATM   17  C   UNL     1       7.691  24.107  54.475  1.00  0.00    -0.023 A 
HETATM   18  C   UNL     1       7.777  24.585  55.799  1.00  0.00    -0.025 A 
HETATM   19  C   UNL     1       7.934  22.747  54.224  1.00  0.00     0.012 A 
HETATM   20  C   UNL     1       7.560  25.948  56.050  1.00  0.00     0.023 A 
HETATM   21  C   UNL     1       8.086  23.692  56.838  1.00  0.00     0.012 A 
HETATM   22  C   UNL     1       8.314  22.343  56.573  1.00  0.00     0.001 A 
HETATM   23  C   UNL     1       8.243  21.871  55.266  1.00  0.00     0.001 A 
BRANCH  15  24
HETATM   24  O   UNL     1       6.843  27.247  52.710  1.00  0.00    -0.355 OA
HETATM   25  C   UNL     1       6.152  26.655  51.612  1.00  0.00     0.210 C 
ENDBRANCH  15  24
ENDBRANCH   8  14
BRANCH  12  26
HETATM   26  N   UNL     1       8.425  29.659  58.608  1.00  0.00    -0.282 NA
HETATM   27  H   UNL     1       8.573  29.066  59.420  1.00  0.00     0.126 HD
HETATM   28  H   UNL     1       9.289  30.035  58.223  1.00  0.00     0.126 HD
ENDBRANCH  12  26
TORSDOF 3
ENDMDL
MODEL 3
REMARK VINA RESULT:      -9.2      9.608     12.327
REMARK  3 active torsions:
REMARK  status: ('A' for Active; 'I' for Inactive)
REMARK    1  A    between atoms: C_8  and  C_9 
REMARK    2  A    between atoms: C_10  and  O_11 
REMARK    3  A    between atoms: C_24  and  N_25 
ROOT
HETATM    1  C   UNL     1       1.905  33.915  63.388  1.00  0.00     0.070 C 
HETATM    2  C   UNL     1       2.853  34.771  64.134  1.00  0.00     0.035 A 
HETATM    3  N   UNL     1       2.850  34.859  65.508  1.00  0.00    -0.280 N 
HETATM    4  H   UNL     1       2.242  34.380  66.165  1.00  0.00     0.189 HD
HETATM    5  N   UNL     1       3.773  35.712  66.001  1.00  0.00    -0.148 NA
HETATM    6  C   UNL     1       4.367  36.155  64.901  1.00  0.00     0.199 A 
HETATM    7  C   UNL     1       3.874  35.599  63.717  1.00  0.00     0.034 A 
HETATM    8  C   UNL     1       4.445  35.995  62.399  1.00  0.00     0.107 C 
HETATM    9  C   UNL     1       5.322  37.224  62.559  1.00  0.00     0.067 C 
HETATM   10  C   UNL     1       5.557  38.075  61.322  1.00  0.00     0.020 C 
HETATM   11  N   UNL     1       5.752  38.781  60.295  1.00  0.00    -0.096 N 
HETATM   12  C   UNL     1       5.729  37.696  63.769  1.00  0.00     0.139 C 
HETATM   13  O   UNL     1       5.339  37.085  64.972  1.00  0.00    -0.277 OA
ENDROOT
BRANCH   8  14
HETATM   14  C   UNL     1       5.226  34.785  61.899  1.00  0.00    -0.010 A 
HETATM   15  C   UNL     1       4.906  34.187  60.671  1.00  0.00     0.076 A 
HETATM   16  C   UNL     1       5.660  33.114  60.179  1.00  0.00     0.049 A 
HETATM   17  C   UNL     1       6.726  32.580  60.921  1.00  0.00    -0.023 A 
HETATM   18  C   UNL     1       7.049  33.151  62.169  1.00  0.00    -0.025 A 
HETATM   19  C   UNL     1       7.485  31.496  60.450  1.00  0.00     0.012 A 
HETATM   20  C   UNL     1       6.310  34.251  62.632  1.00  0.00     0.023 A 
HETATM   21  C   UNL     1       8.107  32.616  62.921  1.00  0.00     0.012 A 
HETATM   22  C   UNL     1       8.844  31.533  62.444  1.00  0.00     0.001 A 
HETATM   23  C   UNL     1       8.536  30.976  61.207  1.00  0.00     0.001 A 
BRANCH  15  24
HETATM   24  O   UNL     1       3.886  34.740  59.940  1.00  0.00    -0.355 OA
HETATM   25  C   UNL     1       3.331  33.838  58.985  1.00  0.00     0.210 C 
ENDBRANCH  15  24
ENDBRANCH   8  14
BRANCH  12  26
HETATM   26  N   UNL     1       6.505  38.816  63.970  1.00  0.00    -0.282 NA
HETATM   27  H   UNL     1       6.215  39.436  64.721  1.00  0.00     0.126 HD
HETATM   28  H   UNL     1       7.497  38.592  63.996  1.00  0.00     0.126 HD
ENDBRANCH  12  26
TORSDOF 3
ENDMDL
MODEL 4
REMARK VINA RESULT:      -9.2      3.008      5.689
REMARK  3 active torsions:
REMARK  status: ('A' for Active; 'I' for Inactive)
REMARK    1  A    between atoms: C_8  and  C_9 
REMARK    2  A    between atoms: C_10  and  O_11 
REMARK    3  A    between atoms: C_24  and  N_25 
ROOT
HETATM    1  C   UNL     1       3.900  31.033  54.138  1.00  0.00     0.070 C 
HETATM    2  C   UNL     1       4.641  29.910  53.524  1.00  0.00     0.035 A 
HETATM    3  N   UNL     1       4.957  29.872  52.184  1.00  0.00    -0.280 N 
HETATM    4  H   UNL     1       4.746  30.564  51.472  1.00  0.00     0.189 HD
HETATM    5  N   UNL     1       5.612  28.754  51.811  1.00  0.00    -0.148 NA
HETATM    6  C   UNL     1       5.711  28.086  52.952  1.00  0.00     0.199 A 
HETATM    7  C   UNL     1       5.162  28.748  54.055  1.00  0.00     0.034 A 
HETATM    8  C   UNL     1       5.201  28.126  55.409  1.00  0.00     0.107 C 
HETATM    9  C   UNL     1       5.598  26.665  55.299  1.00  0.00     0.067 C 
HETATM   10  C   UNL     1       5.194  25.749  56.443  1.00  0.00     0.020 C 
HETATM   11  N   UNL     1       4.859  24.989  57.392  1.00  0.00    -0.096 N 
HETATM   12  C   UNL     1       6.105  26.114  54.163  1.00  0.00     0.139 C 
HETATM   13  O   UNL     1       6.276  26.864  52.987  1.00  0.00    -0.277 OA
ENDROOT
BRANCH   8  14
HETATM   14  C   UNL     1       6.204  28.942  56.217  1.00  0.00    -0.010 A 
HETATM   15  C   UNL     1       5.771  29.776  57.257  1.00  0.00     0.076 A 
HETATM   16  C   UNL     1       6.694  30.479  58.042  1.00  0.00     0.049 A 
HETATM   17  C   UNL     1       8.072  30.404  57.779  1.00  0.00    -0.023 A 
HETATM   18  C   UNL     1       8.526  29.590  56.722  1.00  0.00    -0.025 A 
HETATM   19  C   UNL     1       9.011  31.113  58.546  1.00  0.00     0.012 A 
HETATM   20  C   UNL     1       7.593  28.860  55.969  1.00  0.00     0.023 A 
HETATM   21  C   UNL     1       9.901  29.517  56.446  1.00  0.00     0.012 A 
HETATM   22  C   UNL     1      10.819  30.235  57.211  1.00  0.00     0.001 A 
HETATM   23  C   UNL     1      10.375  31.028  58.264  1.00  0.00     0.001 A 
BRANCH  15  24
HETATM   24  O   UNL     1       4.427  29.814  57.527  1.00  0.00    -0.355 OA
HETATM   25  C   UNL     1       3.999  31.064  58.062  1.00  0.00     0.210 C 
ENDBRANCH  15  24
ENDBRANCH   8  14
BRANCH  12  26
HETATM   26  N   UNL     1       6.460  24.792  54.005  1.00  0.00    -0.282 NA
HETATM   27  H   UNL     1       6.022  24.129  54.639  1.00  0.00     0.126 HD
HETATM   28  H   UNL     1       6.421  24.502  53.030  1.00  0.00     0.126 HD
ENDBRANCH  12  26
TORSDOF 3
ENDMDL
MODEL 5
REMARK VINA RESULT:      -9.1      9.794     13.304
REMARK  3 active torsions:
REMARK  status: ('A' for Active; 'I' for Inactive)
REMARK    1  A    between atoms: C_8  and  C_9 
REMARK    2  A    between atoms: C_10  and  O_11 
REMARK    3  A    between atoms: C_24  and  N_25 
ROOT
HETATM    1  C   UNL     1       1.618  34.211  63.382  1.00  0.00     0.070 C 
HETATM    2  C   UNL     1       2.347  33.977  62.118  1.00  0.00     0.035 A 
HETATM    3  N   UNL     1       1.711  33.877  60.901  1.00  0.00    -0.280 N 
HETATM    4  H   UNL     1       0.718  33.948  60.707  1.00  0.00     0.189 HD
HETATM    5  N   UNL     1       2.545  33.637  59.868  1.00  0.00    -0.148 NA
HETATM    6  C   UNL     1       3.731  33.596  60.462  1.00  0.00     0.199 A 
HETATM    7  C   UNL     1       3.691  33.826  61.840  1.00  0.00     0.034 A 
HETATM    8  C   UNL     1       4.944  33.817  62.647  1.00  0.00     0.107 C 
HETATM    9  C   UNL     1       6.085  33.239  61.829  1.00  0.00     0.067 C 
HETATM   10  C   UNL     1       7.266  32.665  62.594  1.00  0.00     0.020 C 
HETATM   11  N   UNL     1       8.246  32.189  63.229  1.00  0.00    -0.096 N 
HETATM   12  C   UNL     1       6.010  33.035  60.486  1.00  0.00     0.139 C 
HETATM   13  O   UNL     1       4.844  33.324  59.756  1.00  0.00    -0.277 OA
ENDROOT
BRANCH   8  14
HETATM   14  C   UNL     1       5.194  35.266  63.051  1.00  0.00    -0.010 A 
HETATM   15  C   UNL     1       4.892  35.706  64.348  1.00  0.00     0.076 A 
HETATM   16  C   UNL     1       5.177  37.020  64.742  1.00  0.00     0.049 A 
HETATM   17  C   UNL     1       5.728  37.942  63.837  1.00  0.00    -0.023 A 
HETATM   18  C   UNL     1       6.016  37.526  62.521  1.00  0.00    -0.025 A 
HETATM   19  C   UNL     1       6.008  39.267  64.210  1.00  0.00     0.012 A 
HETATM   20  C   UNL     1       5.762  36.196  62.152  1.00  0.00     0.023 A 
HETATM   21  C   UNL     1       6.558  38.445  61.608  1.00  0.00     0.012 A 
HETATM   22  C   UNL     1       6.820  39.760  61.992  1.00  0.00     0.001 A 
HETATM   23  C   UNL     1       6.550  40.169  63.293  1.00  0.00     0.001 A 
BRANCH  15  24
HETATM   24  O   UNL     1       4.388  34.787  65.232  1.00  0.00    -0.355 OA
HETATM   25  C   UNL     1       3.570  35.374  66.242  1.00  0.00     0.210 C 
ENDBRANCH  15  24
ENDBRANCH   8  14
BRANCH  12  26
HETATM   26  N   UNL     1       7.006  32.495  59.702  1.00  0.00    -0.282 NA
HETATM   27  H   UNL     1       6.722  31.772  59.047  1.00  0.00     0.126 HD
HETATM   28  H   UNL     1       7.589  33.214  59.278  1.00  0.00     0.126 HD
ENDBRANCH  12  26
TORSDOF 3
ENDMDL
MODEL 6
REMARK VINA RESULT:      -9.0      9.898     13.587
REMARK  3 active torsions:
REMARK  status: ('A' for Active; 'I' for Inactive)
REMARK    1  A    between atoms: C_8  and  C_9 
REMARK    2  A    between atoms: C_10  and  O_11 
REMARK    3  A    between atoms: C_24  and  N_25 
ROOT
HETATM    1  C   UNL     1       4.303  32.239  60.631  1.00  0.00     0.070 C 
HETATM    2  C   UNL     1       5.358  32.384  61.656  1.00  0.00     0.035 A 
HETATM    3  N   UNL     1       6.567  31.730  61.576  1.00  0.00    -0.280 N 
HETATM    4  H   UNL     1       6.890  31.100  60.849  1.00  0.00     0.189 HD
HETATM    5  N   UNL     1       7.387  31.971  62.620  1.00  0.00    -0.148 NA
HETATM    6  C   UNL     1       6.668  32.803  63.362  1.00  0.00     0.199 A 
HETATM    7  C   UNL     1       5.421  33.126  62.819  1.00  0.00     0.034 A 
HETATM    8  C   UNL     1       4.501  34.055  63.533  1.00  0.00     0.107 C 
HETATM    9  C   UNL     1       4.986  34.277  64.954  1.00  0.00     0.067 C 
HETATM   10  C   UNL     1       3.957  34.735  65.975  1.00  0.00     0.020 C 
HETATM   11  N   UNL     1       3.104  35.115  66.822  1.00  0.00    -0.096 N 
HETATM   12  C   UNL     1       6.220  33.901  65.387  1.00  0.00     0.139 C 
HETATM   13  O   UNL     1       7.134  33.247  64.544  1.00  0.00    -0.277 OA
ENDROOT
BRANCH   8  14
HETATM   14  C   UNL     1       4.484  35.342  62.716  1.00  0.00    -0.010 A 
HETATM   15  C   UNL     1       3.342  35.711  61.991  1.00  0.00     0.076 A 
HETATM   16  C   UNL     1       3.301  36.923  61.289  1.00  0.00     0.049 A 
HETATM   17  C   UNL     1       4.416  37.776  61.255  1.00  0.00    -0.023 A 
HETATM   18  C   UNL     1       5.582  37.411  61.958  1.00  0.00    -0.025 A 
HETATM   19  C   UNL     1       4.398  38.988  60.546  1.00  0.00     0.012 A 
HETATM   20  C   UNL     1       5.596  36.213  62.689  1.00  0.00     0.023 A 
HETATM   21  C   UNL     1       6.705  38.255  61.921  1.00  0.00     0.012 A 
HETATM   22  C   UNL     1       6.674  39.450  61.203  1.00  0.00     0.001 A 
HETATM   23  C   UNL     1       5.520  39.819  60.520  1.00  0.00     0.001 A 
BRANCH  15  24
HETATM   24  O   UNL     1       2.248  34.887  62.061  1.00  0.00    -0.355 OA
HETATM   25  C   UNL     1       1.490  34.861  60.854  1.00  0.00     0.210 C 
ENDBRANCH  15  24
ENDBRANCH   8  14
BRANCH  12  26
HETATM   26  N   UNL     1       6.700  34.060  66.668  1.00  0.00    -0.282 NA
HETATM   27  H   UNL     1       7.254  33.293  67.041  1.00  0.00     0.126 HD
HETATM   28  H   UNL     1       7.136  34.970  66.802  1.00  0.00     0.126 HD
ENDBRANCH  12  26
TORSDOF 3
ENDMDL
MODEL 7
REMARK VINA RESULT:      -9.0      9.607     12.136
REMARK  3 active torsions:
REMARK  status: ('A' for Active; 'I' for Inactive)
REMARK    1  A    between atoms: C_8  and  C_9 
REMARK    2  A    between atoms: C_10  and  O_11 
REMARK    3  A    between atoms: C_24  and  N_25 
ROOT
HETATM    1  C   UNL     1       6.398  38.368  62.796  1.00  0.00     0.070 C 
HETATM    2  C   UNL     1       5.534  37.884  61.697  1.00  0.00     0.035 A 
HETATM    3  N   UNL     1       5.500  38.484  60.459  1.00  0.00    -0.280 N 
HETATM    4  H   UNL     1       6.029  39.289  60.140  1.00  0.00     0.189 HD
HETATM    5  N   UNL     1       4.631  37.913  59.600  1.00  0.00    -0.148 NA
HETATM    6  C   UNL     1       4.120  36.927  60.324  1.00  0.00     0.199 A 
HETATM    7  C   UNL     1       4.648  36.828  61.615  1.00  0.00     0.034 A 
HETATM    8  C   UNL     1       4.177  35.766  62.548  1.00  0.00     0.107 C 
HETATM    9  C   UNL     1       2.921  35.113  62.001  1.00  0.00     0.067 C 
HETATM   10  C   UNL     1       2.012  34.413  62.999  1.00  0.00     0.020 C 
HETATM   11  N   UNL     1       1.259  33.832  63.826  1.00  0.00    -0.096 N 
HETATM   12  C   UNL     1       2.481  35.295  60.727  1.00  0.00     0.139 C 
HETATM   13  O   UNL     1       3.155  36.133  59.822  1.00  0.00    -0.277 OA
ENDROOT
BRANCH   8  14
HETATM   14  C   UNL     1       5.334  34.781  62.681  1.00  0.00    -0.010 A 
HETATM   15  C   UNL     1       5.852  34.458  63.944  1.00  0.00     0.076 A 
HETATM   16  C   UNL     1       6.873  33.507  64.076  1.00  0.00     0.049 A 
HETATM   17  C   UNL     1       7.435  32.889  62.947  1.00  0.00    -0.023 A 
HETATM   18  C   UNL     1       6.944  33.219  61.667  1.00  0.00    -0.025 A 
HETATM   19  C   UNL     1       8.468  31.944  63.059  1.00  0.00     0.012 A 
HETATM   20  C   UNL     1       5.894  34.143  61.552  1.00  0.00     0.023 A 
HETATM   21  C   UNL     1       7.507  32.612  60.533  1.00  0.00     0.012 A 
HETATM   22  C   UNL     1       8.539  31.683  60.661  1.00  0.00     0.001 A 
HETATM   23  C   UNL     1       9.016  31.345  61.923  1.00  0.00     0.001 A 
BRANCH  15  24
HETATM   24  O   UNL     1       5.271  35.041  65.041  1.00  0.00    -0.355 OA
HETATM   25  C   UNL     1       4.579  34.109  65.868  1.00  0.00     0.210 C 
ENDBRANCH  15  24
ENDBRANCH   8  14
BRANCH  12  26
HETATM   26  N   UNL     1       1.339  34.744  60.188  1.00  0.00    -0.282 NA
HETATM   27  H   UNL     1       0.705  35.387  59.722  1.00  0.00     0.126 HD
HETATM   28  H   UNL     1       1.540  33.911  59.640  1.00  0.00     0.126 HD
ENDBRANCH  12  26
TORSDOF 3
ENDMDL
MODEL 8
REMARK VINA RESULT:      -8.5      9.766     13.169
REMARK  3 active torsions:
REMARK  status: ('A' for Active; 'I' for Inactive)
REMARK    1  A    between atoms: C_8  and  C_9 
REMARK    2  A    between atoms: C_10  and  O_11 
REMARK    3  A    between atoms: C_24  and  N_25 
ROOT
HETATM    1  C   UNL     1       6.538  33.076  60.689  1.00  0.00     0.070 C 
HETATM    2  C   UNL     1       5.073  33.002  60.500  1.00  0.00     0.035 A 
HETATM    3  N   UNL     1       4.404  31.810  60.334  1.00  0.00    -0.280 N 
HETATM    4  H   UNL     1       4.792  30.872  60.321  1.00  0.00     0.189 HD
HETATM    5  N   UNL     1       3.075  31.952  60.150  1.00  0.00    -0.148 NA
HETATM    6  C   UNL     1       2.917  33.267  60.213  1.00  0.00     0.199 A 
HETATM    7  C   UNL     1       4.097  33.977  60.455  1.00  0.00     0.034 A 
HETATM    8  C   UNL     1       4.079  35.464  60.558  1.00  0.00     0.107 C 
HETATM    9  C   UNL     1       2.749  36.004  60.066  1.00  0.00     0.067 C 
HETATM   10  C   UNL     1       2.717  37.450  59.599  1.00  0.00     0.020 C 
HETATM   11  N   UNL     1       2.691  38.650  59.212  1.00  0.00    -0.096 N 
HETATM   12  C   UNL     1       1.663  35.216  59.840  1.00  0.00     0.139 C 
HETATM   13  O   UNL     1       1.706  33.824  60.024  1.00  0.00    -0.277 OA
ENDROOT
BRANCH   8  14
HETATM   14  C   UNL     1       4.330  35.786  62.027  1.00  0.00    -0.010 A 
HETATM   15  C   UNL     1       5.179  36.841  62.391  1.00  0.00     0.076 A 
HETATM   16  C   UNL     1       5.364  37.180  63.737  1.00  0.00     0.049 A 
HETATM   17  C   UNL     1       4.741  36.444  64.759  1.00  0.00    -0.023 A 
HETATM   18  C   UNL     1       3.902  35.365  64.415  1.00  0.00    -0.025 A 
HETATM   19  C   UNL     1       4.925  36.761  66.115  1.00  0.00     0.012 A 
HETATM   20  C   UNL     1       3.695  35.061  63.061  1.00  0.00     0.023 A 
HETATM   21  C   UNL     1       3.284  34.619  65.432  1.00  0.00     0.012 A 
HETATM   22  C   UNL     1       3.485  34.939  66.774  1.00  0.00     0.001 A 
HETATM   23  C   UNL     1       4.301  36.013  67.115  1.00  0.00     0.001 A 
BRANCH  15  24
HETATM   24  O   UNL     1       5.753  37.574  61.383  1.00  0.00    -0.355 OA
HETATM   25  C   UNL     1       5.592  38.980  61.554  1.00  0.00     0.210 C 
ENDBRANCH  15  24
ENDBRANCH   8  14
BRANCH  12  26
HETATM   26  N   UNL     1       0.442  35.652  59.374  1.00  0.00    -0.282 NA
HETATM   27  H   UNL     1       0.358  35.763  58.367  1.00  0.00     0.126 HD
HETATM   28  H   UNL     1      -0.330  35.133  59.786  1.00  0.00     0.126 HD
ENDBRANCH  12  26
TORSDOF 3
ENDMDL
MODEL 9
REMARK VINA RESULT:      -8.4      5.179      7.695
REMARK  3 active torsions:
REMARK  status: ('A' for Active; 'I' for Inactive)
REMARK    1  A    between atoms: C_8  and  C_9 
REMARK    2  A    between atoms: C_10  and  O_11 
REMARK    3  A    between atoms: C_24  and  N_25 
ROOT
HETATM    1  C   UNL     1       4.901  34.668  57.021  1.00  0.00     0.070 C 
HETATM    2  C   UNL     1       4.205  34.123  58.207  1.00  0.00     0.035 A 
HETATM    3  N   UNL     1       2.857  34.299  58.423  1.00  0.00    -0.280 N 
HETATM    4  H   UNL     1       2.189  34.791  57.839  1.00  0.00     0.189 HD
HETATM    5  N   UNL     1       2.414  33.750  59.573  1.00  0.00    -0.148 NA
HETATM    6  C   UNL     1       3.516  33.212  60.076  1.00  0.00     0.199 A 
HETATM    7  C   UNL     1       4.652  33.376  59.278  1.00  0.00     0.034 A 
HETATM    8  C   UNL     1       5.967  32.822  59.707  1.00  0.00     0.107 C 
HETATM    9  C   UNL     1       5.903  32.399  61.164  1.00  0.00     0.067 C 
HETATM   10  C   UNL     1       7.219  32.314  61.920  1.00  0.00     0.020 C 
HETATM   11  N   UNL     1       8.311  32.243  62.547  1.00  0.00    -0.096 N 
HETATM   12  C   UNL     1       4.738  32.292  61.857  1.00  0.00     0.139 C 
HETATM   13  O   UNL     1       3.497  32.596  61.273  1.00  0.00    -0.277 OA
ENDROOT
BRANCH   8  14
HETATM   14  C   UNL     1       6.255  31.651  58.774  1.00  0.00    -0.010 A 
HETATM   15  C   UNL     1       7.575  31.285  58.476  1.00  0.00     0.076 A 
HETATM   16  C   UNL     1       7.845  30.172  57.669  1.00  0.00     0.049 A 
HETATM   17  C   UNL     1       6.802  29.422  57.100  1.00  0.00    -0.023 A 
HETATM   18  C   UNL     1       5.467  29.789  57.368  1.00  0.00    -0.025 A 
HETATM   19  C   UNL     1       7.052  28.312  56.277  1.00  0.00     0.012 A 
HETATM   20  C   UNL     1       5.212  30.882  58.210  1.00  0.00     0.023 A 
HETATM   21  C   UNL     1       4.419  29.051  56.795  1.00  0.00     0.012 A 
HETATM   22  C   UNL     1       4.685  27.957  55.972  1.00  0.00     0.001 A 
HETATM   23  C   UNL     1       6.001  27.585  55.717  1.00  0.00     0.001 A 
BRANCH  15  24
HETATM   24  O   UNL     1       8.585  32.002  59.066  1.00  0.00    -0.355 OA
HETATM   25  C   UNL     1       9.883  31.580  58.654  1.00  0.00     0.210 C 
ENDBRANCH  15  24
ENDBRANCH   8  14
BRANCH  12  26
HETATM   26  N   UNL     1       4.626  31.934  63.183  1.00  0.00    -0.282 NA
HETATM   27  H   UNL     1       4.830  32.660  63.865  1.00  0.00     0.126 HD
HETATM   28  H   UNL     1       3.758  31.439  63.372  1.00  0.00     0.126 HD
ENDBRANCH  12  26
TORSDOF 3
ENDMDL
MODEL 10
REMARK VINA RESULT:      -8.3     10.244     13.214
REMARK  3 active torsions:
REMARK  status: ('A' for Active; 'I' for Inactive)
REMARK    1  A    between atoms: C_8  and  C_9 
REMARK    2  A    between atoms: C_10  and  O_11 
REMARK    3  A    between atoms: C_24  and  N_25 
ROOT
HETATM    1  C   UNL     1       4.386  32.267  60.969  1.00  0.00     0.070 C 
HETATM    2  C   UNL     1       3.539  33.465  61.153  1.00  0.00     0.035 A 
HETATM    3  N   UNL     1       2.171  33.439  60.995  1.00  0.00    -0.280 N 
HETATM    4  H   UNL     1       1.585  32.648  60.751  1.00  0.00     0.189 HD
HETATM    5  N   UNL     1       1.579  34.637  61.180  1.00  0.00    -0.148 NA
HETATM    6  C   UNL     1       2.607  35.423  61.469  1.00  0.00     0.199 A 
HETATM    7  C   UNL     1       3.842  34.767  61.499  1.00  0.00     0.034 A 
HETATM    8  C   UNL     1       5.091  35.515  61.814  1.00  0.00     0.107 C 
HETATM    9  C   UNL     1       4.829  37.010  61.761  1.00  0.00     0.067 C 
HETATM   10  C   UNL     1       6.027  37.916  61.528  1.00  0.00     0.020 C 
HETATM   11  N   UNL     1       7.021  38.667  61.336  1.00  0.00    -0.096 N 
HETATM   12  C   UNL     1       3.580  37.546  61.711  1.00  0.00     0.139 C 
HETATM   13  O   UNL     1       2.429  36.741  61.678  1.00  0.00    -0.277 OA
ENDROOT
BRANCH   8  14
HETATM   14  C   UNL     1       5.522  35.049  63.200  1.00  0.00    -0.010 A 
HETATM   15  C   UNL     1       6.538  34.093  63.347  1.00  0.00     0.076 A 
HETATM   16  C   UNL     1       6.980  33.708  64.619  1.00  0.00     0.049 A 
HETATM   17  C   UNL     1       6.387  34.233  65.779  1.00  0.00    -0.023 A 
HETATM   18  C   UNL     1       5.348  35.177  65.653  1.00  0.00    -0.025 A 
HETATM   19  C   UNL     1       6.808  33.848  67.063  1.00  0.00     0.012 A 
HETATM   20  C   UNL     1       4.942  35.583  64.372  1.00  0.00     0.023 A 
HETATM   21  C   UNL     1       4.744  35.699  66.808  1.00  0.00     0.012 A 
HETATM   22  C   UNL     1       5.166  35.299  68.076  1.00  0.00     0.001 A 
HETATM   23  C   UNL     1       6.201  34.378  68.203  1.00  0.00     0.001 A 
BRANCH  15  24
HETATM   24  O   UNL     1       7.133  33.615  62.207  1.00  0.00    -0.355 OA
HETATM   25  C   UNL     1       7.920  32.448  62.436  1.00  0.00     0.210 C 
ENDBRANCH  15  24
ENDBRANCH   8  14
BRANCH  12  26
HETATM   26  N   UNL     1       3.289  38.890  61.640  1.00  0.00    -0.282 NA
HETATM   27  H   UNL     1       3.701  39.400  60.864  1.00  0.00     0.126 HD
HETATM   28  H   UNL     1       2.294  39.071  61.756  1.00  0.00     0.126 HD
ENDBRANCH  12  26
TORSDOF 3
ENDMDL
