MODEL 1
REMARK VINA RESULT:      -9.6      0.000      0.000
REMARK  8 active torsions:
REMARK  status: ('A' for Active; 'I' for Inactive)
REMARK    1  A    between atoms: C_2  and  O_3 
REMARK    2  A    between atoms: O_3  and  C_4 
REMARK    3  A    between atoms: C_5  and  N_6 
REMARK       I    between atoms: N_6  and  C_7 
REMARK    4  A    between atoms: C_7  and  C_8 
REMARK    5  A    between atoms: C_8  and  C_9 
REMARK    6  A    between atoms: C_9  and  N_10 
REMARK    7  A    between atoms: N_10  and  S_11 
REMARK    8  A    between atoms: S_11  and  C_12 
ROOT
HETATM    1  N   UNL     1       8.358  28.118  55.739  1.00  0.00    -0.315 N 
HETATM    2  H   UNL     1       9.127  27.534  55.414  1.00  0.00     0.172 HD
ENDROOT
BRANCH   1   3
HETATM    3  C   UNL     1       8.626  29.522  56.085  1.00  0.00     0.141 C 
BRANCH   3   4
HETATM    4  C   UNL     1      10.006  29.663  56.717  1.00  0.00     0.123 C 
BRANCH   4   5
HETATM    5  C   UNL     1       9.945  30.625  57.889  1.00  0.00     0.223 C 
HETATM    6  N   UNL     1       8.962  30.299  58.800  1.00  0.00    -0.325 N 
HETATM    7  H   UNL     1       8.303  29.562  58.569  1.00  0.00     0.169 HD
HETATM    8  O   UNL     1      10.734  31.560  57.983  1.00  0.00    -0.273 OA
BRANCH   6   9
HETATM    9  C   UNL     1       8.675  30.941  60.028  1.00  0.00     0.068 A 
HETATM   10  C   UNL     1       7.729  31.990  60.000  1.00  0.00     0.095 A 
HETATM   11  C   UNL     1       7.394  32.654  61.184  1.00  0.00     0.039 A 
HETATM   12  C   UNL     1       7.995  32.287  62.390  1.00  0.00     0.003 A 
HETATM   13  C   UNL     1       8.929  31.255  62.418  1.00  0.00     0.002 A 
HETATM   14  C   UNL     1       9.267  30.584  61.242  1.00  0.00     0.032 A 
BRANCH  10  15
HETATM   15  O   UNL     1       7.198  32.278  58.761  1.00  0.00    -0.349 OA
BRANCH  15  16
HETATM   16  C   UNL     1       5.787  32.120  58.614  1.00  0.00     0.171 C 
HETATM   17  C   UNL     1       5.538  30.871  57.788  1.00  0.00     0.034 C 
ENDBRANCH  15  16
ENDBRANCH  10  15
ENDBRANCH   6   9
ENDBRANCH   4   5
ENDBRANCH   3   4
ENDBRANCH   1   3
BRANCH   1  18
HETATM   18  S   UNL     1       7.326  27.248  56.754  1.00  0.00     0.258 S 
HETATM   19  O   UNL     1       7.783  27.524  58.099  1.00  0.00    -0.201 OA
HETATM   20  O   UNL     1       5.963  27.507  56.351  1.00  0.00    -0.201 OA
BRANCH  18  21
HETATM   21  C   UNL     1       7.721  25.558  56.374  1.00  0.00     0.080 A 
HETATM   22  C   UNL     1       7.405  25.051  55.108  1.00  0.00     0.034 A 
HETATM   23  C   UNL     1       7.696  23.717  54.802  1.00  0.00    -0.029 A 
HETATM   24  C   UNL     1       8.253  22.892  55.785  1.00  0.00     0.041 A 
HETATM   25  C   UNL     1       7.315  23.124  53.473  1.00  0.00     0.050 C 
HETATM   26  N   UNL     1       8.508  21.550  55.495  1.00  0.00    -0.327 N 
HETATM   27  C   UNL     1       8.524  23.388  57.063  1.00  0.00     0.031 A 
HETATM   28  C   UNL     1       8.427  21.006  54.239  1.00  0.00     0.222 C 
HETATM   29  H   UNL     1       8.769  20.909  56.233  1.00  0.00     0.169 HD
HETATM   30  O   UNL     1       8.613  19.805  54.058  1.00  0.00    -0.273 OA
HETATM   31  C   UNL     1       8.239  21.978  53.097  1.00  0.00     0.108 C 
HETATM   32  C   UNL     1       8.266  24.729  57.357  1.00  0.00     0.027 A 
ENDBRANCH  18  21
ENDBRANCH   1  18
TORSDOF 8
ENDMDL
MODEL 2
REMARK VINA RESULT:      -9.4      1.317      2.151
REMARK  8 active torsions:
REMARK  status: ('A' for Active; 'I' for Inactive)
REMARK    1  A    between atoms: C_2  and  O_3 
REMARK    2  A    between atoms: O_3  and  C_4 
REMARK    3  A    between atoms: C_5  and  N_6 
REMARK       I    between atoms: N_6  and  C_7 
REMARK    4  A    between atoms: C_7  and  C_8 
REMARK    5  A    between atoms: C_8  and  C_9 
REMARK    6  A    between atoms: C_9  and  N_10 
REMARK    7  A    between atoms: N_10  and  S_11 
REMARK    8  A    between atoms: S_11  and  C_12 
ROOT
HETATM    1  N   UNL     1       7.529  27.739  55.690  1.00  0.00    -0.315 N 
HETATM    2  H   UNL     1       7.102  27.487  56.580  1.00  0.00     0.172 HD
ENDROOT
BRANCH   1   3
HETATM    3  C   UNL     1       8.279  29.001  55.591  1.00  0.00     0.141 C 
BRANCH   3   4
HETATM    4  C   UNL     1       9.354  29.069  56.668  1.00  0.00     0.123 C 
BRANCH   4   5
HETATM    5  C   UNL     1       8.715  29.290  58.027  1.00  0.00     0.223 C 
HETATM    6  N   UNL     1       9.135  30.456  58.634  1.00  0.00    -0.325 N 
HETATM    7  H   UNL     1       9.896  30.981  58.215  1.00  0.00     0.169 HD
HETATM    8  O   UNL     1       7.890  28.500  58.475  1.00  0.00    -0.273 OA
BRANCH   6   9
HETATM    9  C   UNL     1       8.696  30.994  59.867  1.00  0.00     0.068 A 
HETATM   10  C   UNL     1       7.623  31.912  59.824  1.00  0.00     0.095 A 
HETATM   11  C   UNL     1       7.137  32.468  61.012  1.00  0.00     0.039 A 
HETATM   12  C   UNL     1       7.712  32.122  62.236  1.00  0.00     0.003 A 
HETATM   13  C   UNL     1       8.771  31.219  62.280  1.00  0.00     0.002 A 
HETATM   14  C   UNL     1       9.260  30.657  61.100  1.00  0.00     0.032 A 
BRANCH  10  15
HETATM   15  O   UNL     1       7.130  32.190  58.568  1.00  0.00    -0.349 OA
BRANCH  15  16
HETATM   16  C   UNL     1       5.725  32.025  58.377  1.00  0.00     0.171 C 
HETATM   17  C   UNL     1       5.515  30.946  57.331  1.00  0.00     0.034 C 
ENDBRANCH  15  16
ENDBRANCH  10  15
ENDBRANCH   6   9
ENDBRANCH   4   5
ENDBRANCH   3   4
ENDBRANCH   1   3
BRANCH   1  18
HETATM   18  S   UNL     1       6.523  27.326  54.398  1.00  0.00     0.258 S 
HETATM   19  O   UNL     1       5.187  27.262  54.953  1.00  0.00    -0.201 OA
HETATM   20  O   UNL     1       6.837  28.187  53.281  1.00  0.00    -0.201 OA
BRANCH  18  21
HETATM   21  C   UNL     1       7.036  25.671  54.005  1.00  0.00     0.080 A 
HETATM   22  C   UNL     1       7.217  24.748  55.042  1.00  0.00     0.034 A 
HETATM   23  C   UNL     1       7.637  23.446  54.747  1.00  0.00    -0.029 A 
HETATM   24  C   UNL     1       7.921  23.100  53.421  1.00  0.00     0.041 A 
HETATM   25  C   UNL     1       7.899  22.448  55.841  1.00  0.00     0.050 C 
HETATM   26  N   UNL     1       8.378  21.812  53.128  1.00  0.00    -0.327 N 
HETATM   27  C   UNL     1       7.785  24.036  52.394  1.00  0.00     0.031 A 
HETATM   28  C   UNL     1       8.396  20.780  54.030  1.00  0.00     0.222 C 
HETATM   29  H   UNL     1       8.726  21.593  52.204  1.00  0.00     0.169 HD
HETATM   30  O   UNL     1       8.861  19.684  53.725  1.00  0.00    -0.273 OA
HETATM   31  C   UNL     1       7.697  21.025  55.347  1.00  0.00     0.108 C 
HETATM   32  C   UNL     1       7.332  25.325  52.684  1.00  0.00     0.027 A 
ENDBRANCH  18  21
ENDBRANCH   1  18
TORSDOF 8
ENDMDL
MODEL 3
REMARK VINA RESULT:      -9.3      1.975      3.693
REMARK  8 active torsions:
REMARK  status: ('A' for Active; 'I' for Inactive)
REMARK    1  A    between atoms: C_2  and  O_3 
REMARK    2  A    between atoms: O_3  and  C_4 
REMARK    3  A    between atoms: C_5  and  N_6 
REMARK       I    between atoms: N_6  and  C_7 
REMARK    4  A    between atoms: C_7  and  C_8 
REMARK    5  A    between atoms: C_8  and  C_9 
REMARK    6  A    between atoms: C_9  and  N_10 
REMARK    7  A    between atoms: N_10  and  S_11 
REMARK    8  A    between atoms: S_11  and  C_12 
ROOT
HETATM    1  N   UNL     1       4.966  26.879  54.740  1.00  0.00    -0.315 N 
HETATM    2  H   UNL     1       4.053  26.755  54.304  1.00  0.00     0.172 HD
ENDROOT
BRANCH   1   3
HETATM    3  C   UNL     1       5.076  27.725  55.939  1.00  0.00     0.141 C 
BRANCH   3   4
HETATM    4  C   UNL     1       5.592  26.912  57.120  1.00  0.00     0.123 C 
BRANCH   4   5
HETATM    5  C   UNL     1       7.000  27.352  57.477  1.00  0.00     0.223 C 
HETATM    6  N   UNL     1       7.287  28.632  57.048  1.00  0.00    -0.325 N 
HETATM    7  H   UNL     1       6.624  29.107  56.444  1.00  0.00     0.169 HD
HETATM    8  O   UNL     1       7.751  26.619  58.112  1.00  0.00    -0.273 OA
BRANCH   6   9
HETATM    9  C   UNL     1       8.475  29.370  57.266  1.00  0.00     0.068 A 
HETATM   10  C   UNL     1       8.437  30.375  58.258  1.00  0.00     0.095 A 
HETATM   11  C   UNL     1       9.583  31.129  58.527  1.00  0.00     0.039 A 
HETATM   12  C   UNL     1      10.761  30.894  57.816  1.00  0.00     0.003 A 
HETATM   13  C   UNL     1      10.800  29.905  56.836  1.00  0.00     0.002 A 
HETATM   14  C   UNL     1       9.661  29.146  56.563  1.00  0.00     0.032 A 
BRANCH  10  15
HETATM   15  O   UNL     1       7.226  30.531  58.898  1.00  0.00    -0.349 OA
BRANCH  15  16
HETATM   16  C   UNL     1       6.605  31.812  58.794  1.00  0.00     0.171 C 
HETATM   17  C   UNL     1       6.416  32.360  60.197  1.00  0.00     0.034 C 
ENDBRANCH  15  16
ENDBRANCH  10  15
ENDBRANCH   6   9
ENDBRANCH   4   5
ENDBRANCH   3   4
ENDBRANCH   1   3
BRANCH   1  18
HETATM   18  S   UNL     1       6.179  27.020  53.573  1.00  0.00     0.258 S 
HETATM   19  O   UNL     1       5.490  27.309  52.332  1.00  0.00    -0.201 OA
HETATM   20  O   UNL     1       7.208  27.894  54.086  1.00  0.00    -0.201 OA
BRANCH  18  21
HETATM   21  C   UNL     1       6.829  25.371  53.470  1.00  0.00     0.080 A 
HETATM   22  C   UNL     1       6.918  24.598  54.634  1.00  0.00     0.034 A 
HETATM   23  C   UNL     1       7.445  23.303  54.570  1.00  0.00    -0.029 A 
HETATM   24  C   UNL     1       7.925  22.817  53.349  1.00  0.00     0.041 A 
HETATM   25  C   UNL     1       7.610  22.470  55.811  1.00  0.00     0.050 C 
HETATM   26  N   UNL     1       8.487  21.539  53.290  1.00  0.00    -0.327 N 
HETATM   27  C   UNL     1       7.879  23.606  52.198  1.00  0.00     0.031 A 
HETATM   28  C   UNL     1       8.439  20.630  54.314  1.00  0.00     0.222 C 
HETATM   29  H   UNL     1       8.970  21.233  52.455  1.00  0.00     0.169 HD
HETATM   30  O   UNL     1       9.000  19.541  54.219  1.00  0.00    -0.273 OA
HETATM   31  C   UNL     1       7.555  20.985  55.488  1.00  0.00     0.108 C 
HETATM   32  C   UNL     1       7.321  24.886  52.255  1.00  0.00     0.027 A 
ENDBRANCH  18  21
ENDBRANCH   1  18
TORSDOF 8
ENDMDL
MODEL 4
REMARK VINA RESULT:      -9.3      1.261      2.604
REMARK  8 active torsions:
REMARK  status: ('A' for Active; 'I' for Inactive)
REMARK    1  A    between atoms: C_2  and  O_3 
REMARK    2  A    between atoms: O_3  and  C_4 
REMARK    3  A    between atoms: C_5  and  N_6 
REMARK       I    between atoms: N_6  and  C_7 
REMARK    4  A    between atoms: C_7  and  C_8 
REMARK    5  A    between atoms: C_8  and  C_9 
REMARK    6  A    between atoms: C_9  and  N_10 
REMARK    7  A    between atoms: N_10  and  S_11 
REMARK    8  A    between atoms: S_11  and  C_12 
ROOT
HETATM    1  N   UNL     1       5.883  27.828  56.507  1.00  0.00    -0.315 N 
HETATM    2  H   UNL     1       5.630  27.783  55.521  1.00  0.00     0.172 HD
ENDROOT
BRANCH   1   3
HETATM    3  C   UNL     1       5.211  28.810  57.372  1.00  0.00     0.141 C 
BRANCH   3   4
HETATM    4  C   UNL     1       5.249  30.195  56.737  1.00  0.00     0.123 C 
BRANCH   4   5
HETATM    5  C   UNL     1       5.946  31.173  57.665  1.00  0.00     0.223 C 
HETATM    6  N   UNL     1       6.751  30.549  58.595  1.00  0.00    -0.325 N 
HETATM    7  H   UNL     1       6.716  29.537  58.674  1.00  0.00     0.169 HD
HETATM    8  O   UNL     1       5.800  32.385  57.534  1.00  0.00    -0.273 OA
BRANCH   6   9
HETATM    9  C   UNL     1       7.585  31.158  59.563  1.00  0.00     0.068 A 
HETATM   10  C   UNL     1       8.959  31.266  59.253  1.00  0.00     0.095 A 
HETATM   11  C   UNL     1       9.831  31.869  60.165  1.00  0.00     0.039 A 
HETATM   12  C   UNL     1       9.348  32.360  61.379  1.00  0.00     0.003 A 
HETATM   13  C   UNL     1       7.994  32.253  61.686  1.00  0.00     0.002 A 
HETATM   14  C   UNL     1       7.116  31.654  60.781  1.00  0.00     0.032 A 
BRANCH  10  15
HETATM   15  O   UNL     1       9.335  30.746  58.033  1.00  0.00    -0.349 OA
BRANCH  15  16
HETATM   16  C   UNL     1      10.715  30.858  57.685  1.00  0.00     0.171 C 
HETATM   17  C   UNL     1      11.124  29.586  56.965  1.00  0.00     0.034 C 
ENDBRANCH  15  16
ENDBRANCH  10  15
ENDBRANCH   6   9
ENDBRANCH   4   5
ENDBRANCH   3   4
ENDBRANCH   1   3
BRANCH   1  18
HETATM   18  S   UNL     1       7.546  27.616  56.714  1.00  0.00     0.258 S 
HETATM   19  O   UNL     1       8.169  28.420  55.684  1.00  0.00    -0.201 OA
HETATM   20  O   UNL     1       7.861  27.803  58.112  1.00  0.00    -0.201 OA
BRANCH  18  21
HETATM   21  C   UNL     1       7.786  25.906  56.299  1.00  0.00     0.080 A 
HETATM   22  C   UNL     1       7.391  25.447  55.036  1.00  0.00     0.034 A 
HETATM   23  C   UNL     1       7.559  24.099  54.703  1.00  0.00    -0.029 A 
HETATM   24  C   UNL     1       8.072  23.214  55.658  1.00  0.00     0.041 A 
HETATM   25  C   UNL     1       7.090  23.562  53.379  1.00  0.00     0.050 C 
HETATM   26  N   UNL     1       8.204  21.860  55.342  1.00  0.00    -0.327 N 
HETATM   27  C   UNL     1       8.421  23.664  56.933  1.00  0.00     0.031 A 
HETATM   28  C   UNL     1       8.041  21.345  54.082  1.00  0.00     0.222 C 
HETATM   29  H   UNL     1       8.431  21.187  56.062  1.00  0.00     0.169 HD
HETATM   30  O   UNL     1       8.118  20.136  53.878  1.00  0.00    -0.273 OA
HETATM   31  C   UNL     1       7.902  22.348  52.959  1.00  0.00     0.108 C 
HETATM   32  C   UNL     1       8.286  25.017  57.254  1.00  0.00     0.027 A 
ENDBRANCH  18  21
ENDBRANCH   1  18
TORSDOF 8
ENDMDL
MODEL 5
REMARK VINA RESULT:      -9.2      1.668      3.059
REMARK  8 active torsions:
REMARK  status: ('A' for Active; 'I' for Inactive)
REMARK    1  A    between atoms: C_2  and  O_3 
REMARK    2  A    between atoms: O_3  and  C_4 
REMARK    3  A    between atoms: C_5  and  N_6 
REMARK       I    between atoms: N_6  and  C_7 
REMARK    4  A    between atoms: C_7  and  C_8 
REMARK    5  A    between atoms: C_8  and  C_9 
REMARK    6  A    between atoms: C_9  and  N_10 
REMARK    7  A    between atoms: N_10  and  S_11 
REMARK    8  A    between atoms: S_11  and  C_12 
ROOT
HETATM    1  N   UNL     1       6.369  27.445  55.698  1.00  0.00    -0.315 N 
HETATM    2  H   UNL     1       6.161  26.503  56.026  1.00  0.00     0.172 HD
ENDROOT
BRANCH   1   3
HETATM    3  C   UNL     1       5.482  28.551  56.092  1.00  0.00     0.141 C 
BRANCH   3   4
HETATM    4  C   UNL     1       6.281  29.834  56.285  1.00  0.00     0.123 C 
BRANCH   4   5
HETATM    5  C   UNL     1       7.061  29.769  57.586  1.00  0.00     0.223 C 
HETATM    6  N   UNL     1       7.349  31.016  58.101  1.00  0.00    -0.325 N 
HETATM    7  H   UNL     1       7.149  31.837  57.539  1.00  0.00     0.169 HD
HETATM    8  O   UNL     1       7.349  28.692  58.099  1.00  0.00    -0.273 OA
BRANCH   6   9
HETATM    9  C   UNL     1       8.002  31.317  59.320  1.00  0.00     0.068 A 
HETATM   10  C   UNL     1       9.384  31.604  59.257  1.00  0.00     0.095 A 
HETATM   11  C   UNL     1      10.080  31.921  60.427  1.00  0.00     0.039 A 
HETATM   12  C   UNL     1       9.416  31.950  61.655  1.00  0.00     0.003 A 
HETATM   13  C   UNL     1       8.055  31.666  61.718  1.00  0.00     0.002 A 
HETATM   14  C   UNL     1       7.351  31.351  60.555  1.00  0.00     0.032 A 
BRANCH  10  15
HETATM   15  O   UNL     1       9.946  31.543  58.000  1.00  0.00    -0.349 OA
BRANCH  15  16
HETATM   16  C   UNL     1      10.852  30.468  57.754  1.00  0.00     0.171 C 
HETATM   17  C   UNL     1      10.462  29.815  56.440  1.00  0.00     0.034 C 
ENDBRANCH  15  16
ENDBRANCH  10  15
ENDBRANCH   6   9
ENDBRANCH   4   5
ENDBRANCH   3   4
ENDBRANCH   1   3
BRANCH   1  18
HETATM   18  S   UNL     1       6.923  27.421  54.102  1.00  0.00     0.258 S 
HETATM   19  O   UNL     1       5.770  27.743  53.288  1.00  0.00    -0.201 OA
HETATM   20  O   UNL     1       8.141  28.195  54.029  1.00  0.00    -0.201 OA
BRANCH  18  21
HETATM   21  C   UNL     1       7.319  25.709  53.843  1.00  0.00     0.080 A 
HETATM   22  C   UNL     1       7.484  24.870  54.951  1.00  0.00     0.034 A 
HETATM   23  C   UNL     1       7.812  23.523  54.761  1.00  0.00    -0.029 A 
HETATM   24  C   UNL     1       8.024  23.045  53.463  1.00  0.00     0.041 A 
HETATM   25  C   UNL     1       8.056  22.610  55.930  1.00  0.00     0.050 C 
HETATM   26  N   UNL     1       8.390  21.710  53.271  1.00  0.00    -0.327 N 
HETATM   27  C   UNL     1       7.905  23.894  52.361  1.00  0.00     0.031 A 
HETATM   28  C   UNL     1       8.381  20.761  54.261  1.00  0.00     0.222 C 
HETATM   29  H   UNL     1       8.689  21.389  52.360  1.00  0.00     0.169 HD
HETATM   30  O   UNL     1       8.766  19.616  54.040  1.00  0.00    -0.273 OA
HETATM   31  C   UNL     1       7.749  21.165  55.573  1.00  0.00     0.108 C 
HETATM   32  C   UNL     1       7.542  25.230  52.549  1.00  0.00     0.027 A 
ENDBRANCH  18  21
ENDBRANCH   1  18
TORSDOF 8
ENDMDL
MODEL 6
REMARK VINA RESULT:      -8.9      3.162     10.253
REMARK  8 active torsions:
REMARK  status: ('A' for Active; 'I' for Inactive)
REMARK    1  A    between atoms: C_2  and  O_3 
REMARK    2  A    between atoms: O_3  and  C_4 
REMARK    3  A    between atoms: C_5  and  N_6 
REMARK       I    between atoms: N_6  and  C_7 
REMARK    4  A    between atoms: C_7  and  C_8 
REMARK    5  A    between atoms: C_8  and  C_9 
REMARK    6  A    between atoms: C_9  and  N_10 
REMARK    7  A    between atoms: N_10  and  S_11 
REMARK    8  A    between atoms: S_11  and  C_12 
ROOT
HETATM    1  N   UNL     1       7.545  30.248  59.394  1.00  0.00    -0.315 N 
HETATM    2  H   UNL     1       7.887  29.968  60.313  1.00  0.00     0.172 HD
ENDROOT
BRANCH   1   3
HETATM    3  C   UNL     1       8.033  29.534  58.204  1.00  0.00     0.141 C 
BRANCH   3   4
HETATM    4  C   UNL     1       6.936  28.650  57.624  1.00  0.00     0.123 C 
BRANCH   4   5
HETATM    5  C   UNL     1       7.532  27.350  57.114  1.00  0.00     0.223 C 
HETATM    6  N   UNL     1       6.707  26.696  56.222  1.00  0.00    -0.325 N 
HETATM    7  H   UNL     1       5.762  27.042  56.083  1.00  0.00     0.169 HD
HETATM    8  O   UNL     1       8.649  26.985  57.466  1.00  0.00    -0.273 OA
BRANCH   6   9
HETATM    9  C   UNL     1       6.976  25.500  55.515  1.00  0.00     0.068 A 
HETATM   10  C   UNL     1       7.178  25.608  54.121  1.00  0.00     0.095 A 
HETATM   11  C   UNL     1       7.459  24.463  53.370  1.00  0.00     0.039 A 
HETATM   12  C   UNL     1       7.537  23.216  53.993  1.00  0.00     0.003 A 
HETATM   13  C   UNL     1       7.336  23.108  55.366  1.00  0.00     0.002 A 
HETATM   14  C   UNL     1       7.057  24.246  56.124  1.00  0.00     0.032 A 
BRANCH  10  15
HETATM   15  O   UNL     1       7.074  26.881  53.603  1.00  0.00    -0.349 OA
BRANCH  15  16
HETATM   16  C   UNL     1       6.150  27.065  52.531  1.00  0.00     0.171 C 
HETATM   17  C   UNL     1       4.751  27.106  53.117  1.00  0.00     0.034 C 
ENDBRANCH  15  16
ENDBRANCH  10  15
ENDBRANCH   6   9
ENDBRANCH   4   5
ENDBRANCH   3   4
ENDBRANCH   1   3
BRANCH   1  18
HETATM   18  S   UNL     1       7.395  31.926  59.290  1.00  0.00     0.258 S 
HETATM   19  O   UNL     1       8.748  32.439  59.334  1.00  0.00    -0.201 OA
HETATM   20  O   UNL     1       6.503  32.239  58.197  1.00  0.00    -0.201 OA
BRANCH  18  21
HETATM   21  C   UNL     1       6.595  32.352  60.818  1.00  0.00     0.080 A 
HETATM   22  C   UNL     1       7.374  32.550  61.965  1.00  0.00     0.034 A 
HETATM   23  C   UNL     1       6.755  32.870  63.178  1.00  0.00    -0.029 A 
HETATM   24  C   UNL     1       5.359  32.935  63.241  1.00  0.00     0.041 A 
HETATM   25  C   UNL     1       7.556  33.029  64.440  1.00  0.00     0.050 C 
HETATM   26  N   UNL     1       4.736  33.215  64.460  1.00  0.00    -0.327 N 
HETATM   27  C   UNL     1       4.581  32.691  62.107  1.00  0.00     0.031 A 
HETATM   28  C   UNL     1       5.401  33.622  65.587  1.00  0.00     0.222 C 
HETATM   29  H   UNL     1       3.733  33.120  64.554  1.00  0.00     0.169 HD
HETATM   30  O   UNL     1       4.801  33.801  66.644  1.00  0.00    -0.273 OA
HETATM   31  C   UNL     1       6.864  33.964  65.418  1.00  0.00     0.108 C 
HETATM   32  C   UNL     1       5.201  32.406  60.887  1.00  0.00     0.027 A 
ENDBRANCH  18  21
ENDBRANCH   1  18
TORSDOF 8
ENDMDL
MODEL 7
REMARK VINA RESULT:      -8.7      1.981      3.116
REMARK  8 active torsions:
REMARK  status: ('A' for Active; 'I' for Inactive)
REMARK    1  A    between atoms: C_2  and  O_3 
REMARK    2  A    between atoms: O_3  and  C_4 
REMARK    3  A    between atoms: C_5  and  N_6 
REMARK       I    between atoms: N_6  and  C_7 
REMARK    4  A    between atoms: C_7  and  C_8 
REMARK    5  A    between atoms: C_8  and  C_9 
REMARK    6  A    between atoms: C_9  and  N_10 
REMARK    7  A    between atoms: N_10  and  S_11 
REMARK    8  A    between atoms: S_11  and  C_12 
ROOT
HETATM    1  N   UNL     1       4.865  27.230  55.517  1.00  0.00    -0.315 N 
HETATM    2  H   UNL     1       4.506  26.487  54.919  1.00  0.00     0.172 HD
ENDROOT
BRANCH   1   3
HETATM    3  C   UNL     1       4.429  28.614  55.274  1.00  0.00     0.141 C 
BRANCH   3   4
HETATM    4  C   UNL     1       4.167  29.331  56.593  1.00  0.00     0.123 C 
BRANCH   4   5
HETATM    5  C   UNL     1       5.298  30.298  56.892  1.00  0.00     0.223 C 
HETATM    6  N   UNL     1       6.148  29.840  57.877  1.00  0.00    -0.325 N 
HETATM    7  H   UNL     1       5.895  29.003  58.394  1.00  0.00     0.169 HD
HETATM    8  O   UNL     1       5.416  31.348  56.269  1.00  0.00    -0.273 OA
BRANCH   6   9
HETATM    9  C   UNL     1       7.330  30.456  58.354  1.00  0.00     0.068 A 
HETATM   10  C   UNL     1       7.178  31.511  59.280  1.00  0.00     0.095 A 
HETATM   11  C   UNL     1       8.309  32.151  59.796  1.00  0.00     0.039 A 
HETATM   12  C   UNL     1       9.585  31.752  59.396  1.00  0.00     0.003 A 
HETATM   13  C   UNL     1       9.737  30.713  58.481  1.00  0.00     0.002 A 
HETATM   14  C   UNL     1       8.613  30.067  57.963  1.00  0.00     0.032 A 
BRANCH  10  15
HETATM   15  O   UNL     1       5.877  31.832  59.606  1.00  0.00    -0.349 OA
BRANCH  15  16
HETATM   16  C   UNL     1       5.689  32.954  60.468  1.00  0.00     0.171 C 
HETATM   17  C   UNL     1       4.842  32.507  61.646  1.00  0.00     0.034 C 
ENDBRANCH  15  16
ENDBRANCH  10  15
ENDBRANCH   6   9
ENDBRANCH   4   5
ENDBRANCH   3   4
ENDBRANCH   1   3
BRANCH   1  18
HETATM   18  S   UNL     1       6.494  26.979  55.883  1.00  0.00     0.258 S 
HETATM   19  O   UNL     1       7.208  28.053  55.226  1.00  0.00    -0.201 OA
HETATM   20  O   UNL     1       6.613  26.751  57.305  1.00  0.00    -0.201 OA
BRANCH  18  21
HETATM   21  C   UNL     1       6.867  25.467  55.029  1.00  0.00     0.080 A 
HETATM   22  C   UNL     1       7.332  24.367  55.760  1.00  0.00     0.034 A 
HETATM   23  C   UNL     1       7.646  23.175  55.097  1.00  0.00    -0.029 A 
HETATM   24  C   UNL     1       7.540  23.116  53.703  1.00  0.00     0.041 A 
HETATM   25  C   UNL     1       8.205  21.996  55.844  1.00  0.00     0.050 C 
HETATM   26  N   UNL     1       7.889  21.940  53.035  1.00  0.00    -0.327 N 
HETATM   27  C   UNL     1       7.120  24.229  52.971  1.00  0.00     0.031 A 
HETATM   28  C   UNL     1       8.160  20.751  53.662  1.00  0.00     0.222 C 
HETATM   29  H   UNL     1       7.960  21.928  52.026  1.00  0.00     0.169 HD
HETATM   30  O   UNL     1       8.514  19.765  53.020  1.00  0.00    -0.273 OA
HETATM   31  C   UNL     1       7.866  20.690  55.143  1.00  0.00     0.108 C 
HETATM   32  C   UNL     1       6.774  25.408  53.636  1.00  0.00     0.027 A 
ENDBRANCH  18  21
ENDBRANCH   1  18
TORSDOF 8
ENDMDL
MODEL 8
REMARK VINA RESULT:      -8.6      2.192      8.958
REMARK  8 active torsions:
REMARK  status: ('A' for Active; 'I' for Inactive)
REMARK    1  A    between atoms: C_2  and  O_3 
REMARK    2  A    between atoms: O_3  and  C_4 
REMARK    3  A    between atoms: C_5  and  N_6 
REMARK       I    between atoms: N_6  and  C_7 
REMARK    4  A    between atoms: C_7  and  C_8 
REMARK    5  A    between atoms: C_8  and  C_9 
REMARK    6  A    between atoms: C_9  and  N_10 
REMARK    7  A    between atoms: N_10  and  S_11 
REMARK    8  A    between atoms: S_11  and  C_12 
ROOT
HETATM    1  N   UNL     1       6.456  28.385  53.771  1.00  0.00    -0.315 N 
HETATM    2  H   UNL     1       6.091  28.920  52.984  1.00  0.00     0.172 HD
ENDROOT
BRANCH   1   3
HETATM    3  C   UNL     1       7.215  27.152  53.504  1.00  0.00     0.141 C 
BRANCH   3   4
HETATM    4  C   UNL     1       6.592  26.383  52.345  1.00  0.00     0.123 C 
BRANCH   4   5
HETATM    5  C   UNL     1       6.392  24.930  52.734  1.00  0.00     0.223 C 
HETATM    6  N   UNL     1       7.535  24.348  53.241  1.00  0.00    -0.325 N 
HETATM    7  H   UNL     1       8.410  24.862  53.194  1.00  0.00     0.169 HD
HETATM    8  O   UNL     1       5.296  24.389  52.622  1.00  0.00    -0.273 OA
BRANCH   6   9
HETATM    9  C   UNL     1       7.683  23.037  53.753  1.00  0.00     0.068 A 
HETATM   10  C   UNL     1       7.606  22.880  55.155  1.00  0.00     0.095 A 
HETATM   11  C   UNL     1       7.733  21.607  55.719  1.00  0.00     0.039 A 
HETATM   12  C   UNL     1       7.938  20.494  54.902  1.00  0.00     0.003 A 
HETATM   13  C   UNL     1       8.016  20.647  53.520  1.00  0.00     0.002 A 
HETATM   14  C   UNL     1       7.888  21.914  52.948  1.00  0.00     0.032 A 
BRANCH  10  15
HETATM   15  O   UNL     1       7.407  24.040  55.872  1.00  0.00    -0.349 OA
BRANCH  15  16
HETATM   16  C   UNL     1       8.422  24.399  56.808  1.00  0.00     0.171 C 
HETATM   17  C   UNL     1       8.046  25.735  57.422  1.00  0.00     0.034 C 
ENDBRANCH  15  16
ENDBRANCH  10  15
ENDBRANCH   6   9
ENDBRANCH   4   5
ENDBRANCH   3   4
ENDBRANCH   1   3
BRANCH   1  18
HETATM   18  S   UNL     1       5.353  28.360  55.049  1.00  0.00     0.258 S 
HETATM   19  O   UNL     1       4.184  29.064  54.566  1.00  0.00    -0.201 OA
HETATM   20  O   UNL     1       5.267  27.008  55.552  1.00  0.00    -0.201 OA
BRANCH  18  21
HETATM   21  C   UNL     1       6.140  29.376  56.276  1.00  0.00     0.080 A 
HETATM   22  C   UNL     1       7.524  29.276  56.460  1.00  0.00     0.034 A 
HETATM   23  C   UNL     1       8.153  30.058  57.434  1.00  0.00    -0.029 A 
HETATM   24  C   UNL     1       7.381  30.893  58.250  1.00  0.00     0.041 A 
HETATM   25  C   UNL     1       9.628  29.932  57.698  1.00  0.00     0.050 C 
HETATM   26  N   UNL     1       8.001  31.646  59.249  1.00  0.00    -0.327 N 
HETATM   27  C   UNL     1       5.994  30.956  58.096  1.00  0.00     0.031 A 
HETATM   28  C   UNL     1       9.359  31.777  59.381  1.00  0.00     0.222 C 
HETATM   29  H   UNL     1       7.446  32.136  59.938  1.00  0.00     0.169 HD
HETATM   30  O   UNL     1       9.845  32.411  60.315  1.00  0.00    -0.273 OA
HETATM   31  C   UNL     1      10.201  31.226  58.253  1.00  0.00     0.108 C 
HETATM   32  C   UNL     1       5.370  30.201  57.100  1.00  0.00     0.027 A 
ENDBRANCH  18  21
ENDBRANCH   1  18
TORSDOF 8
ENDMDL
MODEL 9
REMARK VINA RESULT:      -8.4      4.405      7.565
REMARK  8 active torsions:
REMARK  status: ('A' for Active; 'I' for Inactive)
REMARK    1  A    between atoms: C_2  and  O_3 
REMARK    2  A    between atoms: O_3  and  C_4 
REMARK    3  A    between atoms: C_5  and  N_6 
REMARK       I    between atoms: N_6  and  C_7 
REMARK    4  A    between atoms: C_7  and  C_8 
REMARK    5  A    between atoms: C_8  and  C_9 
REMARK    6  A    between atoms: C_9  and  N_10 
REMARK    7  A    between atoms: N_10  and  S_11 
REMARK    8  A    between atoms: S_11  and  C_12 
ROOT
HETATM    1  N   UNL     1       7.046  27.729  54.818  1.00  0.00    -0.315 N 
HETATM    2  H   UNL     1       7.879  28.193  54.458  1.00  0.00     0.172 HD
ENDROOT
BRANCH   1   3
HETATM    3  C   UNL     1       5.723  28.287  54.497  1.00  0.00     0.141 C 
BRANCH   3   4
HETATM    4  C   UNL     1       4.849  27.235  53.825  1.00  0.00     0.123 C 
BRANCH   4   5
HETATM    5  C   UNL     1       5.274  27.053  52.379  1.00  0.00     0.223 C 
HETATM    6  N   UNL     1       4.310  27.462  51.481  1.00  0.00    -0.325 N 
HETATM    7  H   UNL     1       3.391  27.714  51.829  1.00  0.00     0.169 HD
HETATM    8  O   UNL     1       6.385  26.614  52.096  1.00  0.00    -0.273 OA
BRANCH   6   9
HETATM    9  C   UNL     1       4.401  27.489  50.069  1.00  0.00     0.068 A 
HETATM   10  C   UNL     1       4.544  28.754  49.456  1.00  0.00     0.095 A 
HETATM   11  C   UNL     1       4.651  28.843  48.065  1.00  0.00     0.039 A 
HETATM   12  C   UNL     1       4.614  27.688  47.282  1.00  0.00     0.003 A 
HETATM   13  C   UNL     1       4.471  26.441  47.884  1.00  0.00     0.002 A 
HETATM   14  C   UNL     1       4.366  26.342  49.273  1.00  0.00     0.032 A 
BRANCH  10  15
HETATM   15  O   UNL     1       4.565  29.831  50.316  1.00  0.00    -0.349 OA
BRANCH  15  16
HETATM   16  C   UNL     1       5.766  30.600  50.354  1.00  0.00     0.171 C 
HETATM   17  C   UNL     1       5.431  32.019  49.931  1.00  0.00     0.034 C 
ENDBRANCH  15  16
ENDBRANCH  10  15
ENDBRANCH   6   9
ENDBRANCH   4   5
ENDBRANCH   3   4
ENDBRANCH   1   3
BRANCH   1  18
HETATM   18  S   UNL     1       7.297  27.174  56.393  1.00  0.00     0.258 S 
HETATM   19  O   UNL     1       8.477  27.867  56.864  1.00  0.00    -0.201 OA
HETATM   20  O   UNL     1       6.043  27.246  57.108  1.00  0.00    -0.201 OA
BRANCH  18  21
HETATM   21  C   UNL     1       7.720  25.466  56.154  1.00  0.00     0.080 A 
HETATM   22  C   UNL     1       7.464  24.866  54.915  1.00  0.00     0.034 A 
HETATM   23  C   UNL     1       7.777  23.517  54.719  1.00  0.00    -0.029 A 
HETATM   24  C   UNL     1       8.295  22.769  55.783  1.00  0.00     0.041 A 
HETATM   25  C   UNL     1       7.460  22.826  53.421  1.00  0.00     0.050 C 
HETATM   26  N   UNL     1       8.572  21.412  55.601  1.00  0.00    -0.327 N 
HETATM   27  C   UNL     1       8.506  23.358  57.031  1.00  0.00     0.031 A 
HETATM   28  C   UNL     1       8.551  20.779  54.386  1.00  0.00     0.222 C 
HETATM   29  H   UNL     1       8.804  20.829  56.394  1.00  0.00     0.169 HD
HETATM   30  O   UNL     1       8.752  19.571  54.300  1.00  0.00    -0.273 OA
HETATM   31  C   UNL     1       8.407  21.665  53.169  1.00  0.00     0.108 C 
HETATM   32  C   UNL     1       8.226  24.714  57.217  1.00  0.00     0.027 A 
ENDBRANCH  18  21
ENDBRANCH   1  18
TORSDOF 8
ENDMDL
MODEL 10
REMARK VINA RESULT:      -8.2      5.165      8.241
REMARK  8 active torsions:
REMARK  status: ('A' for Active; 'I' for Inactive)
REMARK    1  A    between atoms: C_2  and  O_3 
REMARK    2  A    between atoms: O_3  and  C_4 
REMARK    3  A    between atoms: C_5  and  N_6 
REMARK       I    between atoms: N_6  and  C_7 
REMARK    4  A    between atoms: C_7  and  C_8 
REMARK    5  A    between atoms: C_8  and  C_9 
REMARK    6  A    between atoms: C_9  and  N_10 
REMARK    7  A    between atoms: N_10  and  S_11 
REMARK    8  A    between atoms: S_11  and  C_12 
ROOT
HETATM    1  N   UNL     1       6.200  27.885  54.355  1.00  0.00    -0.315 N 
HETATM    2  H   UNL     1       6.781  28.698  54.156  1.00  0.00     0.172 HD
ENDROOT
BRANCH   1   3
HETATM    3  C   UNL     1       4.739  28.007  54.232  1.00  0.00     0.141 C 
BRANCH   3   4
HETATM    4  C   UNL     1       4.220  27.102  53.121  1.00  0.00     0.123 C 
BRANCH   4   5
HETATM    5  C   UNL     1       4.720  27.593  51.775  1.00  0.00     0.223 C 
HETATM    6  N   UNL     1       3.774  28.325  51.087  1.00  0.00    -0.325 N 
HETATM    7  H   UNL     1       2.827  28.366  51.448  1.00  0.00     0.169 HD
HETATM    8  O   UNL     1       5.866  27.363  51.403  1.00  0.00    -0.273 OA
BRANCH   6   9
HETATM    9  C   UNL     1       3.927  28.978  49.840  1.00  0.00     0.068 A 
HETATM   10  C   UNL     1       3.604  28.238  48.682  1.00  0.00     0.095 A 
HETATM   11  C   UNL     1       3.723  28.833  47.422  1.00  0.00     0.039 A 
HETATM   12  C   UNL     1       4.162  30.153  47.308  1.00  0.00     0.003 A 
HETATM   13  C   UNL     1       4.482  30.883  48.449  1.00  0.00     0.002 A 
HETATM   14  C   UNL     1       4.364  30.298  49.710  1.00  0.00     0.032 A 
BRANCH  10  15
HETATM   15  O   UNL     1       3.186  26.943  48.902  1.00  0.00    -0.349 OA
BRANCH  15  16
HETATM   16  C   UNL     1       2.450  26.318  47.850  1.00  0.00     0.171 C 
HETATM   17  C   UNL     1       2.997  24.914  47.663  1.00  0.00     0.034 C 
ENDBRANCH  15  16
ENDBRANCH  10  15
ENDBRANCH   6   9
ENDBRANCH   4   5
ENDBRANCH   3   4
ENDBRANCH   1   3
BRANCH   1  18
HETATM   18  S   UNL     1       6.802  27.020  55.675  1.00  0.00     0.258 S 
HETATM   19  O   UNL     1       8.010  27.712  56.072  1.00  0.00    -0.201 OA
HETATM   20  O   UNL     1       5.720  26.794  56.606  1.00  0.00    -0.201 OA
BRANCH  18  21
HETATM   21  C   UNL     1       7.269  25.465  54.955  1.00  0.00     0.080 A 
HETATM   22  C   UNL     1       7.439  24.351  55.786  1.00  0.00     0.034 A 
HETATM   23  C   UNL     1       7.823  23.125  55.233  1.00  0.00    -0.029 A 
HETATM   24  C   UNL     1       8.084  23.041  53.860  1.00  0.00     0.041 A 
HETATM   25  C   UNL     1       8.074  21.925  56.104  1.00  0.00     0.050 C 
HETATM   26  N   UNL     1       8.505  21.827  53.312  1.00  0.00    -0.327 N 
HETATM   27  C   UNL     1       7.958  24.165  53.040  1.00  0.00     0.031 A 
HETATM   28  C   UNL     1       8.509  20.637  53.991  1.00  0.00     0.222 C 
HETATM   29  H   UNL     1       8.837  21.787  52.357  1.00  0.00     0.169 HD
HETATM   30  O   UNL     1       8.942  19.613  53.469  1.00  0.00    -0.273 OA
HETATM   31  C   UNL     1       7.831  20.632  55.343  1.00  0.00     0.108 C 
HETATM   32  C   UNL     1       7.541  25.381  53.587  1.00  0.00     0.027 A 
ENDBRANCH  18  21
ENDBRANCH   1  18
TORSDOF 8
ENDMDL
