MODEL 1
REMARK VINA RESULT:      -9.1      0.000      0.000
REMARK  5 active torsions:
REMARK  status: ('A' for Active; 'I' for Inactive)
REMARK    1  A    between atoms: C_5  and  N_6 
REMARK       I    between atoms: N_6  and  C_7 
REMARK    2  A    between atoms: C_7  and  C_8 
REMARK    3  A    between atoms: C_9  and  C_10 
REMARK    4  A    between atoms: C_13  and  O_14 
REMARK    5  A    between atoms: N_20  and  C_21 
ROOT
HETATM    1  C   UNL     1       5.802  26.856  52.717  1.00  0.00     0.060 C 
HETATM    2  C   UNL     1       7.227  26.463  52.900  1.00  0.00     0.158 C 
HETATM    3  N   UNL     1       7.886  27.376  53.800  1.00  0.00    -0.354 N 
HETATM    4  C   UNL     1       7.278  28.224  54.681  1.00  0.00     0.179 C 
HETATM    5  S   UNL     1       8.325  28.993  55.750  1.00  0.00    -0.040 SA
HETATM    6  N   UNL     1       5.879  28.387  54.547  1.00  0.00    -0.292 N 
HETATM    7  C   UNL     1       5.167  27.750  53.502  1.00  0.00     0.030 C 
HETATM    8  C   UNL     1       3.689  28.043  53.332  1.00  0.00     0.070 C 
HETATM    9  H   UNL     1       8.885  27.273  53.926  1.00  0.00     0.163 HD
ENDROOT
BRANCH   1  10
HETATM   10  C   UNL     1       5.146  26.314  51.496  1.00  0.00     0.257 C 
HETATM   11  N   UNL     1       5.108  27.214  50.457  1.00  0.00    -0.306 N 
HETATM   12  H   UNL     1       5.532  28.124  50.564  1.00  0.00     0.170 HD
HETATM   13  O   UNL     1       4.708  25.172  51.522  1.00  0.00    -0.267 OA
BRANCH  11  14
HETATM   14  C   UNL     1       4.446  26.988  49.263  1.00  0.00     0.160 A 
HETATM   15  N   UNL     1       4.965  26.413  48.176  1.00  0.00    -0.110 NA
HETATM   16  O   UNL     1       3.956  26.368  47.237  1.00  0.00    -0.216 OA
HETATM   17  C   UNL     1       2.828  26.909  47.762  1.00  0.00     0.078 A 
HETATM   18  C   UNL     1       1.636  26.924  46.894  1.00  0.00     0.079 C 
HETATM   19  C   UNL     1       3.087  27.327  49.044  1.00  0.00     0.087 A 
ENDBRANCH  11  14
ENDBRANCH   1  10
BRANCH   2  20
HETATM   20  C   UNL     1       7.395  25.038  53.413  1.00  0.00    -0.031 A 
HETATM   21  C   UNL     1       7.895  24.037  52.563  1.00  0.00     0.012 A 
HETATM   22  C   UNL     1       8.028  22.720  53.013  1.00  0.00     0.037 A 
HETATM   23  C   UNL     1       7.658  22.400  54.314  1.00  0.00     0.065 A 
HETATM   24  C   UNL     1       7.162  23.372  55.173  1.00  0.00     0.037 A 
HETATM   25  C   UNL     1       7.036  24.688  54.728  1.00  0.00     0.012 A 
BRANCH  23  26
HETATM   26  O   UNL     1       7.767  21.129  54.793  1.00  0.00    -0.361 OA
HETATM   27  H   UNL     1       8.640  21.023  55.207  1.00  0.00     0.217 HD
ENDBRANCH  23  26
ENDBRANCH   2  20
BRANCH   6  28
HETATM   28  C   UNL     1       5.223  29.335  55.406  1.00  0.00     0.042 A 
HETATM   29  C   UNL     1       4.959  30.635  54.955  1.00  0.00     0.030 A 
HETATM   30  C   UNL     1       4.330  31.554  55.796  1.00  0.00     0.002 A 
HETATM   31  C   UNL     1       3.968  31.184  57.090  1.00  0.00     0.000 A 
HETATM   32  C   UNL     1       4.231  29.893  57.547  1.00  0.00     0.002 A 
HETATM   33  C   UNL     1       4.856  28.967  56.707  1.00  0.00     0.030 A 
ENDBRANCH   6  28
TORSDOF 5
ENDMDL
MODEL 2
REMARK VINA RESULT:      -9.1      2.477      6.906
REMARK  5 active torsions:
REMARK  status: ('A' for Active; 'I' for Inactive)
REMARK    1  A    between atoms: C_5  and  N_6 
REMARK       I    between atoms: N_6  and  C_7 
REMARK    2  A    between atoms: C_7  and  C_8 
REMARK    3  A    between atoms: C_9  and  C_10 
REMARK    4  A    between atoms: C_13  and  O_14 
REMARK    5  A    between atoms: N_20  and  C_21 
ROOT
HETATM    1  C   UNL     1       5.947  26.680  53.077  1.00  0.00     0.060 C 
HETATM    2  C   UNL     1       6.503  27.982  53.537  1.00  0.00     0.158 C 
HETATM    3  N   UNL     1       6.411  28.965  52.488  1.00  0.00    -0.354 N 
HETATM    4  C   UNL     1       5.601  28.902  51.390  1.00  0.00     0.179 C 
HETATM    5  S   UNL     1       5.557  30.310  50.469  1.00  0.00    -0.040 SA
HETATM    6  N   UNL     1       4.961  27.665  51.140  1.00  0.00    -0.292 N 
HETATM    7  C   UNL     1       5.210  26.536  51.957  1.00  0.00     0.030 C 
HETATM    8  C   UNL     1       4.587  25.206  51.585  1.00  0.00     0.070 C 
HETATM    9  H   UNL     1       6.848  29.865  52.646  1.00  0.00     0.163 HD
ENDROOT
BRANCH   1  10
HETATM   10  C   UNL     1       6.390  25.490  53.854  1.00  0.00     0.257 C 
HETATM   11  N   UNL     1       7.534  24.914  53.355  1.00  0.00    -0.306 N 
HETATM   12  H   UNL     1       8.000  25.326  52.560  1.00  0.00     0.170 HD
HETATM   13  O   UNL     1       5.724  25.136  54.818  1.00  0.00    -0.267 OA
BRANCH  11  14
HETATM   14  C   UNL     1       8.074  23.731  53.829  1.00  0.00     0.160 A 
HETATM   15  N   UNL     1       8.750  23.580  54.971  1.00  0.00    -0.110 NA
HETATM   16  O   UNL     1       9.078  22.243  55.057  1.00  0.00    -0.216 OA
HETATM   17  C   UNL     1       8.592  21.588  53.972  1.00  0.00     0.078 A 
HETATM   18  C   UNL     1       8.836  20.136  53.913  1.00  0.00     0.079 C 
HETATM   19  C   UNL     1       7.954  22.489  53.157  1.00  0.00     0.087 A 
ENDBRANCH  11  14
ENDBRANCH   1  10
BRANCH   2  20
HETATM   20  C   UNL     1       5.821  28.517  54.791  1.00  0.00    -0.031 A 
HETATM   21  C   UNL     1       6.587  28.868  55.916  1.00  0.00     0.012 A 
HETATM   22  C   UNL     1       5.971  29.332  57.082  1.00  0.00     0.037 A 
HETATM   23  C   UNL     1       4.586  29.445  57.127  1.00  0.00     0.065 A 
HETATM   24  C   UNL     1       3.808  29.105  56.028  1.00  0.00     0.037 A 
HETATM   25  C   UNL     1       4.422  28.648  54.862  1.00  0.00     0.012 A 
BRANCH  23  26
HETATM   26  O   UNL     1       3.945  29.890  58.243  1.00  0.00    -0.361 OA
HETATM   27  H   UNL     1       3.157  29.342  58.393  1.00  0.00     0.217 HD
ENDBRANCH  23  26
ENDBRANCH   2  20
BRANCH   6  28
HETATM   28  C   UNL     1       4.168  27.543  49.947  1.00  0.00     0.042 A 
HETATM   29  C   UNL     1       4.693  26.915  48.809  1.00  0.00     0.030 A 
HETATM   30  C   UNL     1       3.923  26.807  47.650  1.00  0.00     0.002 A 
HETATM   31  C   UNL     1       2.630  27.329  47.618  1.00  0.00     0.000 A 
HETATM   32  C   UNL     1       2.103  27.958  48.745  1.00  0.00     0.002 A 
HETATM   33  C   UNL     1       2.868  28.065  49.909  1.00  0.00     0.030 A 
ENDBRANCH   6  28
TORSDOF 5
ENDMDL
MODEL 3
REMARK VINA RESULT:      -9.0      2.863      6.021
REMARK  5 active torsions:
REMARK  status: ('A' for Active; 'I' for Inactive)
REMARK    1  A    between atoms: C_5  and  N_6 
REMARK       I    between atoms: N_6  and  C_7 
REMARK    2  A    between atoms: C_7  and  C_8 
REMARK    3  A    between atoms: C_9  and  C_10 
REMARK    4  A    between atoms: C_13  and  O_14 
REMARK    5  A    between atoms: N_20  and  C_21 
ROOT
HETATM    1  C   UNL     1       6.425  26.701  55.889  1.00  0.00     0.060 C 
HETATM    2  C   UNL     1       5.235  27.298  55.222  1.00  0.00     0.158 C 
HETATM    3  N   UNL     1       5.028  28.647  55.682  1.00  0.00    -0.354 N 
HETATM    4  C   UNL     1       5.950  29.441  56.303  1.00  0.00     0.179 C 
HETATM    5  S   UNL     1       5.471  31.041  56.511  1.00  0.00    -0.040 SA
HETATM    6  N   UNL     1       7.143  28.814  56.735  1.00  0.00    -0.292 N 
HETATM    7  C   UNL     1       7.329  27.419  56.587  1.00  0.00     0.030 C 
HETATM    8  C   UNL     1       8.574  26.777  57.164  1.00  0.00     0.070 C 
HETATM    9  H   UNL     1       4.188  29.125  55.377  1.00  0.00     0.163 HD
ENDROOT
BRANCH   1  10
HETATM   10  C   UNL     1       6.482  25.214  55.875  1.00  0.00     0.257 C 
HETATM   11  N   UNL     1       7.455  24.717  55.041  1.00  0.00    -0.306 N 
HETATM   12  H   UNL     1       8.063  25.351  54.542  1.00  0.00     0.170 HD
HETATM   13  O   UNL     1       5.689  24.589  56.566  1.00  0.00    -0.267 OA
BRANCH  11  14
HETATM   14  C   UNL     1       7.626  23.372  54.767  1.00  0.00     0.160 A 
HETATM   15  N   UNL     1       7.491  22.371  55.639  1.00  0.00    -0.110 NA
HETATM   16  O   UNL     1       7.724  21.206  54.938  1.00  0.00    -0.216 OA
HETATM   17  C   UNL     1       7.991  21.506  53.642  1.00  0.00     0.078 A 
HETATM   18  C   UNL     1       8.245  20.368  52.739  1.00  0.00     0.079 C 
HETATM   19  C   UNL     1       7.949  22.868  53.481  1.00  0.00     0.087 A 
ENDBRANCH  11  14
ENDBRANCH   1  10
BRANCH   2  20
HETATM   20  C   UNL     1       5.333  27.292  53.702  1.00  0.00    -0.031 A 
HETATM   21  C   UNL     1       5.709  28.459  53.015  1.00  0.00     0.012 A 
HETATM   22  C   UNL     1       5.776  28.475  51.619  1.00  0.00     0.037 A 
HETATM   23  C   UNL     1       5.463  27.323  50.905  1.00  0.00     0.065 A 
HETATM   24  C   UNL     1       5.090  26.158  51.561  1.00  0.00     0.037 A 
HETATM   25  C   UNL     1       5.030  26.139  52.954  1.00  0.00     0.012 A 
BRANCH  23  26
HETATM   26  O   UNL     1       5.512  27.295  49.544  1.00  0.00    -0.361 OA
HETATM   27  H   UNL     1       6.351  27.688  49.250  1.00  0.00     0.217 HD
ENDBRANCH  23  26
ENDBRANCH   2  20
BRANCH   6  28
HETATM   28  C   UNL     1       8.096  29.606  57.464  1.00  0.00     0.042 A 
HETATM   29  C   UNL     1       7.838  29.981  58.790  1.00  0.00     0.030 A 
HETATM   30  C   UNL     1       8.762  30.757  59.491  1.00  0.00     0.002 A 
HETATM   31  C   UNL     1       9.944  31.166  58.873  1.00  0.00     0.000 A 
HETATM   32  C   UNL     1      10.204  30.799  57.554  1.00  0.00     0.002 A 
HETATM   33  C   UNL     1       9.285  30.019  56.849  1.00  0.00     0.030 A 
ENDBRANCH   6  28
TORSDOF 5
ENDMDL
MODEL 4
REMARK VINA RESULT:      -8.8      4.199      7.520
REMARK  5 active torsions:
REMARK  status: ('A' for Active; 'I' for Inactive)
REMARK    1  A    between atoms: C_5  and  N_6 
REMARK       I    between atoms: N_6  and  C_7 
REMARK    2  A    between atoms: C_7  and  C_8 
REMARK    3  A    between atoms: C_9  and  C_10 
REMARK    4  A    between atoms: C_13  and  O_14 
REMARK    5  A    between atoms: N_20  and  C_21 
ROOT
HETATM    1  C   UNL     1       6.163  28.108  56.273  1.00  0.00     0.060 C 
HETATM    2  C   UNL     1       6.839  28.027  57.597  1.00  0.00     0.158 C 
HETATM    3  N   UNL     1       7.429  26.725  57.779  1.00  0.00    -0.354 N 
HETATM    4  C   UNL     1       7.711  25.820  56.796  1.00  0.00     0.179 C 
HETATM    5  S   UNL     1       8.605  24.488  57.305  1.00  0.00    -0.040 SA
HETATM    6  N   UNL     1       7.177  26.085  55.513  1.00  0.00    -0.292 N 
HETATM    7  C   UNL     1       6.335  27.201  55.290  1.00  0.00     0.030 C 
HETATM    8  C   UNL     1       5.698  27.381  53.926  1.00  0.00     0.070 C 
HETATM    9  H   UNL     1       7.832  26.513  58.684  1.00  0.00     0.163 HD
ENDROOT
BRANCH   1  10
HETATM   10  C   UNL     1       5.142  29.183  56.146  1.00  0.00     0.257 C 
HETATM   11  N   UNL     1       5.657  30.365  55.672  1.00  0.00    -0.306 N 
HETATM   12  H   UNL     1       6.633  30.424  55.419  1.00  0.00     0.170 HD
HETATM   13  O   UNL     1       3.987  28.937  56.469  1.00  0.00    -0.267 OA
BRANCH  11  14
HETATM   14  C   UNL     1       4.934  31.542  55.580  1.00  0.00     0.160 A 
HETATM   15  N   UNL     1       4.187  31.924  54.542  1.00  0.00    -0.110 NA
HETATM   16  O   UNL     1       3.631  33.139  54.885  1.00  0.00    -0.216 OA
HETATM   17  C   UNL     1       4.037  33.483  56.134  1.00  0.00     0.078 A 
HETATM   18  C   UNL     1       3.516  34.753  56.671  1.00  0.00     0.079 C 
HETATM   19  C   UNL     1       4.873  32.507  56.616  1.00  0.00     0.087 A 
ENDBRANCH  11  14
ENDBRANCH   1  10
BRANCH   2  20
HETATM   20  C   UNL     1       7.907  29.097  57.792  1.00  0.00    -0.031 A 
HETATM   21  C   UNL     1       9.105  29.039  57.060  1.00  0.00     0.012 A 
HETATM   22  C   UNL     1      10.104  29.998  57.249  1.00  0.00     0.037 A 
HETATM   23  C   UNL     1       9.908  31.017  58.174  1.00  0.00     0.065 A 
HETATM   24  C   UNL     1       8.732  31.097  58.908  1.00  0.00     0.037 A 
HETATM   25  C   UNL     1       7.732  30.144  58.715  1.00  0.00     0.012 A 
BRANCH  23  26
HETATM   26  O   UNL     1      10.856  31.971  58.392  1.00  0.00    -0.361 OA
HETATM   27  H   UNL     1      10.432  32.753  58.782  1.00  0.00     0.217 HD
ENDBRANCH  23  26
ENDBRANCH   2  20
BRANCH   6  28
HETATM   28  C   UNL     1       7.388  25.109  54.479  1.00  0.00     0.042 A 
HETATM   29  C   UNL     1       7.069  23.763  54.699  1.00  0.00     0.030 A 
HETATM   30  C   UNL     1       7.283  22.817  53.695  1.00  0.00     0.002 A 
HETATM   31  C   UNL     1       7.821  23.209  52.470  1.00  0.00     0.000 A 
HETATM   32  C   UNL     1       8.145  24.546  52.245  1.00  0.00     0.002 A 
HETATM   33  C   UNL     1       7.928  25.497  53.245  1.00  0.00     0.030 A 
ENDBRANCH   6  28
TORSDOF 5
ENDMDL
MODEL 5
REMARK VINA RESULT:      -8.0     11.883     15.642
REMARK  5 active torsions:
REMARK  status: ('A' for Active; 'I' for Inactive)
REMARK    1  A    between atoms: C_5  and  N_6 
REMARK       I    between atoms: N_6  and  C_7 
REMARK    2  A    between atoms: C_7  and  C_8 
REMARK    3  A    between atoms: C_9  and  C_10 
REMARK    4  A    between atoms: C_13  and  O_14 
REMARK    5  A    between atoms: N_20  and  C_21 
ROOT
HETATM    1  C   UNL     1       4.592  36.194  64.246  1.00  0.00     0.060 C 
HETATM    2  C   UNL     1       4.061  35.234  63.240  1.00  0.00     0.158 C 
HETATM    3  N   UNL     1       3.850  35.897  61.978  1.00  0.00    -0.354 N 
HETATM    4  C   UNL     1       4.400  37.084  61.586  1.00  0.00     0.179 C 
HETATM    5  S   UNL     1       4.140  37.477  59.971  1.00  0.00    -0.040 SA
HETATM    6  N   UNL     1       5.055  37.843  62.584  1.00  0.00    -0.292 N 
HETATM    7  C   UNL     1       5.073  37.415  63.933  1.00  0.00     0.030 C 
HETATM    8  C   UNL     1       5.691  38.315  64.984  1.00  0.00     0.070 C 
HETATM    9  H   UNL     1       3.395  35.372  61.241  1.00  0.00     0.163 HD
ENDROOT
BRANCH   1  10
HETATM   10  C   UNL     1       4.416  35.787  65.667  1.00  0.00     0.257 C 
HETATM   11  N   UNL     1       5.517  35.150  66.188  1.00  0.00    -0.306 N 
HETATM   12  H   UNL     1       6.345  35.033  65.623  1.00  0.00     0.170 HD
HETATM   13  O   UNL     1       3.353  36.034  66.221  1.00  0.00    -0.267 OA
BRANCH  11  14
HETATM   14  C   UNL     1       5.553  34.574  67.446  1.00  0.00     0.160 A 
HETATM   15  N   UNL     1       4.554  33.914  68.035  1.00  0.00    -0.110 NA
HETATM   16  O   UNL     1       5.030  33.492  69.259  1.00  0.00    -0.216 OA
HETATM   17  C   UNL     1       6.319  33.892  69.402  1.00  0.00     0.078 A 
HETATM   18  C   UNL     1       6.996  33.505  70.654  1.00  0.00     0.079 C 
HETATM   19  C   UNL     1       6.697  34.590  68.282  1.00  0.00     0.087 A 
ENDBRANCH  11  14
ENDBRANCH   1  10
BRANCH   2  20
HETATM   20  C   UNL     1       4.963  34.024  63.030  1.00  0.00    -0.031 A 
HETATM   21  C   UNL     1       6.330  34.202  62.759  1.00  0.00     0.012 A 
HETATM   22  C   UNL     1       7.163  33.102  62.537  1.00  0.00     0.037 A 
HETATM   23  C   UNL     1       6.630  31.819  62.583  1.00  0.00     0.065 A 
HETATM   24  C   UNL     1       5.282  31.617  62.850  1.00  0.00     0.037 A 
HETATM   25  C   UNL     1       4.452  32.714  63.079  1.00  0.00     0.012 A 
BRANCH  23  26
HETATM   26  O   UNL     1       7.405  30.718  62.370  1.00  0.00    -0.361 OA
HETATM   27  H   UNL     1       8.335  30.956  62.515  1.00  0.00     0.217 HD
ENDBRANCH  23  26
ENDBRANCH   2  20
BRANCH   6  28
HETATM   28  C   UNL     1       5.572  39.134  62.220  1.00  0.00     0.042 A 
HETATM   29  C   UNL     1       6.920  39.285  61.870  1.00  0.00     0.030 A 
HETATM   30  C   UNL     1       7.420  40.542  61.526  1.00  0.00     0.002 A 
HETATM   31  C   UNL     1       6.579  41.654  61.535  1.00  0.00     0.000 A 
HETATM   32  C   UNL     1       5.237  41.512  61.886  1.00  0.00     0.002 A 
HETATM   33  C   UNL     1       4.732  40.255  62.227  1.00  0.00     0.030 A 
ENDBRANCH   6  28
TORSDOF 5
ENDMDL
MODEL 6
REMARK VINA RESULT:      -8.0      4.304      7.720
REMARK  5 active torsions:
REMARK  status: ('A' for Active; 'I' for Inactive)
REMARK    1  A    between atoms: C_5  and  N_6 
REMARK       I    between atoms: N_6  and  C_7 
REMARK    2  A    between atoms: C_7  and  C_8 
REMARK    3  A    between atoms: C_9  and  C_10 
REMARK    4  A    between atoms: C_13  and  O_14 
REMARK    5  A    between atoms: N_20  and  C_21 
ROOT
HETATM    1  C   UNL     1       5.871  28.775  56.605  1.00  0.00     0.060 C 
HETATM    2  C   UNL     1       6.839  28.222  57.592  1.00  0.00     0.158 C 
HETATM    3  N   UNL     1       7.134  26.846  57.287  1.00  0.00    -0.354 N 
HETATM    4  C   UNL     1       6.923  26.219  56.092  1.00  0.00     0.179 C 
HETATM    5  S   UNL     1       7.584  24.675  55.985  1.00  0.00    -0.040 SA
HETATM    6  N   UNL     1       6.143  26.912  55.137  1.00  0.00    -0.292 N 
HETATM    7  C   UNL     1       5.557  28.164  55.444  1.00  0.00     0.030 C 
HETATM    8  C   UNL     1       4.639  28.815  54.430  1.00  0.00     0.070 C 
HETATM    9  H   UNL     1       7.703  26.329  57.947  1.00  0.00     0.163 HD
ENDROOT
BRANCH   1  10
HETATM   10  C   UNL     1       5.134  29.989  57.049  1.00  0.00     0.257 C 
HETATM   11  N   UNL     1       5.658  31.156  56.544  1.00  0.00    -0.306 N 
HETATM   12  H   UNL     1       6.444  31.122  55.912  1.00  0.00     0.170 HD
HETATM   13  O   UNL     1       4.175  29.853  57.798  1.00  0.00    -0.267 OA
BRANCH  11  14
HETATM   14  C   UNL     1       5.223  32.418  56.906  1.00  0.00     0.160 A 
HETATM   15  N   UNL     1       5.696  33.151  57.916  1.00  0.00    -0.110 NA
HETATM   16  O   UNL     1       4.999  34.341  57.897  1.00  0.00    -0.216 OA
HETATM   17  C   UNL     1       4.112  34.328  56.870  1.00  0.00     0.078 A 
HETATM   18  C   UNL     1       3.291  35.539  56.689  1.00  0.00     0.079 C 
HETATM   19  C   UNL     1       4.208  33.126  56.214  1.00  0.00     0.087 A 
ENDBRANCH  11  14
ENDBRANCH   1  10
BRANCH   2  20
HETATM   20  C   UNL     1       8.139  29.014  57.666  1.00  0.00    -0.031 A 
HETATM   21  C   UNL     1       8.362  29.907  58.728  1.00  0.00     0.012 A 
HETATM   22  C   UNL     1       9.537  30.660  58.793  1.00  0.00     0.037 A 
HETATM   23  C   UNL     1      10.494  30.524  57.792  1.00  0.00     0.065 A 
HETATM   24  C   UNL     1      10.296  29.647  56.733  1.00  0.00     0.037 A 
HETATM   25  C   UNL     1       9.127  28.890  56.672  1.00  0.00     0.012 A 
BRANCH  23  26
HETATM   26  O   UNL     1      11.652  31.240  57.814  1.00  0.00    -0.361 OA
HETATM   27  H   UNL     1      11.767  31.680  56.955  1.00  0.00     0.217 HD
ENDBRANCH  23  26
ENDBRANCH   2  20
BRANCH   6  28
HETATM   28  C   UNL     1       5.835  26.244  53.902  1.00  0.00     0.042 A 
HETATM   29  C   UNL     1       6.540  26.556  52.733  1.00  0.00     0.030 A 
HETATM   30  C   UNL     1       6.233  25.911  51.534  1.00  0.00     0.002 A 
HETATM   31  C   UNL     1       5.217  24.956  51.495  1.00  0.00     0.000 A 
HETATM   32  C   UNL     1       4.509  24.643  52.654  1.00  0.00     0.002 A 
HETATM   33  C   UNL     1       4.816  25.283  53.858  1.00  0.00     0.030 A 
ENDBRANCH   6  28
TORSDOF 5
ENDMDL
MODEL 7
REMARK VINA RESULT:      -7.9      3.535      7.332
REMARK  5 active torsions:
REMARK  status: ('A' for Active; 'I' for Inactive)
REMARK    1  A    between atoms: C_5  and  N_6 
REMARK       I    between atoms: N_6  and  C_7 
REMARK    2  A    between atoms: C_7  and  C_8 
REMARK    3  A    between atoms: C_9  and  C_10 
REMARK    4  A    between atoms: C_13  and  O_14 
REMARK    5  A    between atoms: N_20  and  C_21 
ROOT
HETATM    1  C   UNL     1       5.521  28.107  54.853  1.00  0.00     0.060 C 
HETATM    2  C   UNL     1       6.645  27.288  55.386  1.00  0.00     0.158 C 
HETATM    3  N   UNL     1       7.066  26.320  54.406  1.00  0.00    -0.354 N 
HETATM    4  C   UNL     1       6.807  26.359  53.066  1.00  0.00     0.179 C 
HETATM    5  S   UNL     1       7.629  25.205  52.159  1.00  0.00    -0.040 SA
HETATM    6  N   UNL     1       5.854  27.309  52.628  1.00  0.00    -0.292 N 
HETATM    7  C   UNL     1       5.160  28.126  53.553  1.00  0.00     0.030 C 
HETATM    8  C   UNL     1       4.071  29.050  53.048  1.00  0.00     0.070 C 
HETATM    9  H   UNL     1       7.759  25.636  54.688  1.00  0.00     0.163 HD
ENDROOT
BRANCH   1  10
HETATM   10  C   UNL     1       4.696  28.799  55.881  1.00  0.00     0.257 C 
HETATM   11  N   UNL     1       5.060  30.111  56.073  1.00  0.00    -0.306 N 
HETATM   12  H   UNL     1       5.797  30.516  55.514  1.00  0.00     0.170 HD
HETATM   13  O   UNL     1       3.814  28.169  56.448  1.00  0.00    -0.267 OA
BRANCH  11  14
HETATM   14  C   UNL     1       4.525  30.925  57.055  1.00  0.00     0.160 A 
HETATM   15  N   UNL     1       3.286  31.423  57.072  1.00  0.00    -0.110 NA
HETATM   16  O   UNL     1       3.173  32.153  58.237  1.00  0.00    -0.216 OA
HETATM   17  C   UNL     1       4.340  32.087  58.925  1.00  0.00     0.078 A 
HETATM   18  C   UNL     1       4.389  32.799  60.215  1.00  0.00     0.079 C 
HETATM   19  C   UNL     1       5.235  31.326  58.214  1.00  0.00     0.087 A 
ENDBRANCH  11  14
ENDBRANCH   1  10
BRANCH   2  20
HETATM   20  C   UNL     1       7.843  28.124  55.818  1.00  0.00    -0.031 A 
HETATM   21  C   UNL     1       8.680  28.709  54.852  1.00  0.00     0.012 A 
HETATM   22  C   UNL     1       9.799  29.455  55.235  1.00  0.00     0.037 A 
HETATM   23  C   UNL     1      10.085  29.616  56.586  1.00  0.00     0.065 A 
HETATM   24  C   UNL     1       9.272  29.049  57.559  1.00  0.00     0.037 A 
HETATM   25  C   UNL     1       8.152  28.311  57.178  1.00  0.00     0.012 A 
BRANCH  23  26
HETATM   26  O   UNL     1      11.166  30.332  57.003  1.00  0.00    -0.361 OA
HETATM   27  H   UNL     1      10.893  30.925  57.723  1.00  0.00     0.217 HD
ENDBRANCH  23  26
ENDBRANCH   2  20
BRANCH   6  28
HETATM   28  C   UNL     1       5.499  27.318  51.235  1.00  0.00     0.042 A 
HETATM   29  C   UNL     1       5.842  28.408  50.424  1.00  0.00     0.030 A 
HETATM   30  C   UNL     1       5.488  28.416  49.074  1.00  0.00     0.002 A 
HETATM   31  C   UNL     1       4.786  27.342  48.529  1.00  0.00     0.000 A 
HETATM   32  C   UNL     1       4.438  26.256  49.331  1.00  0.00     0.002 A 
HETATM   33  C   UNL     1       4.794  26.240  50.682  1.00  0.00     0.030 A 
ENDBRANCH   6  28
TORSDOF 5
ENDMDL
MODEL 8
REMARK VINA RESULT:      -7.8      3.770      8.276
REMARK  5 active torsions:
REMARK  status: ('A' for Active; 'I' for Inactive)
REMARK    1  A    between atoms: C_5  and  N_6 
REMARK       I    between atoms: N_6  and  C_7 
REMARK    2  A    between atoms: C_7  and  C_8 
REMARK    3  A    between atoms: C_9  and  C_10 
REMARK    4  A    between atoms: C_13  and  O_14 
REMARK    5  A    between atoms: N_20  and  C_21 
ROOT
HETATM    1  C   UNL     1       7.598  27.175  55.391  1.00  0.00     0.060 C 
HETATM    2  C   UNL     1       7.505  27.417  53.925  1.00  0.00     0.158 C 
HETATM    3  N   UNL     1       7.840  26.219  53.198  1.00  0.00    -0.354 N 
HETATM    4  C   UNL     1       7.850  24.947  53.695  1.00  0.00     0.179 C 
HETATM    5  S   UNL     1       8.062  23.744  52.538  1.00  0.00    -0.040 SA
HETATM    6  N   UNL     1       7.741  24.810  55.099  1.00  0.00    -0.292 N 
HETATM    7  C   UNL     1       7.694  25.947  55.941  1.00  0.00     0.030 C 
HETATM    8  C   UNL     1       7.689  25.751  57.444  1.00  0.00     0.070 C 
HETATM    9  H   UNL     1       7.911  26.285  52.189  1.00  0.00     0.163 HD
ENDROOT
BRANCH   1  10
HETATM   10  C   UNL     1       7.740  28.397  56.229  1.00  0.00     0.257 C 
HETATM   11  N   UNL     1       9.047  28.785  56.403  1.00  0.00    -0.306 N 
HETATM   12  H   UNL     1       9.789  28.270  55.952  1.00  0.00     0.170 HD
HETATM   13  O   UNL     1       6.730  28.922  56.678  1.00  0.00    -0.267 OA
BRANCH  11  14
HETATM   14  C   UNL     1       9.443  29.816  57.236  1.00  0.00     0.160 A 
HETATM   15  N   UNL     1      10.427  30.685  56.995  1.00  0.00    -0.110 NA
HETATM   16  O   UNL     1      10.459  31.549  58.070  1.00  0.00    -0.216 OA
HETATM   17  C   UNL     1       9.489  31.204  58.954  1.00  0.00     0.078 A 
HETATM   18  C   UNL     1       9.367  32.042  60.162  1.00  0.00     0.079 C 
HETATM   19  C   UNL     1       8.820  30.104  58.477  1.00  0.00     0.087 A 
ENDBRANCH  11  14
ENDBRANCH   1  10
BRANCH   2  20
HETATM   20  C   UNL     1       6.131  27.908  53.484  1.00  0.00    -0.031 A 
HETATM   21  C   UNL     1       4.972  27.407  54.100  1.00  0.00     0.012 A 
HETATM   22  C   UNL     1       3.705  27.828  53.686  1.00  0.00     0.037 A 
HETATM   23  C   UNL     1       3.594  28.750  52.651  1.00  0.00     0.065 A 
HETATM   24  C   UNL     1       4.725  29.261  52.028  1.00  0.00     0.037 A 
HETATM   25  C   UNL     1       5.989  28.846  52.445  1.00  0.00     0.012 A 
BRANCH  23  26
HETATM   26  O   UNL     1       2.379  29.186  52.214  1.00  0.00    -0.361 OA
HETATM   27  H   UNL     1       2.500  30.018  51.728  1.00  0.00     0.217 HD
ENDBRANCH  23  26
ENDBRANCH   2  20
BRANCH   6  28
HETATM   28  C   UNL     1       7.832  23.489  55.658  1.00  0.00     0.042 A 
HETATM   29  C   UNL     1       8.432  23.289  56.909  1.00  0.00     0.030 A 
HETATM   30  C   UNL     1       8.526  22.004  57.444  1.00  0.00     0.002 A 
HETATM   31  C   UNL     1       8.027  20.913  56.734  1.00  0.00     0.000 A 
HETATM   32  C   UNL     1       7.431  21.104  55.488  1.00  0.00     0.002 A 
HETATM   33  C   UNL     1       7.331  22.390  54.949  1.00  0.00     0.030 A 
ENDBRANCH   6  28
TORSDOF 5
ENDMDL
MODEL 9
REMARK VINA RESULT:      -7.7      4.701      8.467
REMARK  5 active torsions:
REMARK  status: ('A' for Active; 'I' for Inactive)
REMARK    1  A    between atoms: C_5  and  N_6 
REMARK       I    between atoms: N_6  and  C_7 
REMARK    2  A    between atoms: C_7  and  C_8 
REMARK    3  A    between atoms: C_9  and  C_10 
REMARK    4  A    between atoms: C_13  and  O_14 
REMARK    5  A    between atoms: N_20  and  C_21 
ROOT
HETATM    1  C   UNL     1       5.651  30.304  56.526  1.00  0.00     0.060 C 
HETATM    2  C   UNL     1       6.458  29.190  57.095  1.00  0.00     0.158 C 
HETATM    3  N   UNL     1       6.285  27.995  56.310  1.00  0.00    -0.354 N 
HETATM    4  C   UNL     1       5.809  27.928  55.032  1.00  0.00     0.179 C 
HETATM    5  S   UNL     1       5.941  26.412  54.313  1.00  0.00    -0.040 SA
HETATM    6  N   UNL     1       5.224  29.104  54.507  1.00  0.00    -0.292 N 
HETATM    7  C   UNL     1       5.084  30.267  55.303  1.00  0.00     0.030 C 
HETATM    8  C   UNL     1       4.352  31.465  54.733  1.00  0.00     0.070 C 
HETATM    9  H   UNL     1       6.705  27.140  56.656  1.00  0.00     0.163 HD
ENDROOT
BRANCH   1  10
HETATM   10  C   UNL     1       5.364  31.424  57.463  1.00  0.00     0.257 C 
HETATM   11  N   UNL     1       4.553  31.059  58.512  1.00  0.00    -0.306 N 
HETATM   12  H   UNL     1       4.246  30.101  58.600  1.00  0.00     0.170 HD
HETATM   13  O   UNL     1       5.843  32.526  57.226  1.00  0.00    -0.267 OA
BRANCH  11  14
HETATM   14  C   UNL     1       4.050  31.947  59.446  1.00  0.00     0.160 A 
HETATM   15  N   UNL     1       2.863  32.554  59.390  1.00  0.00    -0.110 NA
HETATM   16  O   UNL     1       2.763  33.325  60.530  1.00  0.00    -0.216 OA
HETATM   17  C   UNL     1       3.888  33.176  61.275  1.00  0.00     0.078 A 
HETATM   18  C   UNL     1       3.942  33.918  62.547  1.00  0.00     0.079 C 
HETATM   19  C   UNL     1       4.741  32.317  60.627  1.00  0.00     0.087 A 
ENDBRANCH  11  14
ENDBRANCH   1  10
BRANCH   2  20
HETATM   20  C   UNL     1       7.944  29.517  57.196  1.00  0.00    -0.031 A 
HETATM   21  C   UNL     1       8.473  30.027  58.394  1.00  0.00     0.012 A 
HETATM   22  C   UNL     1       9.828  30.358  58.491  1.00  0.00     0.037 A 
HETATM   23  C   UNL     1      10.657  30.181  57.389  1.00  0.00     0.065 A 
HETATM   24  C   UNL     1      10.157  29.677  56.195  1.00  0.00     0.037 A 
HETATM   25  C   UNL     1       8.807  29.341  56.100  1.00  0.00     0.012 A 
BRANCH  23  26
HETATM   26  O   UNL     1      11.982  30.492  57.438  1.00  0.00    -0.361 OA
HETATM   27  H   UNL     1      12.371  30.357  56.558  1.00  0.00     0.217 HD
ENDBRANCH  23  26
ENDBRANCH   2  20
BRANCH   6  28
HETATM   28  C   UNL     1       4.640  29.042  53.195  1.00  0.00     0.042 A 
HETATM   29  C   UNL     1       5.443  29.186  52.055  1.00  0.00     0.030 A 
HETATM   30  C   UNL     1       4.871  29.133  50.783  1.00  0.00     0.002 A 
HETATM   31  C   UNL     1       3.497  28.942  50.643  1.00  0.00     0.000 A 
HETATM   32  C   UNL     1       2.692  28.801  51.772  1.00  0.00     0.002 A 
HETATM   33  C   UNL     1       3.261  28.848  53.048  1.00  0.00     0.030 A 
ENDBRANCH   6  28
TORSDOF 5
ENDMDL
MODEL 10
REMARK VINA RESULT:      -7.7      8.377     11.328
REMARK  5 active torsions:
REMARK  status: ('A' for Active; 'I' for Inactive)
REMARK    1  A    between atoms: C_5  and  N_6 
REMARK       I    between atoms: N_6  and  C_7 
REMARK    2  A    between atoms: C_7  and  C_8 
REMARK    3  A    between atoms: C_9  and  C_10 
REMARK    4  A    between atoms: C_13  and  O_14 
REMARK    5  A    between atoms: N_20  and  C_21 
ROOT
HETATM    1  C   UNL     1       5.047  32.435  60.380  1.00  0.00     0.060 C 
HETATM    2  C   UNL     1       5.126  32.384  61.866  1.00  0.00     0.158 C 
HETATM    3  N   UNL     1       6.258  31.595  62.280  1.00  0.00    -0.354 N 
HETATM    4  C   UNL     1       7.340  31.267  61.514  1.00  0.00     0.179 C 
HETATM    5  S   UNL     1       8.597  30.530  62.355  1.00  0.00    -0.040 SA
HETATM    6  N   UNL     1       7.242  31.531  60.127  1.00  0.00    -0.292 N 
HETATM    7  C   UNL     1       6.050  32.047  59.565  1.00  0.00     0.030 C 
HETATM    8  C   UNL     1       5.955  32.209  58.061  1.00  0.00     0.070 C 
HETATM    9  H   UNL     1       6.360  31.403  63.270  1.00  0.00     0.163 HD
ENDROOT
BRANCH   1  10
HETATM   10  C   UNL     1       3.714  32.797  59.826  1.00  0.00     0.257 C 
HETATM   11  N   UNL     1       3.745  33.920  59.034  1.00  0.00    -0.306 N 
HETATM   12  H   UNL     1       4.622  34.386  58.855  1.00  0.00     0.170 HD
HETATM   13  O   UNL     1       2.749  32.104  60.118  1.00  0.00    -0.267 OA
BRANCH  11  14
HETATM   14  C   UNL     1       2.618  34.523  58.504  1.00  0.00     0.160 A 
HETATM   15  N   UNL     1       1.575  34.984  59.199  1.00  0.00    -0.110 NA
HETATM   16  O   UNL     1       0.699  35.523  58.280  1.00  0.00    -0.216 OA
HETATM   17  C   UNL     1       1.219  35.394  57.033  1.00  0.00     0.078 A 
HETATM   18  C   UNL     1       0.417  35.939  55.922  1.00  0.00     0.079 C 
HETATM   19  C   UNL     1       2.432  34.758  57.119  1.00  0.00     0.087 A 
ENDBRANCH  11  14
ENDBRANCH   1  10
BRANCH   2  20
HETATM   20  C   UNL     1       5.207  33.762  62.510  1.00  0.00    -0.031 A 
HETATM   21  C   UNL     1       4.605  33.994  63.759  1.00  0.00     0.012 A 
HETATM   22  C   UNL     1       4.648  35.261  64.347  1.00  0.00     0.037 A 
HETATM   23  C   UNL     1       5.292  36.302  63.687  1.00  0.00     0.065 A 
HETATM   24  C   UNL     1       5.895  36.097  62.453  1.00  0.00     0.037 A 
HETATM   25  C   UNL     1       5.858  34.831  61.868  1.00  0.00     0.012 A 
BRANCH  23  26
HETATM   26  O   UNL     1       5.355  37.553  64.222  1.00  0.00    -0.361 OA
HETATM   27  H   UNL     1       4.792  37.585  65.014  1.00  0.00     0.217 HD
ENDBRANCH  23  26
ENDBRANCH   2  20
BRANCH   6  28
HETATM   28  C   UNL     1       8.331  31.121  59.283  1.00  0.00     0.042 A 
HETATM   29  C   UNL     1       8.297  29.879  58.637  1.00  0.00     0.030 A 
HETATM   30  C   UNL     1       9.361  29.482  57.825  1.00  0.00     0.002 A 
HETATM   31  C   UNL     1      10.464  30.318  57.659  1.00  0.00     0.000 A 
HETATM   32  C   UNL     1      10.506  31.554  58.302  1.00  0.00     0.002 A 
HETATM   33  C   UNL     1       9.442  31.959  59.112  1.00  0.00     0.030 A 
ENDBRANCH   6  28
TORSDOF 5
ENDMDL
