MODEL 1
REMARK VINA RESULT:     -10.5      0.000      0.000
REMARK  4 active torsions:
REMARK  status: ('A' for Active; 'I' for Inactive)
REMARK    1  A    between atoms: C_2  and  C_3 
REMARK    2  A    between atoms: C_6  and  C_7 
REMARK    3  A    between atoms: N_8  and  N_9 
REMARK       I    between atoms: N_9  and  C_10 
REMARK    4  A    between atoms: C_10  and  C_11 
ROOT
HETATM    1  N   UNL     1       7.456  28.634  57.786  1.00  0.00    -0.242 N 
HETATM    2  C   UNL     1       8.155  29.823  57.895  1.00  0.00     0.292 C 
HETATM    3  O   UNL     1       9.270  30.101  57.481  1.00  0.00    -0.264 OA
HETATM    4  H   UNL     1       6.511  28.612  58.166  1.00  0.00     0.192 HD
ENDROOT
BRANCH   1   5
HETATM    5  N   UNL     1       7.934  27.409  57.398  1.00  0.00    -0.183 NA
HETATM    6  C   UNL     1       7.114  26.456  57.092  1.00  0.00     0.152 C 
BRANCH   6   7
HETATM    7  C   UNL     1       7.647  25.211  56.571  1.00  0.00     0.011 A 
HETATM    8  C   UNL     1       7.451  24.674  55.257  1.00  0.00     0.004 A 
HETATM    9  C   UNL     1       8.197  23.495  55.165  1.00  0.00     0.049 A 
HETATM   10  C   UNL     1       6.723  25.103  54.127  1.00  0.00     0.014 A 
HETATM   11  C   UNL     1       8.273  22.721  53.990  1.00  0.00    -0.031 A 
HETATM   12  N   UNL     1       8.787  23.305  56.395  1.00  0.00    -0.364 N 
HETATM   13  C   UNL     1       7.527  23.183  52.889  1.00  0.00     0.009 A 
HETATM   14  C   UNL     1       6.765  24.348  52.954  1.00  0.00     0.002 A 
HETATM   15  C   UNL     1       8.474  24.332  57.242  1.00  0.00     0.102 A 
HETATM   16  H   UNL     1       9.383  22.523  56.628  1.00  0.00     0.165 HD
BRANCH  11  17
HETATM   17  C   UNL     1       9.082  21.454  53.866  1.00  0.00     0.036 C 
HETATM   18  C   UNL     1       8.433  20.456  52.919  1.00  0.00     0.010 C 
ENDBRANCH  11  17
ENDBRANCH   6   7
ENDBRANCH   1   5
BRANCH   2  19
HETATM   19  C   UNL     1       7.386  30.859  58.699  1.00  0.00     0.157 A 
HETATM   20  N   UNL     1       6.311  31.345  58.144  1.00  0.00    -0.166 NA
HETATM   21  N   UNL     1       5.593  32.264  58.848  1.00  0.00    -0.242 N 
HETATM   22  C   UNL     1       5.888  32.734  60.107  1.00  0.00     0.272 A 
HETATM   23  H   UNL     1       4.773  32.654  58.391  1.00  0.00     0.192 HD
HETATM   24  O   UNL     1       5.196  33.570  60.675  1.00  0.00    -0.266 OA
HETATM   25  C   UNL     1       7.085  32.162  60.749  1.00  0.00     0.046 A 
HETATM   26  C   UNL     1       7.844  31.222  60.056  1.00  0.00     0.016 A 
HETATM   27  C   UNL     1       7.443  32.549  62.045  1.00  0.00     0.018 A 
HETATM   28  C   UNL     1       8.967  30.654  60.670  1.00  0.00     0.015 A 
HETATM   29  C   UNL     1       9.326  31.041  61.964  1.00  0.00     0.001 A 
HETATM   30  C   UNL     1       8.568  31.987  62.651  1.00  0.00     0.001 A 
ENDBRANCH   2  19
TORSDOF 4
ENDMDL
MODEL 2
REMARK VINA RESULT:     -10.1      1.785      2.724
REMARK  4 active torsions:
REMARK  status: ('A' for Active; 'I' for Inactive)
REMARK    1  A    between atoms: C_2  and  C_3 
REMARK    2  A    between atoms: C_6  and  C_7 
REMARK    3  A    between atoms: N_8  and  N_9 
REMARK       I    between atoms: N_9  and  C_10 
REMARK    4  A    between atoms: C_10  and  C_11 
ROOT
HETATM    1  N   UNL     1       7.921  28.690  58.100  1.00  0.00    -0.242 N 
HETATM    2  C   UNL     1       8.651  29.846  58.312  1.00  0.00     0.292 C 
HETATM    3  O   UNL     1       9.464  30.387  57.579  1.00  0.00    -0.264 OA
HETATM    4  H   UNL     1       7.254  28.420  58.822  1.00  0.00     0.192 HD
ENDROOT
BRANCH   1   5
HETATM    5  N   UNL     1       8.106  27.744  57.125  1.00  0.00    -0.183 NA
HETATM    6  C   UNL     1       7.270  26.764  57.000  1.00  0.00     0.152 C 
BRANCH   6   7
HETATM    7  C   UNL     1       7.425  25.847  55.886  1.00  0.00     0.011 A 
HETATM    8  C   UNL     1       7.792  24.464  55.955  1.00  0.00     0.004 A 
HETATM    9  C   UNL     1       7.756  23.950  54.655  1.00  0.00     0.049 A 
HETATM   10  C   UNL     1       8.125  23.595  57.015  1.00  0.00     0.014 A 
HETATM   11  C   UNL     1       8.020  22.600  54.351  1.00  0.00    -0.031 A 
HETATM   12  N   UNL     1       7.423  24.999  53.826  1.00  0.00    -0.364 N 
HETATM   13  C   UNL     1       8.354  21.770  55.439  1.00  0.00     0.009 A 
HETATM   14  C   UNL     1       8.408  22.255  56.744  1.00  0.00     0.002 A 
HETATM   15  C   UNL     1       7.212  26.137  54.552  1.00  0.00     0.102 A 
HETATM   16  H   UNL     1       7.330  24.927  52.822  1.00  0.00     0.165 HD
BRANCH  11  17
HETATM   17  C   UNL     1       7.974  22.023  52.959  1.00  0.00     0.036 C 
HETATM   18  C   UNL     1       8.306  20.539  52.947  1.00  0.00     0.010 C 
ENDBRANCH  11  17
ENDBRANCH   6   7
ENDBRANCH   1   5
BRANCH   2  19
HETATM   19  C   UNL     1       8.387  30.437  59.688  1.00  0.00     0.157 A 
HETATM   20  N   UNL     1       9.191  30.065  60.644  1.00  0.00    -0.166 NA
HETATM   21  N   UNL     1       8.987  30.592  61.885  1.00  0.00    -0.242 N 
HETATM   22  C   UNL     1       8.009  31.493  62.233  1.00  0.00     0.272 A 
HETATM   23  H   UNL     1       9.605  30.272  62.626  1.00  0.00     0.192 HD
HETATM   24  O   UNL     1       7.883  31.917  63.376  1.00  0.00    -0.266 OA
HETATM   25  C   UNL     1       7.119  31.938  61.146  1.00  0.00     0.046 A 
HETATM   26  C   UNL     1       7.297  31.418  59.867  1.00  0.00     0.016 A 
HETATM   27  C   UNL     1       6.118  32.884  61.396  1.00  0.00     0.018 A 
HETATM   28  C   UNL     1       6.473  31.857  58.823  1.00  0.00     0.015 A 
HETATM   29  C   UNL     1       5.472  32.800  59.073  1.00  0.00     0.001 A 
HETATM   30  C   UNL     1       5.293  33.312  60.356  1.00  0.00     0.001 A 
ENDBRANCH   2  19
TORSDOF 4
ENDMDL
MODEL 3
REMARK VINA RESULT:     -10.0      2.432      9.701
REMARK  4 active torsions:
REMARK  status: ('A' for Active; 'I' for Inactive)
REMARK    1  A    between atoms: C_2  and  C_3 
REMARK    2  A    between atoms: C_6  and  C_7 
REMARK    3  A    between atoms: N_8  and  N_9 
REMARK       I    between atoms: N_9  and  C_10 
REMARK    4  A    between atoms: C_10  and  C_11 
ROOT
HETATM    1  N   UNL     1       8.082  28.360  57.215  1.00  0.00    -0.242 N 
HETATM    2  C   UNL     1       6.933  27.722  56.786  1.00  0.00     0.292 C 
HETATM    3  O   UNL     1       5.822  27.714  57.295  1.00  0.00    -0.264 OA
HETATM    4  H   UNL     1       8.909  28.279  56.624  1.00  0.00     0.192 HD
ENDROOT
BRANCH   1   5
HETATM    5  N   UNL     1       8.319  28.939  58.435  1.00  0.00    -0.183 NA
HETATM    6  C   UNL     1       8.146  30.211  58.598  1.00  0.00     0.152 C 
BRANCH   6   7
HETATM    7  C   UNL     1       8.288  30.774  59.927  1.00  0.00     0.011 A 
HETATM    8  C   UNL     1       7.433  31.742  60.548  1.00  0.00     0.004 A 
HETATM    9  C   UNL     1       7.901  31.949  61.849  1.00  0.00     0.049 A 
HETATM   10  C   UNL     1       6.283  32.441  60.125  1.00  0.00     0.014 A 
HETATM   11  C   UNL     1       7.269  32.811  62.768  1.00  0.00    -0.031 A 
HETATM   12  N   UNL     1       9.026  31.166  61.993  1.00  0.00    -0.364 N 
HETATM   13  C   UNL     1       6.129  33.492  62.301  1.00  0.00     0.009 A 
HETATM   14  C   UNL     1       5.645  33.315  61.007  1.00  0.00     0.002 A 
HETATM   15  C   UNL     1       9.261  30.450  60.853  1.00  0.00     0.102 A 
HETATM   16  H   UNL     1       9.584  31.117  62.834  1.00  0.00     0.165 HD
BRANCH  11  17
HETATM   17  C   UNL     1       7.750  33.037  64.180  1.00  0.00     0.036 C 
HETATM   18  C   UNL     1       6.740  33.821  65.004  1.00  0.00     0.010 C 
ENDBRANCH  11  17
ENDBRANCH   6   7
ENDBRANCH   1   5
BRANCH   2  19
HETATM   19  C   UNL     1       7.178  26.897  55.533  1.00  0.00     0.157 A 
HETATM   20  N   UNL     1       7.048  27.518  54.394  1.00  0.00    -0.166 NA
HETATM   21  N   UNL     1       7.278  26.807  53.254  1.00  0.00    -0.242 N 
HETATM   22  C   UNL     1       7.643  25.483  53.183  1.00  0.00     0.272 A 
HETATM   23  H   UNL     1       7.146  27.297  52.373  1.00  0.00     0.192 HD
HETATM   24  O   UNL     1       7.824  24.908  52.116  1.00  0.00    -0.266 OA
HETATM   25  C   UNL     1       7.821  24.788  54.470  1.00  0.00     0.046 A 
HETATM   26  C   UNL     1       7.592  25.484  55.655  1.00  0.00     0.016 A 
HETATM   27  C   UNL     1       8.230  23.450  54.500  1.00  0.00     0.018 A 
HETATM   28  C   UNL     1       7.785  24.839  56.882  1.00  0.00     0.015 A 
HETATM   29  C   UNL     1       8.192  23.502  56.912  1.00  0.00     0.001 A 
HETATM   30  C   UNL     1       8.414  22.808  55.724  1.00  0.00     0.001 A 
ENDBRANCH   2  19
TORSDOF 4
ENDMDL
MODEL 4
REMARK VINA RESULT:      -9.9      6.554      9.685
REMARK  4 active torsions:
REMARK  status: ('A' for Active; 'I' for Inactive)
REMARK    1  A    between atoms: C_2  and  C_3 
REMARK    2  A    between atoms: C_6  and  C_7 
REMARK    3  A    between atoms: N_8  and  N_9 
REMARK       I    between atoms: N_9  and  C_10 
REMARK    4  A    between atoms: C_10  and  C_11 
ROOT
HETATM    1  N   UNL     1       6.480  26.262  53.285  1.00  0.00    -0.242 N 
HETATM    2  C   UNL     1       7.613  25.484  53.132  1.00  0.00     0.292 C 
HETATM    3  O   UNL     1       8.381  25.422  52.183  1.00  0.00    -0.264 OA
HETATM    4  H   UNL     1       5.991  26.203  54.177  1.00  0.00     0.192 HD
ENDROOT
BRANCH   1   5
HETATM    5  N   UNL     1       5.809  26.973  52.323  1.00  0.00    -0.183 NA
HETATM    6  C   UNL     1       5.411  26.388  51.240  1.00  0.00     0.152 C 
BRANCH   6   7
HETATM    7  C   UNL     1       4.601  27.135  50.296  1.00  0.00     0.011 A 
HETATM    8  C   UNL     1       3.902  26.613  49.160  1.00  0.00     0.004 A 
HETATM    9  C   UNL     1       3.197  27.668  48.573  1.00  0.00     0.049 A 
HETATM   10  C   UNL     1       3.785  25.327  48.594  1.00  0.00     0.014 A 
HETATM   11  C   UNL     1       2.359  27.508  47.451  1.00  0.00    -0.031 A 
HETATM   12  N   UNL     1       3.497  28.797  49.305  1.00  0.00    -0.364 N 
HETATM   13  C   UNL     1       2.278  26.208  46.916  1.00  0.00     0.009 A 
HETATM   14  C   UNL     1       2.976  25.138  47.471  1.00  0.00     0.002 A 
HETATM   15  C   UNL     1       4.327  28.488  50.345  1.00  0.00     0.102 A 
HETATM   16  H   UNL     1       3.134  29.720  49.107  1.00  0.00     0.165 HD
BRANCH  11  17
HETATM   17  C   UNL     1       1.581  28.630  46.812  1.00  0.00     0.036 C 
HETATM   18  C   UNL     1       0.246  28.153  46.260  1.00  0.00     0.010 C 
ENDBRANCH  11  17
ENDBRANCH   6   7
ENDBRANCH   1   5
BRANCH   2  19
HETATM   19  C   UNL     1       7.839  24.572  54.327  1.00  0.00     0.157 A 
HETATM   20  N   UNL     1       7.890  25.146  55.496  1.00  0.00    -0.166 NA
HETATM   21  N   UNL     1       8.075  24.351  56.586  1.00  0.00    -0.242 N 
HETATM   22  C   UNL     1       8.210  22.982  56.579  1.00  0.00     0.272 A 
HETATM   23  H   UNL     1       8.140  24.816  57.488  1.00  0.00     0.192 HD
HETATM   24  O   UNL     1       8.383  22.334  57.605  1.00  0.00    -0.266 OA
HETATM   25  C   UNL     1       8.122  22.328  55.262  1.00  0.00     0.046 A 
HETATM   26  C   UNL     1       7.936  23.111  54.125  1.00  0.00     0.016 A 
HETATM   27  C   UNL     1       8.209  20.935  55.159  1.00  0.00     0.018 A 
HETATM   28  C   UNL     1       7.823  22.495  52.873  1.00  0.00     0.015 A 
HETATM   29  C   UNL     1       7.912  21.104  52.769  1.00  0.00     0.001 A 
HETATM   30  C   UNL     1       8.105  20.324  53.908  1.00  0.00     0.001 A 
ENDBRANCH   2  19
TORSDOF 4
ENDMDL
MODEL 5
REMARK VINA RESULT:      -9.7      2.206      9.975
REMARK  4 active torsions:
REMARK  status: ('A' for Active; 'I' for Inactive)
REMARK    1  A    between atoms: C_2  and  C_3 
REMARK    2  A    between atoms: C_6  and  C_7 
REMARK    3  A    between atoms: N_8  and  N_9 
REMARK       I    between atoms: N_9  and  C_10 
REMARK    4  A    between atoms: C_10  and  C_11 
ROOT
HETATM    1  N   UNL     1       7.469  27.270  57.202  1.00  0.00    -0.242 N 
HETATM    2  C   UNL     1       6.630  26.221  56.874  1.00  0.00     0.292 C 
HETATM    3  O   UNL     1       5.437  26.089  57.104  1.00  0.00    -0.264 OA
HETATM    4  H   UNL     1       8.435  27.212  56.883  1.00  0.00     0.192 HD
ENDROOT
BRANCH   1   5
HETATM    5  N   UNL     1       7.226  28.305  58.069  1.00  0.00    -0.183 NA
HETATM    6  C   UNL     1       7.454  29.526  57.707  1.00  0.00     0.152 C 
BRANCH   6   7
HETATM    7  C   UNL     1       7.074  30.605  58.600  1.00  0.00     0.011 A 
HETATM    8  C   UNL     1       7.709  30.965  59.832  1.00  0.00     0.004 A 
HETATM    9  C   UNL     1       7.061  32.101  60.328  1.00  0.00     0.049 A 
HETATM   10  C   UNL     1       8.799  30.440  60.558  1.00  0.00     0.014 A 
HETATM   11  C   UNL     1       7.454  32.759  61.510  1.00  0.00    -0.031 A 
HETATM   12  N   UNL     1       6.042  32.388  59.446  1.00  0.00    -0.364 N 
HETATM   13  C   UNL     1       8.542  32.196  62.205  1.00  0.00     0.009 A 
HETATM   14  C   UNL     1       9.201  31.060  61.743  1.00  0.00     0.002 A 
HETATM   15  C   UNL     1       6.047  31.506  58.402  1.00  0.00     0.102 A 
HETATM   16  H   UNL     1       5.395  33.158  59.552  1.00  0.00     0.165 HD
BRANCH  11  17
HETATM   17  C   UNL     1       6.777  33.992  62.054  1.00  0.00     0.036 C 
HETATM   18  C   UNL     1       6.573  33.911  63.559  1.00  0.00     0.010 C 
ENDBRANCH  11  17
ENDBRANCH   6   7
ENDBRANCH   1   5
BRANCH   2  19
HETATM   19  C   UNL     1       7.378  25.094  56.181  1.00  0.00     0.157 A 
HETATM   20  N   UNL     1       7.906  24.185  56.952  1.00  0.00    -0.166 NA
HETATM   21  N   UNL     1       8.569  23.154  56.357  1.00  0.00    -0.242 N 
HETATM   22  C   UNL     1       8.735  22.969  55.004  1.00  0.00     0.272 A 
HETATM   23  H   UNL     1       8.998  22.468  56.972  1.00  0.00     0.192 HD
HETATM   24  O   UNL     1       9.354  22.018  54.543  1.00  0.00    -0.266 OA
HETATM   25  C   UNL     1       8.112  23.979  54.130  1.00  0.00     0.046 A 
HETATM   26  C   UNL     1       7.430  25.048  54.705  1.00  0.00     0.016 A 
HETATM   27  C   UNL     1       8.195  23.854  52.738  1.00  0.00     0.018 A 
HETATM   28  C   UNL     1       6.812  25.996  53.881  1.00  0.00     0.015 A 
HETATM   29  C   UNL     1       6.895  25.873  52.491  1.00  0.00     0.001 A 
HETATM   30  C   UNL     1       7.585  24.805  51.920  1.00  0.00     0.001 A 
ENDBRANCH   2  19
TORSDOF 4
ENDMDL
MODEL 6
REMARK VINA RESULT:      -9.7      1.990      3.026
REMARK  4 active torsions:
REMARK  status: ('A' for Active; 'I' for Inactive)
REMARK    1  A    between atoms: C_2  and  C_3 
REMARK    2  A    between atoms: C_6  and  C_7 
REMARK    3  A    between atoms: N_8  and  N_9 
REMARK       I    between atoms: N_9  and  C_10 
REMARK    4  A    between atoms: C_10  and  C_11 
ROOT
HETATM    1  N   UNL     1       5.366  30.524  58.374  1.00  0.00    -0.242 N 
HETATM    2  C   UNL     1       5.554  31.871  58.628  1.00  0.00     0.292 C 
HETATM    3  O   UNL     1       5.945  32.749  57.874  1.00  0.00    -0.264 OA
HETATM    4  H   UNL     1       4.990  29.954  59.130  1.00  0.00     0.192 HD
ENDROOT
BRANCH   1   5
HETATM    5  N   UNL     1       5.798  29.803  57.290  1.00  0.00    -0.183 NA
HETATM    6  C   UNL     1       6.313  28.627  57.452  1.00  0.00     0.152 C 
BRANCH   6   7
HETATM    7  C   UNL     1       6.649  27.841  56.280  1.00  0.00     0.011 A 
HETATM    8  C   UNL     1       7.195  26.517  56.260  1.00  0.00     0.004 A 
HETATM    9  C   UNL     1       7.298  26.119  54.923  1.00  0.00     0.049 A 
HETATM   10  C   UNL     1       7.587  25.608  57.266  1.00  0.00     0.014 A 
HETATM   11  C   UNL     1       7.758  24.847  54.529  1.00  0.00    -0.031 A 
HETATM   12  N   UNL     1       6.869  27.185  54.162  1.00  0.00    -0.364 N 
HETATM   13  C   UNL     1       8.144  23.976  55.566  1.00  0.00     0.009 A 
HETATM   14  C   UNL     1       8.063  24.346  56.906  1.00  0.00     0.002 A 
HETATM   15  C   UNL     1       6.468  28.217  54.963  1.00  0.00     0.102 A 
HETATM   16  H   UNL     1       6.840  27.191  53.152  1.00  0.00     0.165 HD
BRANCH  11  17
HETATM   17  C   UNL     1       7.864  24.395  53.095  1.00  0.00     0.036 C 
HETATM   18  C   UNL     1       7.723  22.886  52.963  1.00  0.00     0.010 C 
ENDBRANCH  11  17
ENDBRANCH   6   7
ENDBRANCH   1   5
BRANCH   2  19
HETATM   19  C   UNL     1       5.262  32.219  60.079  1.00  0.00     0.157 A 
HETATM   20  N   UNL     1       4.010  32.407  60.391  1.00  0.00    -0.166 NA
HETATM   21  N   UNL     1       3.718  32.704  61.688  1.00  0.00    -0.242 N 
HETATM   22  C   UNL     1       4.622  32.822  62.718  1.00  0.00     0.272 A 
HETATM   23  H   UNL     1       2.741  32.876  61.911  1.00  0.00     0.192 HD
HETATM   24  O   UNL     1       4.282  33.101  63.862  1.00  0.00    -0.266 OA
HETATM   25  C   UNL     1       6.034  32.578  62.373  1.00  0.00     0.046 A 
HETATM   26  C   UNL     1       6.369  32.274  61.056  1.00  0.00     0.016 A 
HETATM   27  C   UNL     1       7.022  32.636  63.363  1.00  0.00     0.018 A 
HETATM   28  C   UNL     1       7.704  32.014  60.726  1.00  0.00     0.015 A 
HETATM   29  C   UNL     1       8.692  32.074  61.713  1.00  0.00     0.001 A 
HETATM   30  C   UNL     1       8.353  32.384  63.029  1.00  0.00     0.001 A 
ENDBRANCH   2  19
TORSDOF 4
ENDMDL
MODEL 7
REMARK VINA RESULT:      -9.5      1.455      2.133
REMARK  4 active torsions:
REMARK  status: ('A' for Active; 'I' for Inactive)
REMARK    1  A    between atoms: C_2  and  C_3 
REMARK    2  A    between atoms: C_6  and  C_7 
REMARK    3  A    between atoms: N_8  and  N_9 
REMARK       I    between atoms: N_9  and  C_10 
REMARK    4  A    between atoms: C_10  and  C_11 
ROOT
HETATM    1  N   UNL     1       6.734  28.330  57.395  1.00  0.00    -0.242 N 
HETATM    2  C   UNL     1       6.522  29.613  56.923  1.00  0.00     0.292 C 
HETATM    3  O   UNL     1       6.543  30.022  55.772  1.00  0.00    -0.264 OA
HETATM    4  H   UNL     1       6.632  28.179  58.398  1.00  0.00     0.192 HD
ENDROOT
BRANCH   1   5
HETATM    5  N   UNL     1       7.252  27.257  56.716  1.00  0.00    -0.183 NA
HETATM    6  C   UNL     1       6.517  26.597  55.881  1.00  0.00     0.152 C 
BRANCH   6   7
HETATM    7  C   UNL     1       7.126  25.544  55.090  1.00  0.00     0.011 A 
HETATM    8  C   UNL     1       7.674  24.312  55.574  1.00  0.00     0.004 A 
HETATM    9  C   UNL     1       8.091  23.568  54.467  1.00  0.00     0.049 A 
HETATM   10  C   UNL     1       7.825  23.750  56.860  1.00  0.00     0.014 A 
HETATM   11  C   UNL     1       8.642  22.275  54.568  1.00  0.00    -0.031 A 
HETATM   12  N   UNL     1       7.845  24.345  53.355  1.00  0.00    -0.364 N 
HETATM   13  C   UNL     1       8.781  21.757  55.870  1.00  0.00     0.009 A 
HETATM   14  C   UNL     1       8.384  22.477  56.994  1.00  0.00     0.002 A 
HETATM   15  C   UNL     1       7.258  25.525  53.716  1.00  0.00     0.102 A 
HETATM   16  H   UNL     1       8.054  24.068  52.406  1.00  0.00     0.165 HD
BRANCH  11  17
HETATM   17  C   UNL     1       9.086  21.452  53.385  1.00  0.00     0.036 C 
HETATM   18  C   UNL     1       7.984  20.529  52.889  1.00  0.00     0.010 C 
ENDBRANCH  11  17
ENDBRANCH   6   7
ENDBRANCH   1   5
BRANCH   2  19
HETATM   19  C   UNL     1       6.289  30.601  58.055  1.00  0.00     0.157 A 
HETATM   20  N   UNL     1       5.047  30.883  58.334  1.00  0.00    -0.166 NA
HETATM   21  N   UNL     1       4.808  31.753  59.355  1.00  0.00    -0.242 N 
HETATM   22  C   UNL     1       5.758  32.369  60.136  1.00  0.00     0.272 A 
HETATM   23  H   UNL     1       3.836  31.984  59.542  1.00  0.00     0.192 HD
HETATM   24  O   UNL     1       5.464  33.150  61.033  1.00  0.00    -0.266 OA
HETATM   25  C   UNL     1       7.160  32.027  59.842  1.00  0.00     0.046 A 
HETATM   26  C   UNL     1       7.441  31.143  58.803  1.00  0.00     0.016 A 
HETATM   27  C   UNL     1       8.196  32.574  60.609  1.00  0.00     0.018 A 
HETATM   28  C   UNL     1       8.770  30.792  58.536  1.00  0.00     0.015 A 
HETATM   29  C   UNL     1       9.804  31.339  59.301  1.00  0.00     0.001 A 
HETATM   30  C   UNL     1       9.519  32.229  60.335  1.00  0.00     0.001 A 
ENDBRANCH   2  19
TORSDOF 4
ENDMDL
MODEL 8
REMARK VINA RESULT:      -9.4      2.542      9.619
REMARK  4 active torsions:
REMARK  status: ('A' for Active; 'I' for Inactive)
REMARK    1  A    between atoms: C_2  and  C_3 
REMARK    2  A    between atoms: C_6  and  C_7 
REMARK    3  A    between atoms: N_8  and  N_9 
REMARK       I    between atoms: N_9  and  C_10 
REMARK    4  A    between atoms: C_10  and  C_11 
ROOT
HETATM    1  N   UNL     1       6.630  28.304  56.475  1.00  0.00    -0.242 N 
HETATM    2  C   UNL     1       7.533  28.319  55.428  1.00  0.00     0.292 C 
HETATM    3  O   UNL     1       8.627  28.859  55.363  1.00  0.00    -0.264 OA
HETATM    4  H   UNL     1       5.780  27.756  56.351  1.00  0.00     0.192 HD
ENDROOT
BRANCH   1   5
HETATM    5  N   UNL     1       6.633  29.087  57.602  1.00  0.00    -0.183 NA
HETATM    6  C   UNL     1       6.638  30.376  57.500  1.00  0.00     0.152 C 
BRANCH   6   7
HETATM    7  C   UNL     1       6.519  31.176  58.704  1.00  0.00     0.011 A 
HETATM    8  C   UNL     1       7.439  31.220  59.802  1.00  0.00     0.004 A 
HETATM    9  C   UNL     1       6.969  32.171  60.713  1.00  0.00     0.049 A 
HETATM   10  C   UNL     1       8.649  30.553  60.088  1.00  0.00     0.014 A 
HETATM   11  C   UNL     1       7.652  32.509  61.897  1.00  0.00    -0.031 A 
HETATM   12  N   UNL     1       5.782  32.651  60.203  1.00  0.00    -0.364 N 
HETATM   13  C   UNL     1       8.852  31.814  62.145  1.00  0.00     0.009 A 
HETATM   14  C   UNL     1       9.341  30.854  61.262  1.00  0.00     0.002 A 
HETATM   15  C   UNL     1       5.508  32.071  58.996  1.00  0.00     0.102 A 
HETATM   16  H   UNL     1       5.207  33.349  60.654  1.00  0.00     0.165 HD
BRANCH  11  17
HETATM   17  C   UNL     1       7.169  33.540  62.886  1.00  0.00     0.036 C 
HETATM   18  C   UNL     1       7.559  33.187  64.312  1.00  0.00     0.010 C 
ENDBRANCH  11  17
ENDBRANCH   6   7
ENDBRANCH   1   5
BRANCH   2  19
HETATM   19  C   UNL     1       6.999  27.583  54.210  1.00  0.00     0.157 A 
HETATM   20  N   UNL     1       6.484  28.319  53.265  1.00  0.00    -0.166 NA
HETATM   21  N   UNL     1       6.011  27.687  52.154  1.00  0.00    -0.242 N 
HETATM   22  C   UNL     1       6.028  26.331  51.923  1.00  0.00     0.272 A 
HETATM   23  H   UNL     1       5.588  28.272  51.439  1.00  0.00     0.192 HD
HETATM   24  O   UNL     1       5.575  25.835  50.898  1.00  0.00    -0.266 OA
HETATM   25  C   UNL     1       6.639  25.501  52.975  1.00  0.00     0.046 A 
HETATM   26  C   UNL     1       7.129  26.114  54.126  1.00  0.00     0.016 A 
HETATM   27  C   UNL     1       6.738  24.114  52.811  1.00  0.00     0.018 A 
HETATM   28  C   UNL     1       7.736  25.334  55.118  1.00  0.00     0.015 A 
HETATM   29  C   UNL     1       7.833  23.949  54.956  1.00  0.00     0.001 A 
HETATM   30  C   UNL     1       7.335  23.339  53.806  1.00  0.00     0.001 A 
ENDBRANCH   2  19
TORSDOF 4
ENDMDL
MODEL 9
REMARK VINA RESULT:      -9.4      6.534      9.983
REMARK  4 active torsions:
REMARK  status: ('A' for Active; 'I' for Inactive)
REMARK    1  A    between atoms: C_2  and  C_3 
REMARK    2  A    between atoms: C_6  and  C_7 
REMARK    3  A    between atoms: N_8  and  N_9 
REMARK       I    between atoms: N_9  and  C_10 
REMARK    4  A    between atoms: C_10  and  C_11 
ROOT
HETATM    1  N   UNL     1       5.836  24.593  52.671  1.00  0.00    -0.242 N 
HETATM    2  C   UNL     1       7.209  24.428  52.669  1.00  0.00     0.292 C 
HETATM    3  O   UNL     1       8.072  25.172  52.229  1.00  0.00    -0.264 OA
HETATM    4  H   UNL     1       5.280  23.871  53.127  1.00  0.00     0.192 HD
ENDROOT
BRANCH   1   5
HETATM    5  N   UNL     1       5.096  25.511  51.970  1.00  0.00    -0.183 NA
HETATM    6  C   UNL     1       5.566  26.036  50.885  1.00  0.00     0.152 C 
BRANCH   6   7
HETATM    7  C   UNL     1       4.714  26.912  50.103  1.00  0.00     0.011 A 
HETATM    8  C   UNL     1       3.903  26.546  48.980  1.00  0.00     0.004 A 
HETATM    9  C   UNL     1       3.199  27.684  48.576  1.00  0.00     0.049 A 
HETATM   10  C   UNL     1       3.685  25.336  48.288  1.00  0.00     0.014 A 
HETATM   11  C   UNL     1       2.266  27.679  47.519  1.00  0.00    -0.031 A 
HETATM   12  N   UNL     1       3.605  28.711  49.399  1.00  0.00    -0.364 N 
HETATM   13  C   UNL     1       2.085  26.452  46.853  1.00  0.00     0.009 A 
HETATM   14  C   UNL     1       2.780  25.303  47.225  1.00  0.00     0.002 A 
HETATM   15  C   UNL     1       4.504  28.259  50.324  1.00  0.00     0.102 A 
HETATM   16  H   UNL     1       3.268  29.662  49.335  1.00  0.00     0.165 HD
BRANCH  11  17
HETATM   17  C   UNL     1       1.487  28.892  47.077  1.00  0.00     0.036 C 
HETATM   18  C   UNL     1       0.167  28.512  46.424  1.00  0.00     0.010 C 
ENDBRANCH  11  17
ENDBRANCH   6   7
ENDBRANCH   1   5
BRANCH   2  19
HETATM   19  C   UNL     1       7.619  23.092  53.267  1.00  0.00     0.157 A 
HETATM   20  N   UNL     1       7.778  22.105  52.431  1.00  0.00    -0.166 NA
HETATM   21  N   UNL     1       8.161  20.899  52.938  1.00  0.00    -0.242 N 
HETATM   22  C   UNL     1       8.407  20.616  54.262  1.00  0.00     0.272 A 
HETATM   23  H   UNL     1       8.254  20.132  52.277  1.00  0.00     0.192 HD
HETATM   24  O   UNL     1       8.741  19.500  54.643  1.00  0.00    -0.266 OA
HETATM   25  C   UNL     1       8.258  21.739  55.204  1.00  0.00     0.046 A 
HETATM   26  C   UNL     1       7.865  22.984  54.720  1.00  0.00     0.016 A 
HETATM   27  C   UNL     1       8.525  21.557  56.566  1.00  0.00     0.018 A 
HETATM   28  C   UNL     1       7.749  24.063  55.605  1.00  0.00     0.015 A 
HETATM   29  C   UNL     1       8.013  23.882  56.966  1.00  0.00     0.001 A 
HETATM   30  C   UNL     1       8.400  22.632  57.446  1.00  0.00     0.001 A 
ENDBRANCH   2  19
TORSDOF 4
ENDMDL
MODEL 10
REMARK VINA RESULT:      -9.2      7.205     11.454
REMARK  4 active torsions:
REMARK  status: ('A' for Active; 'I' for Inactive)
REMARK    1  A    between atoms: C_2  and  C_3 
REMARK    2  A    between atoms: C_6  and  C_7 
REMARK    3  A    between atoms: N_8  and  N_9 
REMARK       I    between atoms: N_9  and  C_10 
REMARK    4  A    between atoms: C_10  and  C_11 
ROOT
HETATM    1  N   UNL     1       6.873  34.070  67.265  1.00  0.00    -0.242 N 
HETATM    2  C   UNL     1       6.114  34.262  68.405  1.00  0.00     0.292 C 
HETATM    3  O   UNL     1       4.902  34.197  68.543  1.00  0.00    -0.264 OA
HETATM    4  H   UNL     1       7.886  34.127  67.363  1.00  0.00     0.192 HD
ENDROOT
BRANCH   1   5
HETATM    5  N   UNL     1       6.438  33.996  65.966  1.00  0.00    -0.183 NA
HETATM    6  C   UNL     1       7.284  33.805  65.005  1.00  0.00     0.152 C 
BRANCH   6   7
HETATM    7  C   UNL     1       6.782  33.612  63.658  1.00  0.00     0.011 A 
HETATM    8  C   UNL     1       7.384  32.828  62.620  1.00  0.00     0.004 A 
HETATM    9  C   UNL     1       6.532  32.866  61.511  1.00  0.00     0.049 A 
HETATM   10  C   UNL     1       8.567  32.066  62.535  1.00  0.00     0.014 A 
HETATM   11  C   UNL     1       6.789  32.165  60.316  1.00  0.00    -0.031 A 
HETATM   12  N   UNL     1       5.475  33.682  61.855  1.00  0.00    -0.364 N 
HETATM   13  C   UNL     1       7.984  31.422  60.275  1.00  0.00     0.009 A 
HETATM   14  C   UNL     1       8.858  31.373  61.358  1.00  0.00     0.002 A 
HETATM   15  C   UNL     1       5.609  34.125  63.140  1.00  0.00     0.102 A 
HETATM   16  H   UNL     1       4.702  33.902  61.243  1.00  0.00     0.165 HD
BRANCH  11  17
HETATM   17  C   UNL     1       5.877  32.183  59.115  1.00  0.00     0.036 C 
HETATM   18  C   UNL     1       6.317  31.185  58.054  1.00  0.00     0.010 C 
ENDBRANCH  11  17
ENDBRANCH   6   7
ENDBRANCH   1   5
BRANCH   2  19
HETATM   19  C   UNL     1       6.974  34.654  69.596  1.00  0.00     0.157 A 
HETATM   20  N   UNL     1       7.371  35.895  69.644  1.00  0.00    -0.166 NA
HETATM   21  N   UNL     1       8.129  36.278  70.709  1.00  0.00    -0.242 N 
HETATM   22  C   UNL     1       8.519  35.478  71.758  1.00  0.00     0.272 A 
HETATM   23  H   UNL     1       8.454  37.241  70.718  1.00  0.00     0.192 HD
HETATM   24  O   UNL     1       9.211  35.895  72.679  1.00  0.00    -0.266 OA
HETATM   25  C   UNL     1       8.044  34.084  71.722  1.00  0.00     0.046 A 
HETATM   26  C   UNL     1       7.270  33.657  70.646  1.00  0.00     0.016 A 
HETATM   27  C   UNL     1       8.357  33.205  72.765  1.00  0.00     0.018 A 
HETATM   28  C   UNL     1       6.792  32.341  70.619  1.00  0.00     0.015 A 
HETATM   29  C   UNL     1       7.105  31.463  71.659  1.00  0.00     0.001 A 
HETATM   30  C   UNL     1       7.887  31.892  72.731  1.00  0.00     0.001 A 
ENDBRANCH   2  19
TORSDOF 4
ENDMDL
