MODEL 1
REMARK VINA RESULT:      -9.7      0.000      0.000
REMARK  7 active torsions:
REMARK  status: ('A' for Active; 'I' for Inactive)
REMARK    1  A    between atoms: C_2  and  N_3 
REMARK    2  A    between atoms: C_2  and  C_12 
REMARK       I    between atoms: N_3  and  C_4 
REMARK    3  A    between atoms: C_4  and  C_5 
REMARK    4  A    between atoms: N_17  and  C_19 
REMARK    5  A    between atoms: C_19  and  C_20 
REMARK    6  A    between atoms: C_22  and  C_23 
REMARK    7  A    between atoms: C_23  and  N_24 
ROOT
HETATM    1  C   UNL     1       8.586  31.770  60.187  1.00  0.00     0.152 A 
HETATM    2  N   UNL     1       8.428  31.113  58.985  1.00  0.00    -0.317 N 
HETATM    3  C   UNL     1       9.625  31.241  58.327  1.00  0.00     0.131 A 
HETATM    4  C   UNL     1      10.012  30.566  57.063  1.00  0.00     0.108 C 
HETATM    5  C   UNL     1       9.707  29.075  57.139  1.00  0.00     0.243 C 
HETATM    6  N   UNL     1       8.243  28.743  56.848  1.00  0.00    -0.065 N 
HETATM    7  H   UNL     1       8.195  28.622  55.826  1.00  0.00     0.280 HD
HETATM    8  C   UNL     1       7.228  29.847  57.145  1.00  0.00     0.255 C 
HETATM    9  C   UNL     1       7.255  30.370  58.583  1.00  0.00     0.159 C 
HETATM   10  N   UNL     1      10.429  31.986  59.050  1.00  0.00    -0.135 NA
HETATM   11  N   UNL     1       9.783  32.319  60.205  1.00  0.00    -0.133 NA
ENDROOT
BRANCH   6  12
HETATM   12  C   UNL     1       7.823  27.394  57.423  1.00  0.00     0.280 C 
BRANCH  12  13
HETATM   13  C   UNL     1       7.145  26.485  56.436  1.00  0.00     0.009 A 
HETATM   14  S   UNL     1       8.070  25.374  55.509  1.00  0.00    -0.096 SA
HETATM   15  C   UNL     1       6.687  24.754  54.707  1.00  0.00     0.009 A 
HETATM   16  C   UNL     1       5.537  25.380  55.149  1.00  0.00     0.017 A 
HETATM   17  C   UNL     1       5.798  26.365  56.151  1.00  0.00     0.017 A 
BRANCH  15  18
HETATM   18  C   UNL     1       6.826  23.683  53.661  1.00  0.00     0.280 C 
BRANCH  18  19
HETATM   19  N   UNL     1       7.799  22.583  54.037  1.00  0.00    -0.067 N 
HETATM   20  H   UNL     1       8.736  23.005  54.018  1.00  0.00     0.280 HD
HETATM   21  C   UNL     1       7.564  22.044  55.431  1.00  0.00     0.235 C 
HETATM   22  C   UNL     1       8.639  21.021  55.772  1.00  0.00     0.028 C 
HETATM   23  C   UNL     1       8.694  19.896  54.746  1.00  0.00     0.003 C 
HETATM   24  C   UNL     1       8.865  20.451  53.337  1.00  0.00     0.028 C 
HETATM   25  C   UNL     1       7.790  21.475  53.002  1.00  0.00     0.235 C 
ENDBRANCH  18  19
ENDBRANCH  15  18
ENDBRANCH  12  13
ENDBRANCH   6  12
BRANCH   1  26
HETATM   26  C   UNL     1       7.587  31.800  61.300  1.00  0.00     0.152 C 
HETATM   27  C   UNL     1       8.257  31.473  62.633  1.00  0.00     0.040 C 
BRANCH  26  28
HETATM   28  N   UNL     1       6.977  33.112  61.331  1.00  0.00    -0.349 N 
HETATM   29  C   UNL     1       5.617  33.253  61.171  1.00  0.00     0.222 C 
HETATM   30  O   UNL     1       4.912  32.311  60.823  1.00  0.00    -0.273 OA
HETATM   31  H   UNL     1       7.508  33.860  61.768  1.00  0.00     0.163 HD
BRANCH  29  32
HETATM   32  C   UNL     1       5.087  34.656  61.465  1.00  0.00     0.082 C 
HETATM   33  C   UNL     1       3.562  34.665  61.605  1.00  0.00     0.040 C 
HETATM   34  C   UNL     1       3.125  34.087  62.946  1.00  0.00     0.168 C 
HETATM   35  O   UNL     1       3.745  34.792  64.016  1.00  0.00    -0.391 OA
HETATM   36  C   UNL     1       5.166  34.671  63.999  1.00  0.00     0.168 C 
HETATM   37  C   UNL     1       5.742  35.256  62.715  1.00  0.00     0.040 C 
ENDBRANCH  29  32
ENDBRANCH  26  28
ENDBRANCH   1  26
TORSDOF 7
ENDMDL
MODEL 2
REMARK VINA RESULT:      -9.4      2.248      3.450
REMARK  7 active torsions:
REMARK  status: ('A' for Active; 'I' for Inactive)
REMARK    1  A    between atoms: C_2  and  N_3 
REMARK    2  A    between atoms: C_2  and  C_12 
REMARK       I    between atoms: N_3  and  C_4 
REMARK    3  A    between atoms: C_4  and  C_5 
REMARK    4  A    between atoms: N_17  and  C_19 
REMARK    5  A    between atoms: C_19  and  C_20 
REMARK    6  A    between atoms: C_22  and  C_23 
REMARK    7  A    between atoms: C_23  and  N_24 
ROOT
HETATM    1  C   UNL     1       8.726  31.562  60.175  1.00  0.00     0.152 A 
HETATM    2  N   UNL     1       8.639  30.939  58.948  1.00  0.00    -0.317 N 
HETATM    3  C   UNL     1       9.806  31.241  58.291  1.00  0.00     0.131 A 
HETATM    4  C   UNL     1      10.262  30.670  56.999  1.00  0.00     0.108 C 
HETATM    5  C   UNL     1      10.144  29.151  57.015  1.00  0.00     0.243 C 
HETATM    6  N   UNL     1       8.730  28.653  56.716  1.00  0.00    -0.065 N 
HETATM    7  H   UNL     1       8.688  28.568  55.691  1.00  0.00     0.280 HD
HETATM    8  C   UNL     1       7.589  29.609  57.062  1.00  0.00     0.255 C 
HETATM    9  C   UNL     1       7.564  30.074  58.520  1.00  0.00     0.159 C 
HETATM   10  N   UNL     1      10.518  32.050  59.041  1.00  0.00    -0.135 NA
HETATM   11  N   UNL     1       9.846  32.254  60.211  1.00  0.00    -0.133 NA
ENDROOT
BRANCH   6  12
HETATM   12  C   UNL     1       8.485  27.241  57.237  1.00  0.00     0.280 C 
BRANCH  12  13
HETATM   13  C   UNL     1       7.409  26.488  56.503  1.00  0.00     0.009 A 
HETATM   14  S   UNL     1       7.346  26.527  54.787  1.00  0.00    -0.096 SA
HETATM   15  C   UNL     1       5.970  25.506  54.726  1.00  0.00     0.009 A 
HETATM   16  C   UNL     1       5.573  25.134  55.996  1.00  0.00     0.017 A 
HETATM   17  C   UNL     1       6.407  25.688  57.017  1.00  0.00     0.017 A 
BRANCH  15  18
HETATM   18  C   UNL     1       5.346  25.143  53.407  1.00  0.00     0.280 C 
BRANCH  18  19
HETATM   19  N   UNL     1       5.259  26.300  52.432  1.00  0.00    -0.067 N 
HETATM   20  H   UNL     1       6.172  26.770  52.456  1.00  0.00     0.280 HD
HETATM   21  C   UNL     1       5.008  25.851  51.010  1.00  0.00     0.235 C 
HETATM   22  C   UNL     1       5.036  27.056  50.079  1.00  0.00     0.028 C 
HETATM   23  C   UNL     1       4.036  28.123  50.507  1.00  0.00     0.003 C 
HETATM   24  C   UNL     1       4.253  28.523  51.961  1.00  0.00     0.028 C 
HETATM   25  C   UNL     1       4.227  27.315  52.887  1.00  0.00     0.235 C 
ENDBRANCH  18  19
ENDBRANCH  15  18
ENDBRANCH  12  13
ENDBRANCH   6  12
BRANCH   1  26
HETATM   26  C   UNL     1       7.741  31.423  61.293  1.00  0.00     0.152 C 
HETATM   27  C   UNL     1       8.409  30.819  62.527  1.00  0.00     0.040 C 
BRANCH  26  28
HETATM   28  N   UNL     1       7.193  32.730  61.584  1.00  0.00    -0.349 N 
HETATM   29  C   UNL     1       5.882  33.021  61.279  1.00  0.00     0.222 C 
HETATM   30  O   UNL     1       5.199  32.260  60.601  1.00  0.00    -0.273 OA
HETATM   31  H   UNL     1       7.683  33.296  62.272  1.00  0.00     0.163 HD
BRANCH  29  32
HETATM   32  C   UNL     1       5.376  34.342  61.856  1.00  0.00     0.082 C 
HETATM   33  C   UNL     1       3.867  34.506  61.649  1.00  0.00     0.040 C 
HETATM   34  C   UNL     1       3.078  33.640  62.623  1.00  0.00     0.168 C 
HETATM   35  O   UNL     1       3.449  33.935  63.965  1.00  0.00    -0.391 OA
HETATM   36  C   UNL     1       4.821  33.642  64.228  1.00  0.00     0.168 C 
HETATM   37  C   UNL     1       5.731  34.482  63.341  1.00  0.00     0.040 C 
ENDBRANCH  29  32
ENDBRANCH  26  28
ENDBRANCH   1  26
TORSDOF 7
ENDMDL
MODEL 3
REMARK VINA RESULT:      -9.2      4.069     11.823
REMARK  7 active torsions:
REMARK  status: ('A' for Active; 'I' for Inactive)
REMARK    1  A    between atoms: C_2  and  N_3 
REMARK    2  A    between atoms: C_2  and  C_12 
REMARK       I    between atoms: N_3  and  C_4 
REMARK    3  A    between atoms: C_4  and  C_5 
REMARK    4  A    between atoms: N_17  and  C_19 
REMARK    5  A    between atoms: C_19  and  C_20 
REMARK    6  A    between atoms: C_22  and  C_23 
REMARK    7  A    between atoms: C_23  and  N_24 
ROOT
HETATM    1  C   UNL     1       6.915  25.780  56.321  1.00  0.00     0.152 A 
HETATM    2  N   UNL     1       7.112  27.145  56.356  1.00  0.00    -0.317 N 
HETATM    3  C   UNL     1       5.862  27.701  56.462  1.00  0.00     0.131 A 
HETATM    4  C   UNL     1       5.553  29.134  56.699  1.00  0.00     0.108 C 
HETATM    5  C   UNL     1       6.377  29.672  57.862  1.00  0.00     0.243 C 
HETATM    6  N   UNL     1       7.801  30.063  57.462  1.00  0.00    -0.065 N 
HETATM    7  H   UNL     1       7.732  31.044  57.157  1.00  0.00     0.280 HD
HETATM    8  C   UNL     1       8.388  29.333  56.255  1.00  0.00     0.255 C 
HETATM    9  C   UNL     1       8.396  27.807  56.372  1.00  0.00     0.159 C 
HETATM   10  N   UNL     1       4.966  26.743  56.423  1.00  0.00    -0.135 NA
HETATM   11  N   UNL     1       5.619  25.548  56.331  1.00  0.00    -0.133 NA
ENDROOT
BRANCH   6  12
HETATM   12  C   UNL     1       8.756  30.088  58.650  1.00  0.00     0.280 C 
BRANCH  12  13
HETATM   13  C   UNL     1       8.336  31.009  59.763  1.00  0.00     0.009 A 
HETATM   14  S   UNL     1       8.845  30.703  61.375  1.00  0.00    -0.096 SA
HETATM   15  C   UNL     1       8.035  32.085  61.986  1.00  0.00     0.009 A 
HETATM   16  C   UNL     1       7.396  32.773  60.973  1.00  0.00     0.017 A 
HETATM   17  C   UNL     1       7.579  32.163  59.693  1.00  0.00     0.017 A 
BRANCH  15  18
HETATM   18  C   UNL     1       8.065  32.400  63.456  1.00  0.00     0.280 C 
BRANCH  18  19
HETATM   19  N   UNL     1       6.883  33.222  63.930  1.00  0.00    -0.067 N 
HETATM   20  H   UNL     1       6.897  34.093  63.385  1.00  0.00     0.280 HD
HETATM   21  C   UNL     1       5.556  32.542  63.676  1.00  0.00     0.235 C 
HETATM   22  C   UNL     1       4.418  33.469  64.083  1.00  0.00     0.028 C 
HETATM   23  C   UNL     1       4.543  33.913  65.535  1.00  0.00     0.003 C 
HETATM   24  C   UNL     1       5.907  34.538  65.799  1.00  0.00     0.028 C 
HETATM   25  C   UNL     1       7.041  33.609  65.388  1.00  0.00     0.235 C 
ENDBRANCH  18  19
ENDBRANCH  15  18
ENDBRANCH  12  13
ENDBRANCH   6  12
BRANCH   1  26
HETATM   26  C   UNL     1       7.996  24.745  56.332  1.00  0.00     0.152 C 
HETATM   27  C   UNL     1       8.650  24.665  57.710  1.00  0.00     0.040 C 
BRANCH  26  28
HETATM   28  N   UNL     1       7.413  23.475  55.957  1.00  0.00    -0.349 N 
HETATM   29  C   UNL     1       7.708  22.904  54.739  1.00  0.00     0.222 C 
HETATM   30  O   UNL     1       8.318  23.524  53.873  1.00  0.00    -0.273 OA
HETATM   31  H   UNL     1       7.050  22.891  56.706  1.00  0.00     0.163 HD
BRANCH  29  32
HETATM   32  C   UNL     1       7.221  21.465  54.578  1.00  0.00     0.082 C 
HETATM   33  C   UNL     1       7.704  20.850  53.261  1.00  0.00     0.040 C 
HETATM   34  C   UNL     1       9.178  20.470  53.336  1.00  0.00     0.168 C 
HETATM   35  O   UNL     1       9.410  19.591  54.431  1.00  0.00    -0.391 OA
HETATM   36  C   UNL     1       9.114  20.197  55.689  1.00  0.00     0.168 C 
HETATM   37  C   UNL     1       7.644  20.591  55.765  1.00  0.00     0.040 C 
ENDBRANCH  29  32
ENDBRANCH  26  28
ENDBRANCH   1  26
TORSDOF 7
ENDMDL
MODEL 4
REMARK VINA RESULT:      -9.0      1.503      2.082
REMARK  7 active torsions:
REMARK  status: ('A' for Active; 'I' for Inactive)
REMARK    1  A    between atoms: C_2  and  N_3 
REMARK    2  A    between atoms: C_2  and  C_12 
REMARK       I    between atoms: N_3  and  C_4 
REMARK    3  A    between atoms: C_4  and  C_5 
REMARK    4  A    between atoms: N_17  and  C_19 
REMARK    5  A    between atoms: C_19  and  C_20 
REMARK    6  A    between atoms: C_22  and  C_23 
REMARK    7  A    between atoms: C_23  and  N_24 
ROOT
HETATM    1  C   UNL     1       6.665  32.466  60.465  1.00  0.00     0.152 A 
HETATM    2  N   UNL     1       6.881  31.779  59.289  1.00  0.00    -0.317 N 
HETATM    3  C   UNL     1       8.188  31.363  59.333  1.00  0.00     0.131 A 
HETATM    4  C   UNL     1       8.851  30.444  58.373  1.00  0.00     0.108 C 
HETATM    5  C   UNL     1       7.998  29.202  58.146  1.00  0.00     0.243 C 
HETATM    6  N   UNL     1       6.874  29.420  57.133  1.00  0.00    -0.065 N 
HETATM    7  H   UNL     1       7.293  29.205  56.218  1.00  0.00     0.280 HD
HETATM    8  C   UNL     1       6.364  30.854  56.986  1.00  0.00     0.255 C 
HETATM    9  C   UNL     1       5.878  31.496  58.287  1.00  0.00     0.159 C 
HETATM   10  N   UNL     1       8.745  31.826  60.426  1.00  0.00    -0.135 NA
HETATM   11  N   UNL     1       7.801  32.517  61.130  1.00  0.00    -0.133 NA
ENDROOT
BRANCH   6  12
HETATM   12  C   UNL     1       5.740  28.412  57.291  1.00  0.00     0.280 C 
BRANCH  12  13
HETATM   13  C   UNL     1       5.993  27.087  56.626  1.00  0.00     0.009 A 
HETATM   14  S   UNL     1       7.193  26.951  55.404  1.00  0.00    -0.096 SA
HETATM   15  C   UNL     1       6.901  25.276  55.181  1.00  0.00     0.009 A 
HETATM   16  C   UNL     1       5.911  24.828  56.033  1.00  0.00     0.017 A 
HETATM   17  C   UNL     1       5.398  25.865  56.873  1.00  0.00     0.017 A 
BRANCH  15  18
HETATM   18  C   UNL     1       7.669  24.498  54.147  1.00  0.00     0.280 C 
BRANCH  18  19
HETATM   19  N   UNL     1       7.618  22.997  54.350  1.00  0.00    -0.067 N 
HETATM   20  H   UNL     1       6.662  22.777  54.659  1.00  0.00     0.280 HD
HETATM   21  C   UNL     1       7.879  22.223  53.077  1.00  0.00     0.235 C 
HETATM   22  C   UNL     1       7.710  20.733  53.338  1.00  0.00     0.028 C 
HETATM   23  C   UNL     1       8.609  20.253  54.471  1.00  0.00     0.003 C 
HETATM   24  C   UNL     1       8.386  21.079  55.731  1.00  0.00     0.028 C 
HETATM   25  C   UNL     1       8.553  22.569  55.464  1.00  0.00     0.235 C 
ENDBRANCH  18  19
ENDBRANCH  15  18
ENDBRANCH  12  13
ENDBRANCH   6  12
BRANCH   1  26
HETATM   26  C   UNL     1       5.349  33.007  60.929  1.00  0.00     0.152 C 
HETATM   27  C   UNL     1       4.351  31.873  61.154  1.00  0.00     0.040 C 
BRANCH  26  28
HETATM   28  N   UNL     1       5.569  33.758  62.146  1.00  0.00    -0.349 N 
HETATM   29  C   UNL     1       5.133  35.061  62.250  1.00  0.00     0.222 C 
HETATM   30  O   UNL     1       4.715  35.676  61.275  1.00  0.00    -0.273 OA
HETATM   31  H   UNL     1       5.759  33.227  62.991  1.00  0.00     0.163 HD
BRANCH  29  32
HETATM   32  C   UNL     1       5.215  35.645  63.660  1.00  0.00     0.082 C 
HETATM   33  C   UNL     1       3.824  35.833  64.273  1.00  0.00     0.040 C 
HETATM   34  C   UNL     1       3.234  34.504  64.728  1.00  0.00     0.168 C 
HETATM   35  O   UNL     1       4.115  33.855  65.638  1.00  0.00    -0.391 OA
HETATM   36  C   UNL     1       5.369  33.526  65.044  1.00  0.00     0.168 C 
HETATM   37  C   UNL     1       6.091  34.785  64.577  1.00  0.00     0.040 C 
ENDBRANCH  29  32
ENDBRANCH  26  28
ENDBRANCH   1  26
TORSDOF 7
ENDMDL
MODEL 5
REMARK VINA RESULT:      -8.8      1.553      2.127
REMARK  7 active torsions:
REMARK  status: ('A' for Active; 'I' for Inactive)
REMARK    1  A    between atoms: C_2  and  N_3 
REMARK    2  A    between atoms: C_2  and  C_12 
REMARK       I    between atoms: N_3  and  C_4 
REMARK    3  A    between atoms: C_4  and  C_5 
REMARK    4  A    between atoms: N_17  and  C_19 
REMARK    5  A    between atoms: C_19  and  C_20 
REMARK    6  A    between atoms: C_22  and  C_23 
REMARK    7  A    between atoms: C_23  and  N_24 
ROOT
HETATM    1  C   UNL     1       8.233  32.136  61.578  1.00  0.00     0.152 A 
HETATM    2  N   UNL     1       8.027  31.882  60.239  1.00  0.00    -0.317 N 
HETATM    3  C   UNL     1       9.272  31.876  59.662  1.00  0.00     0.131 A 
HETATM    4  C   UNL     1       9.595  31.486  58.267  1.00  0.00     0.108 C 
HETATM    5  C   UNL     1       8.942  30.153  57.921  1.00  0.00     0.243 C 
HETATM    6  N   UNL     1       7.471  30.287  57.525  1.00  0.00    -0.065 N 
HETATM    7  H   UNL     1       7.482  30.457  56.509  1.00  0.00     0.280 HD
HETATM    8  C   UNL     1       6.723  31.490  58.100  1.00  0.00     0.255 C 
HETATM    9  C   UNL     1       6.751  31.590  59.627  1.00  0.00     0.159 C 
HETATM   10  N   UNL     1      10.164  32.177  60.576  1.00  0.00    -0.135 NA
HETATM   11  N   UNL     1       9.520  32.343  61.768  1.00  0.00    -0.133 NA
ENDROOT
BRANCH   6  12
HETATM   12  C   UNL     1       6.698  28.984  57.696  1.00  0.00     0.280 C 
BRANCH  12  13
HETATM   13  C   UNL     1       6.689  28.105  56.475  1.00  0.00     0.009 A 
HETATM   14  S   UNL     1       5.519  26.857  56.319  1.00  0.00    -0.096 SA
HETATM   15  C   UNL     1       6.116  26.367  54.788  1.00  0.00     0.009 A 
HETATM   16  C   UNL     1       7.184  27.153  54.399  1.00  0.00     0.017 A 
HETATM   17  C   UNL     1       7.505  28.160  55.362  1.00  0.00     0.017 A 
BRANCH  15  18
HETATM   18  C   UNL     1       5.494  25.207  54.061  1.00  0.00     0.280 C 
BRANCH  18  19
HETATM   19  N   UNL     1       6.335  23.946  54.090  1.00  0.00    -0.067 N 
HETATM   20  H   UNL     1       5.683  23.160  53.981  1.00  0.00     0.280 HD
HETATM   21  C   UNL     1       7.331  23.879  52.953  1.00  0.00     0.235 C 
HETATM   22  C   UNL     1       8.062  22.544  52.990  1.00  0.00     0.028 C 
HETATM   23  C   UNL     1       8.740  22.309  54.334  1.00  0.00     0.003 C 
HETATM   24  C   UNL     1       7.744  22.443  55.479  1.00  0.00     0.028 C 
HETATM   25  C   UNL     1       7.013  23.778  55.435  1.00  0.00     0.235 C 
ENDBRANCH  18  19
ENDBRANCH  15  18
ENDBRANCH  12  13
ENDBRANCH   6  12
BRANCH   1  26
HETATM   26  C   UNL     1       7.178  32.118  62.640  1.00  0.00     0.152 C 
HETATM   27  C   UNL     1       7.743  32.620  63.968  1.00  0.00     0.040 C 
BRANCH  26  28
HETATM   28  N   UNL     1       6.073  32.941  62.199  1.00  0.00    -0.349 N 
HETATM   29  C   UNL     1       4.884  32.943  62.892  1.00  0.00     0.222 C 
HETATM   30  O   UNL     1       4.661  32.129  63.784  1.00  0.00    -0.273 OA
HETATM   31  H   UNL     1       6.291  33.718  61.580  1.00  0.00     0.163 HD
BRANCH  29  32
HETATM   32  C   UNL     1       3.900  34.029  62.460  1.00  0.00     0.082 C 
HETATM   33  C   UNL     1       2.949  34.413  63.598  1.00  0.00     0.040 C 
HETATM   34  C   UNL     1       3.647  35.289  64.631  1.00  0.00     0.168 C 
HETATM   35  O   UNL     1       4.203  36.443  64.011  1.00  0.00    -0.391 OA
HETATM   36  C   UNL     1       5.208  36.118  63.053  1.00  0.00     0.168 C 
HETATM   37  C   UNL     1       4.627  35.269  61.928  1.00  0.00     0.040 C 
ENDBRANCH  29  32
ENDBRANCH  26  28
ENDBRANCH   1  26
TORSDOF 7
ENDMDL
MODEL 6
REMARK VINA RESULT:      -8.6      4.758     11.558
REMARK  7 active torsions:
REMARK  status: ('A' for Active; 'I' for Inactive)
REMARK    1  A    between atoms: C_2  and  N_3 
REMARK    2  A    between atoms: C_2  and  C_12 
REMARK       I    between atoms: N_3  and  C_4 
REMARK    3  A    between atoms: C_4  and  C_5 
REMARK    4  A    between atoms: N_17  and  C_19 
REMARK    5  A    between atoms: C_19  and  C_20 
REMARK    6  A    between atoms: C_22  and  C_23 
REMARK    7  A    between atoms: C_23  and  N_24 
ROOT
HETATM    1  C   UNL     1       6.218  25.669  53.607  1.00  0.00     0.152 A 
HETATM    2  N   UNL     1       5.538  26.525  54.448  1.00  0.00    -0.317 N 
HETATM    3  C   UNL     1       5.438  25.869  55.649  1.00  0.00     0.131 A 
HETATM    4  C   UNL     1       4.935  26.439  56.924  1.00  0.00     0.108 C 
HETATM    5  C   UNL     1       5.597  27.781  57.207  1.00  0.00     0.243 C 
HETATM    6  N   UNL     1       4.950  28.944  56.453  1.00  0.00    -0.065 N 
HETATM    7  H   UNL     1       4.194  29.274  57.069  1.00  0.00     0.280 HD
HETATM    8  C   UNL     1       4.243  28.590  55.145  1.00  0.00     0.255 C 
HETATM    9  C   UNL     1       5.120  27.868  54.119  1.00  0.00     0.159 C 
HETATM   10  N   UNL     1       5.959  24.671  55.524  1.00  0.00    -0.135 NA
HETATM   11  N   UNL     1       6.440  24.543  54.253  1.00  0.00    -0.133 NA
ENDROOT
BRANCH   6  12
HETATM   12  C   UNL     1       5.886  30.139  56.305  1.00  0.00     0.280 C 
BRANCH  12  13
HETATM   13  C   UNL     1       6.171  30.864  57.592  1.00  0.00     0.009 A 
HETATM   14  S   UNL     1       4.963  31.852  58.310  1.00  0.00    -0.096 SA
HETATM   15  C   UNL     1       5.970  32.276  59.632  1.00  0.00     0.009 A 
HETATM   16  C   UNL     1       7.204  31.663  59.529  1.00  0.00     0.017 A 
HETATM   17  C   UNL     1       7.316  30.841  58.365  1.00  0.00     0.017 A 
BRANCH  15  18
HETATM   18  C   UNL     1       5.479  33.217  60.697  1.00  0.00     0.280 C 
BRANCH  18  19
HETATM   19  N   UNL     1       5.976  32.879  62.088  1.00  0.00    -0.067 N 
HETATM   20  H   UNL     1       5.843  31.867  62.206  1.00  0.00     0.280 HD
HETATM   21  C   UNL     1       7.447  33.175  62.273  1.00  0.00     0.235 C 
HETATM   22  C   UNL     1       7.893  32.715  63.655  1.00  0.00     0.028 C 
HETATM   23  C   UNL     1       7.057  33.352  64.758  1.00  0.00     0.003 C 
HETATM   24  C   UNL     1       5.571  33.105  64.529  1.00  0.00     0.028 C 
HETATM   25  C   UNL     1       5.132  33.563  63.146  1.00  0.00     0.235 C 
ENDBRANCH  18  19
ENDBRANCH  15  18
ENDBRANCH  12  13
ENDBRANCH   6  12
BRANCH   1  26
HETATM   26  C   UNL     1       6.675  25.993  52.219  1.00  0.00     0.152 C 
HETATM   27  C   UNL     1       7.743  25.002  51.759  1.00  0.00     0.040 C 
BRANCH  26  28
HETATM   28  N   UNL     1       5.525  25.965  51.343  1.00  0.00    -0.349 N 
HETATM   29  C   UNL     1       5.193  27.071  50.592  1.00  0.00     0.222 C 
HETATM   30  O   UNL     1       5.740  28.154  50.770  1.00  0.00    -0.273 OA
HETATM   31  H   UNL     1       5.172  25.053  51.069  1.00  0.00     0.163 HD
BRANCH  29  32
HETATM   32  C   UNL     1       4.112  26.822  49.541  1.00  0.00     0.082 C 
HETATM   33  C   UNL     1       3.175  28.025  49.399  1.00  0.00     0.040 C 
HETATM   34  C   UNL     1       3.839  29.155  48.622  1.00  0.00     0.168 C 
HETATM   35  O   UNL     1       4.279  28.692  47.350  1.00  0.00    -0.391 OA
HETATM   36  C   UNL     1       5.272  27.674  47.454  1.00  0.00     0.168 C 
HETATM   37  C   UNL     1       4.720  26.454  48.182  1.00  0.00     0.040 C 
ENDBRANCH  29  32
ENDBRANCH  26  28
ENDBRANCH   1  26
TORSDOF 7
ENDMDL
MODEL 7
REMARK VINA RESULT:      -8.6      2.007      2.778
REMARK  7 active torsions:
REMARK  status: ('A' for Active; 'I' for Inactive)
REMARK    1  A    between atoms: C_2  and  N_3 
REMARK    2  A    between atoms: C_2  and  C_12 
REMARK       I    between atoms: N_3  and  C_4 
REMARK    3  A    between atoms: C_4  and  C_5 
REMARK    4  A    between atoms: N_17  and  C_19 
REMARK    5  A    between atoms: C_19  and  C_20 
REMARK    6  A    between atoms: C_22  and  C_23 
REMARK    7  A    between atoms: C_23  and  N_24 
ROOT
HETATM    1  C   UNL     1       6.397  32.392  60.788  1.00  0.00     0.152 A 
HETATM    2  N   UNL     1       6.780  31.859  59.575  1.00  0.00    -0.317 N 
HETATM    3  C   UNL     1       8.152  31.858  59.583  1.00  0.00     0.131 A 
HETATM    4  C   UNL     1       9.037  31.230  58.570  1.00  0.00     0.108 C 
HETATM    5  C   UNL     1       8.595  29.800  58.286  1.00  0.00     0.243 C 
HETATM    6  N   UNL     1       7.432  29.714  57.297  1.00  0.00    -0.065 N 
HETATM    7  H   UNL     1       7.873  29.679  56.368  1.00  0.00     0.280 HD
HETATM    8  C   UNL     1       6.509  30.930  57.232  1.00  0.00     0.255 C 
HETATM    9  C   UNL     1       5.885  31.333  58.570  1.00  0.00     0.159 C 
HETATM   10  N   UNL     1       8.571  32.417  60.694  1.00  0.00    -0.135 NA
HETATM   11  N   UNL     1       7.481  32.754  61.443  1.00  0.00    -0.133 NA
ENDROOT
BRANCH   6  12
HETATM   12  C   UNL     1       6.661  28.403  57.414  1.00  0.00     0.280 C 
BRANCH  12  13
HETATM   13  C   UNL     1       6.843  27.472  56.247  1.00  0.00     0.009 A 
HETATM   14  S   UNL     1       6.116  25.916  56.263  1.00  0.00    -0.096 SA
HETATM   15  C   UNL     1       6.728  25.516  54.712  1.00  0.00     0.009 A 
HETATM   16  C   UNL     1       7.467  26.560  54.188  1.00  0.00     0.017 A 
HETATM   17  C   UNL     1       7.523  27.688  55.064  1.00  0.00     0.017 A 
BRANCH  15  18
HETATM   18  C   UNL     1       6.453  24.168  54.106  1.00  0.00     0.280 C 
BRANCH  18  19
HETATM   19  N   UNL     1       7.564  23.160  54.324  1.00  0.00    -0.067 N 
HETATM   20  H   UNL     1       8.443  23.692  54.324  1.00  0.00     0.280 HD
HETATM   21  C   UNL     1       7.456  22.449  55.655  1.00  0.00     0.235 C 
HETATM   22  C   UNL     1       8.658  21.533  55.845  1.00  0.00     0.028 C 
HETATM   23  C   UNL     1       8.798  20.541  54.698  1.00  0.00     0.003 C 
HETATM   24  C   UNL     1       8.839  21.261  53.356  1.00  0.00     0.028 C 
HETATM   25  C   UNL     1       7.638  22.178  53.172  1.00  0.00     0.235 C 
ENDBRANCH  18  19
ENDBRANCH  15  18
ENDBRANCH  12  13
ENDBRANCH   6  12
BRANCH   1  26
HETATM   26  C   UNL     1       4.991  32.486  61.293  1.00  0.00     0.152 C 
HETATM   27  C   UNL     1       4.938  32.200  62.792  1.00  0.00     0.040 C 
BRANCH  26  28
HETATM   28  N   UNL     1       4.487  33.809  60.996  1.00  0.00    -0.349 N 
HETATM   29  C   UNL     1       3.253  33.970  60.407  1.00  0.00     0.222 C 
HETATM   30  O   UNL     1       2.628  33.014  59.958  1.00  0.00    -0.273 OA
HETATM   31  H   UNL     1       4.906  34.588  61.496  1.00  0.00     0.163 HD
BRANCH  29  32
HETATM   32  C   UNL     1       2.750  35.412  60.375  1.00  0.00     0.082 C 
HETATM   33  C   UNL     1       3.821  36.372  59.849  1.00  0.00     0.040 C 
HETATM   34  C   UNL     1       3.968  36.262  58.337  1.00  0.00     0.168 C 
HETATM   35  O   UNL     1       2.717  36.487  57.697  1.00  0.00    -0.391 OA
HETATM   36  C   UNL     1       1.739  35.511  58.052  1.00  0.00     0.168 C 
HETATM   37  C   UNL     1       1.464  35.543  59.550  1.00  0.00     0.040 C 
ENDBRANCH  29  32
ENDBRANCH  26  28
ENDBRANCH   1  26
TORSDOF 7
ENDMDL
MODEL 8
REMARK VINA RESULT:      -8.6      5.038      6.981
REMARK  7 active torsions:
REMARK  status: ('A' for Active; 'I' for Inactive)
REMARK    1  A    between atoms: C_2  and  N_3 
REMARK    2  A    between atoms: C_2  and  C_12 
REMARK       I    between atoms: N_3  and  C_4 
REMARK    3  A    between atoms: C_4  and  C_5 
REMARK    4  A    between atoms: N_17  and  C_19 
REMARK    5  A    between atoms: C_19  and  C_20 
REMARK    6  A    between atoms: C_22  and  C_23 
REMARK    7  A    between atoms: C_23  and  N_24 
ROOT
HETATM    1  C   UNL     1       7.540  29.123  57.469  1.00  0.00     0.152 A 
HETATM    2  N   UNL     1       7.512  28.289  56.371  1.00  0.00    -0.317 N 
HETATM    3  C   UNL     1       7.710  27.021  56.858  1.00  0.00     0.131 A 
HETATM    4  C   UNL     1       7.601  25.756  56.089  1.00  0.00     0.108 C 
HETATM    5  C   UNL     1       6.303  25.726  55.291  1.00  0.00     0.243 C 
HETATM    6  N   UNL     1       6.387  26.499  53.974  1.00  0.00    -0.065 N 
HETATM    7  H   UNL     1       6.735  25.817  53.286  1.00  0.00     0.280 HD
HETATM    8  C   UNL     1       7.404  27.639  53.923  1.00  0.00     0.255 C 
HETATM    9  C   UNL     1       7.232  28.698  55.013  1.00  0.00     0.159 C 
HETATM   10  N   UNL     1       7.914  27.091  58.152  1.00  0.00    -0.135 NA
HETATM   11  N   UNL     1       7.813  28.397  58.534  1.00  0.00    -0.133 NA
ENDROOT
BRANCH   6  12
HETATM   12  C   UNL     1       5.016  26.917  53.453  1.00  0.00     0.280 C 
BRANCH  12  13
HETATM   13  C   UNL     1       4.897  26.916  51.953  1.00  0.00     0.009 A 
HETATM   14  S   UNL     1       4.503  28.364  51.118  1.00  0.00    -0.096 SA
HETATM   15  C   UNL     1       4.568  27.601  49.584  1.00  0.00     0.009 A 
HETATM   16  C   UNL     1       4.895  26.265  49.709  1.00  0.00     0.017 A 
HETATM   17  C   UNL     1       5.097  25.874  51.069  1.00  0.00     0.017 A 
BRANCH  15  18
HETATM   18  C   UNL     1       4.268  28.378  48.331  1.00  0.00     0.280 C 
BRANCH  18  19
HETATM   19  N   UNL     1       2.791  28.459  48.001  1.00  0.00    -0.067 N 
HETATM   20  H   UNL     1       2.306  28.659  48.884  1.00  0.00     0.280 HD
HETATM   21  C   UNL     1       2.467  29.577  47.035  1.00  0.00     0.235 C 
HETATM   22  C   UNL     1       0.960  29.660  46.833  1.00  0.00     0.028 C 
HETATM   23  C   UNL     1       0.381  28.334  46.358  1.00  0.00     0.003 C 
HETATM   24  C   UNL     1       0.766  27.201  47.301  1.00  0.00     0.028 C 
HETATM   25  C   UNL     1       2.273  27.124  47.502  1.00  0.00     0.235 C 
ENDBRANCH  18  19
ENDBRANCH  15  18
ENDBRANCH  12  13
ENDBRANCH   6  12
BRANCH   1  26
HETATM   26  C   UNL     1       7.248  30.591  57.455  1.00  0.00     0.152 C 
HETATM   27  C   UNL     1       5.780  30.845  57.118  1.00  0.00     0.040 C 
BRANCH  26  28
HETATM   28  N   UNL     1       7.588  31.135  58.751  1.00  0.00    -0.349 N 
HETATM   29  C   UNL     1       8.854  31.618  58.996  1.00  0.00     0.222 C 
HETATM   30  O   UNL     1       9.771  31.443  58.200  1.00  0.00    -0.273 OA
HETATM   31  H   UNL     1       6.819  31.428  59.348  1.00  0.00     0.163 HD
BRANCH  29  32
HETATM   32  C   UNL     1       8.999  32.376  60.315  1.00  0.00     0.082 C 
HETATM   33  C   UNL     1       7.638  32.637  60.968  1.00  0.00     0.040 C 
HETATM   34  C   UNL     1       7.084  31.375  61.616  1.00  0.00     0.168 C 
HETATM   35  O   UNL     1       8.014  30.849  62.556  1.00  0.00    -0.391 OA
HETATM   36  C   UNL     1       9.241  30.451  61.946  1.00  0.00     0.168 C 
HETATM   37  C   UNL     1       9.928  31.642  61.289  1.00  0.00     0.040 C 
ENDBRANCH  29  32
ENDBRANCH  26  28
ENDBRANCH   1  26
TORSDOF 7
ENDMDL
MODEL 9
REMARK VINA RESULT:      -8.5      6.667     11.041
REMARK  7 active torsions:
REMARK  status: ('A' for Active; 'I' for Inactive)
REMARK    1  A    between atoms: C_2  and  N_3 
REMARK    2  A    between atoms: C_2  and  C_12 
REMARK       I    between atoms: N_3  and  C_4 
REMARK    3  A    between atoms: C_4  and  C_5 
REMARK    4  A    between atoms: N_17  and  C_19 
REMARK    5  A    between atoms: C_19  and  C_20 
REMARK    6  A    between atoms: C_22  and  C_23 
REMARK    7  A    between atoms: C_23  and  N_24 
ROOT
HETATM    1  C   UNL     1       6.743  25.921  56.202  1.00  0.00     0.152 A 
HETATM    2  N   UNL     1       5.912  26.460  55.242  1.00  0.00    -0.317 N 
HETATM    3  C   UNL     1       5.136  27.384  55.896  1.00  0.00     0.131 A 
HETATM    4  C   UNL     1       4.199  28.348  55.266  1.00  0.00     0.108 C 
HETATM    5  C   UNL     1       4.876  29.077  54.112  1.00  0.00     0.243 C 
HETATM    6  N   UNL     1       4.888  28.269  52.814  1.00  0.00    -0.065 N 
HETATM    7  H   UNL     1       4.004  28.507  52.343  1.00  0.00     0.280 HD
HETATM    8  C   UNL     1       4.839  26.749  52.964  1.00  0.00     0.255 C 
HETATM    9  C   UNL     1       5.952  26.155  53.830  1.00  0.00     0.159 C 
HETATM   10  N   UNL     1       5.427  27.356  57.175  1.00  0.00    -0.135 NA
HETATM   11  N   UNL     1       6.424  26.443  57.368  1.00  0.00    -0.133 NA
ENDROOT
BRANCH   6  12
HETATM   12  C   UNL     1       5.980  28.725  51.852  1.00  0.00     0.280 C 
BRANCH  12  13
HETATM   13  C   UNL     1       5.467  29.397  50.608  1.00  0.00     0.009 A 
HETATM   14  S   UNL     1       4.616  28.489  49.424  1.00  0.00    -0.096 SA
HETATM   15  C   UNL     1       4.379  29.856  48.417  1.00  0.00     0.009 A 
HETATM   16  C   UNL     1       4.932  30.989  48.983  1.00  0.00     0.017 A 
HETATM   17  C   UNL     1       5.546  30.728  50.247  1.00  0.00     0.017 A 
BRANCH  15  18
HETATM   18  C   UNL     1       3.665  29.720  47.101  1.00  0.00     0.280 C 
BRANCH  18  19
HETATM   19  N   UNL     1       2.248  29.197  47.224  1.00  0.00    -0.067 N 
HETATM   20  H   UNL     1       1.952  29.386  48.190  1.00  0.00     0.280 HD
HETATM   21  C   UNL     1       1.280  29.901  46.299  1.00  0.00     0.235 C 
HETATM   22  C   UNL     1      -0.133  29.394  46.553  1.00  0.00     0.028 C 
HETATM   23  C   UNL     1      -0.226  27.881  46.403  1.00  0.00     0.003 C 
HETATM   24  C   UNL     1       0.797  27.181  47.289  1.00  0.00     0.028 C 
HETATM   25  C   UNL     1       2.208  27.693  47.033  1.00  0.00     0.235 C 
ENDBRANCH  18  19
ENDBRANCH  15  18
ENDBRANCH  12  13
ENDBRANCH   6  12
BRANCH   1  26
HETATM   26  C   UNL     1       7.856  24.954  55.945  1.00  0.00     0.152 C 
HETATM   27  C   UNL     1       8.796  24.885  57.147  1.00  0.00     0.040 C 
BRANCH  26  28
HETATM   28  N   UNL     1       7.277  23.659  55.661  1.00  0.00    -0.349 N 
HETATM   29  C   UNL     1       7.698  22.930  54.570  1.00  0.00     0.222 C 
HETATM   30  O   UNL     1       8.433  23.420  53.718  1.00  0.00    -0.273 OA
HETATM   31  H   UNL     1       6.803  23.184  56.424  1.00  0.00     0.163 HD
BRANCH  29  32
HETATM   32  C   UNL     1       7.181  21.493  54.531  1.00  0.00     0.082 C 
HETATM   33  C   UNL     1       7.602  20.778  53.243  1.00  0.00     0.040 C 
HETATM   34  C   UNL     1       9.070  20.376  53.287  1.00  0.00     0.168 C 
HETATM   35  O   UNL     1       9.332  19.572  54.431  1.00  0.00    -0.391 OA
HETATM   36  C   UNL     1       9.096  20.269  55.653  1.00  0.00     0.168 C 
HETATM   37  C   UNL     1       7.637  20.696  55.758  1.00  0.00     0.040 C 
ENDBRANCH  29  32
ENDBRANCH  26  28
ENDBRANCH   1  26
TORSDOF 7
ENDMDL
MODEL 10
REMARK VINA RESULT:      -8.4      1.771      2.532
REMARK  7 active torsions:
REMARK  status: ('A' for Active; 'I' for Inactive)
REMARK    1  A    between atoms: C_2  and  N_3 
REMARK    2  A    between atoms: C_2  and  C_12 
REMARK       I    between atoms: N_3  and  C_4 
REMARK    3  A    between atoms: C_4  and  C_5 
REMARK    4  A    between atoms: N_17  and  C_19 
REMARK    5  A    between atoms: C_19  and  C_20 
REMARK    6  A    between atoms: C_22  and  C_23 
REMARK    7  A    between atoms: C_23  and  N_24 
ROOT
HETATM    1  C   UNL     1       5.661  32.671  60.376  1.00  0.00     0.152 A 
HETATM    2  N   UNL     1       6.207  31.988  59.311  1.00  0.00    -0.317 N 
HETATM    3  C   UNL     1       7.539  31.835  59.607  1.00  0.00     0.131 A 
HETATM    4  C   UNL     1       8.521  31.021  58.848  1.00  0.00     0.108 C 
HETATM    5  C   UNL     1       7.966  29.629  58.577  1.00  0.00     0.243 C 
HETATM    6  N   UNL     1       7.023  29.579  57.374  1.00  0.00    -0.065 N 
HETATM    7  H   UNL     1       7.634  29.409  56.563  1.00  0.00     0.280 HD
HETATM    8  C   UNL     1       6.295  30.879  57.032  1.00  0.00     0.255 C 
HETATM    9  C   UNL     1       5.472  31.471  58.179  1.00  0.00     0.159 C 
HETATM   10  N   UNL     1       7.794  32.445  60.740  1.00  0.00    -0.135 NA
HETATM   11  N   UNL     1       6.628  32.970  61.218  1.00  0.00    -0.133 NA
ENDROOT
BRANCH   6  12
HETATM   12  C   UNL     1       6.084  28.378  57.417  1.00  0.00     0.280 C 
BRANCH  12  13
HETATM   13  C   UNL     1       6.637  27.138  56.771  1.00  0.00     0.009 A 
HETATM   14  S   UNL     1       5.837  26.438  55.421  1.00  0.00    -0.096 SA
HETATM   15  C   UNL     1       6.993  25.181  55.275  1.00  0.00     0.009 A 
HETATM   16  C   UNL     1       7.979  25.301  56.235  1.00  0.00     0.017 A 
HETATM   17  C   UNL     1       7.782  26.433  57.087  1.00  0.00     0.017 A 
BRANCH  15  18
HETATM   18  C   UNL     1       6.845  24.124  54.215  1.00  0.00     0.280 C 
BRANCH  18  19
HETATM   19  N   UNL     1       7.763  22.934  54.405  1.00  0.00    -0.067 N 
HETATM   20  H   UNL     1       8.711  23.314  54.519  1.00  0.00     0.280 HD
HETATM   21  C   UNL     1       7.436  22.132  55.645  1.00  0.00     0.235 C 
HETATM   22  C   UNL     1       8.460  21.020  55.822  1.00  0.00     0.028 C 
HETATM   23  C   UNL     1       8.541  20.126  54.591  1.00  0.00     0.003 C 
HETATM   24  C   UNL     1       8.806  20.948  53.336  1.00  0.00     0.028 C 
HETATM   25  C   UNL     1       7.781  22.061  53.166  1.00  0.00     0.235 C 
ENDBRANCH  18  19
ENDBRANCH  15  18
ENDBRANCH  12  13
ENDBRANCH   6  12
BRANCH   1  26
HETATM   26  C   UNL     1       4.206  32.966  60.567  1.00  0.00     0.152 C 
HETATM   27  C   UNL     1       3.448  31.701  60.965  1.00  0.00     0.040 C 
BRANCH  26  28
HETATM   28  N   UNL     1       4.078  33.991  61.579  1.00  0.00    -0.349 N 
HETATM   29  C   UNL     1       3.798  35.292  61.224  1.00  0.00     0.222 C 
HETATM   30  O   UNL     1       3.826  35.656  60.053  1.00  0.00    -0.273 OA
HETATM   31  H   UNL     1       3.894  33.684  62.531  1.00  0.00     0.163 HD
BRANCH  29  32
HETATM   32  C   UNL     1       3.454  36.209  62.397  1.00  0.00     0.082 C 
HETATM   33  C   UNL     1       4.205  35.804  63.669  1.00  0.00     0.040 C 
HETATM   34  C   UNL     1       5.666  36.230  63.609  1.00  0.00     0.168 C 
HETATM   35  O   UNL     1       5.767  37.630  63.375  1.00  0.00    -0.391 OA
HETATM   36  C   UNL     1       5.211  38.016  62.119  1.00  0.00     0.168 C 
HETATM   37  C   UNL     1       3.725  37.680  62.062  1.00  0.00     0.040 C 
ENDBRANCH  29  32
ENDBRANCH  26  28
ENDBRANCH   1  26
TORSDOF 7
ENDMDL
