MODEL 1
REMARK VINA RESULT:      -9.0      0.000      0.000
REMARK  9 active torsions:
REMARK  status: ('A' for Active; 'I' for Inactive)
REMARK    1  A    between atoms: C_6  and  C_7 
REMARK    2  A    between atoms: C_7  and  C_8 
REMARK    3  A    between atoms: C_11  and  N_12 
REMARK       I    between atoms: N_12  and  C_13 
REMARK       I    between atoms: C_13  and  N_14 
REMARK    4  A    between atoms: N_14  and  C_15 
REMARK    5  A    between atoms: C_15  and  C_16 
REMARK    6  A    between atoms: C_16  and  C_17 
REMARK    7  A    between atoms: C_16  and  C_19 
REMARK    8  A    between atoms: C_17  and  O_18 
REMARK    9  A    between atoms: C_19  and  C_20 
ROOT
HETATM    1  N   UNL     1       9.209  30.456  57.643  1.00  0.00    -0.309 N 
HETATM    2  C   UNL     1       9.552  31.308  58.641  1.00  0.00     0.320 C 
HETATM    3  N   UNL     1       9.119  31.051  59.904  1.00  0.00    -0.342 N 
HETATM    4  O   UNL     1      10.272  32.268  58.369  1.00  0.00    -0.247 OA
HETATM    5  H   UNL     1       9.724  30.695  56.805  1.00  0.00     0.170 HD
HETATM    6  H   UNL     1       9.046  30.063  60.127  1.00  0.00     0.164 HD
ENDROOT
BRANCH   1   7
HETATM    7  C   UNL     1       8.287  29.403  57.519  1.00  0.00     0.036 A 
HETATM    8  C   UNL     1       6.900  29.539  57.548  1.00  0.00     0.030 A 
HETATM    9  C   UNL     1       6.072  28.420  57.389  1.00  0.00     0.010 A 
HETATM   10  C   UNL     1       6.619  27.146  57.178  1.00  0.00    -0.051 A 
HETATM   11  C   UNL     1       8.010  27.012  57.127  1.00  0.00     0.010 A 
HETATM   12  C   UNL     1       8.831  28.130  57.295  1.00  0.00     0.030 A 
BRANCH  10  13
HETATM   13  C   UNL     1       5.724  25.952  56.934  1.00  0.00     0.118 C 
BRANCH  13  14
HETATM   14  C   UNL     1       5.897  25.314  55.596  1.00  0.00     0.126 A 
HETATM   15  N   UNL     1       5.091  25.552  54.517  1.00  0.00    -0.263 N 
HETATM   16  N   UNL     1       5.473  24.836  53.449  1.00  0.00    -0.158 NA
HETATM   17  H   UNL     1       4.289  26.170  54.444  1.00  0.00     0.190 HD
HETATM   18  C   UNL     1       6.526  24.170  53.934  1.00  0.00     0.144 A 
HETATM   19  C   UNL     1       7.318  23.228  53.121  1.00  0.00     0.095 C 
HETATM   20  N   UNL     1       6.819  24.439  55.246  1.00  0.00    -0.217 NA
ENDBRANCH  13  14
ENDBRANCH  10  13
ENDBRANCH   1   7
BRANCH   3  21
HETATM   21  C   UNL     1       9.594  31.882  60.993  1.00  0.00     0.131 C 
BRANCH  21  22
HETATM   22  C   UNL     1       8.722  31.829  62.257  1.00  0.00     0.033 C 
BRANCH  22  23
HETATM   23  C   UNL     1       8.369  30.382  62.631  1.00  0.00     0.170 C 
BRANCH  23  24
HETATM   24  O   UNL     1       9.446  29.491  62.366  1.00  0.00    -0.400 OA
HETATM   25  H   UNL     1       9.058  28.736  61.884  1.00  0.00     0.209 HD
ENDBRANCH  23  24
ENDBRANCH  22  23
BRANCH  22  26
HETATM   26  C   UNL     1       7.491  32.738  62.099  1.00  0.00     0.073 C 
BRANCH  26  27
HETATM   27  C   UNL     1       6.928  33.141  63.415  1.00  0.00     0.053 A 
HETATM   28  O   UNL     1       5.571  33.092  63.541  1.00  0.00    -0.327 OA
HETATM   29  C   UNL     1       5.281  33.482  64.810  1.00  0.00     0.142 A 
HETATM   30  C   UNL     1       6.432  33.783  65.498  1.00  0.00     0.027 A 
HETATM   31  C   UNL     1       7.499  33.565  64.596  1.00  0.00     0.034 A 
ENDBRANCH  26  27
ENDBRANCH  22  26
ENDBRANCH  21  22
ENDBRANCH   3  21
TORSDOF 9
ENDMDL
MODEL 2
REMARK VINA RESULT:      -8.5      3.542     10.121
REMARK  9 active torsions:
REMARK  status: ('A' for Active; 'I' for Inactive)
REMARK    1  A    between atoms: C_6  and  C_7 
REMARK    2  A    between atoms: C_7  and  C_8 
REMARK    3  A    between atoms: C_11  and  N_12 
REMARK       I    between atoms: N_12  and  C_13 
REMARK       I    between atoms: C_13  and  N_14 
REMARK    4  A    between atoms: N_14  and  C_15 
REMARK    5  A    between atoms: C_15  and  C_16 
REMARK    6  A    between atoms: C_16  and  C_17 
REMARK    7  A    between atoms: C_16  and  C_19 
REMARK    8  A    between atoms: C_17  and  O_18 
REMARK    9  A    between atoms: C_19  and  C_20 
ROOT
HETATM    1  N   UNL     1       6.944  28.659  55.527  1.00  0.00    -0.309 N 
HETATM    2  C   UNL     1       6.621  27.355  55.338  1.00  0.00     0.320 C 
HETATM    3  N   UNL     1       6.833  26.472  56.350  1.00  0.00    -0.342 N 
HETATM    4  O   UNL     1       6.116  27.028  54.265  1.00  0.00    -0.247 OA
HETATM    5  H   UNL     1       6.592  29.209  54.752  1.00  0.00     0.170 HD
HETATM    6  H   UNL     1       6.708  26.863  57.278  1.00  0.00     0.164 HD
ENDROOT
BRANCH   1   7
HETATM    7  C   UNL     1       7.682  29.363  56.493  1.00  0.00     0.036 A 
HETATM    8  C   UNL     1       9.073  29.403  56.572  1.00  0.00     0.030 A 
HETATM    9  C   UNL     1       9.707  30.160  57.567  1.00  0.00     0.010 A 
HETATM   10  C   UNL     1       8.959  30.907  58.487  1.00  0.00    -0.051 A 
HETATM   11  C   UNL     1       7.564  30.886  58.394  1.00  0.00     0.010 A 
HETATM   12  C   UNL     1       6.937  30.122  57.408  1.00  0.00     0.030 A 
BRANCH  10  13
HETATM   13  C   UNL     1       9.647  31.781  59.512  1.00  0.00     0.118 C 
BRANCH  13  14
HETATM   14  C   UNL     1       9.088  31.671  60.892  1.00  0.00     0.126 A 
HETATM   15  N   UNL     1       8.973  30.498  61.587  1.00  0.00    -0.263 N 
HETATM   16  N   UNL     1       8.429  30.693  62.797  1.00  0.00    -0.158 NA
HETATM   17  H   UNL     1       9.237  29.560  61.303  1.00  0.00     0.190 HD
HETATM   18  C   UNL     1       8.228  32.015  62.791  1.00  0.00     0.144 A 
HETATM   19  C   UNL     1       7.637  32.738  63.934  1.00  0.00     0.095 C 
HETATM   20  N   UNL     1       8.622  32.649  61.642  1.00  0.00    -0.217 NA
ENDBRANCH  13  14
ENDBRANCH  10  13
ENDBRANCH   1   7
BRANCH   3  21
HETATM   21  C   UNL     1       6.367  25.108  56.201  1.00  0.00     0.131 C 
BRANCH  21  22
HETATM   22  C   UNL     1       7.488  24.063  56.091  1.00  0.00     0.033 C 
BRANCH  22  23
HETATM   23  C   UNL     1       8.708  24.463  56.934  1.00  0.00     0.170 C 
BRANCH  23  24
HETATM   24  O   UNL     1       8.332  24.882  58.241  1.00  0.00    -0.400 OA
HETATM   25  H   UNL     1       7.694  25.612  58.116  1.00  0.00     0.209 HD
ENDBRANCH  23  24
ENDBRANCH  22  23
BRANCH  22  26
HETATM   26  C   UNL     1       7.827  23.792  54.615  1.00  0.00     0.073 C 
BRANCH  26  27
HETATM   27  C   UNL     1       8.031  22.343  54.352  1.00  0.00     0.053 A 
HETATM   28  O   UNL     1       7.999  21.947  53.048  1.00  0.00    -0.327 OA
HETATM   29  C   UNL     1       8.220  20.606  53.038  1.00  0.00     0.142 A 
HETATM   30  C   UNL     1       8.391  20.137  54.319  1.00  0.00     0.027 A 
HETATM   31  C   UNL     1       8.266  21.259  55.171  1.00  0.00     0.034 A 
ENDBRANCH  26  27
ENDBRANCH  22  26
ENDBRANCH  21  22
ENDBRANCH   3  21
TORSDOF 9
ENDMDL
MODEL 3
REMARK VINA RESULT:      -8.4      1.651      2.250
REMARK  9 active torsions:
REMARK  status: ('A' for Active; 'I' for Inactive)
REMARK    1  A    between atoms: C_6  and  C_7 
REMARK    2  A    between atoms: C_7  and  C_8 
REMARK    3  A    between atoms: C_11  and  N_12 
REMARK       I    between atoms: N_12  and  C_13 
REMARK       I    between atoms: C_13  and  N_14 
REMARK    4  A    between atoms: N_14  and  C_15 
REMARK    5  A    between atoms: C_15  and  C_16 
REMARK    6  A    between atoms: C_16  and  C_17 
REMARK    7  A    between atoms: C_16  and  C_19 
REMARK    8  A    between atoms: C_17  and  O_18 
REMARK    9  A    between atoms: C_19  and  C_20 
ROOT
HETATM    1  N   UNL     1       6.366  30.694  57.314  1.00  0.00    -0.309 N 
HETATM    2  C   UNL     1       6.318  31.615  58.309  1.00  0.00     0.320 C 
HETATM    3  N   UNL     1       6.723  31.256  59.556  1.00  0.00    -0.342 N 
HETATM    4  O   UNL     1       5.936  32.752  58.036  1.00  0.00    -0.247 OA
HETATM    5  H   UNL     1       6.180  31.147  56.427  1.00  0.00     0.170 HD
HETATM    6  H   UNL     1       7.481  30.581  59.571  1.00  0.00     0.164 HD
ENDROOT
BRANCH   1   7
HETATM    7  C   UNL     1       6.551  29.303  57.265  1.00  0.00     0.036 A 
HETATM    8  C   UNL     1       5.535  28.360  57.124  1.00  0.00     0.030 A 
HETATM    9  C   UNL     1       5.837  26.992  57.062  1.00  0.00     0.010 A 
HETATM   10  C   UNL     1       7.165  26.547  57.120  1.00  0.00    -0.051 A 
HETATM   11  C   UNL     1       8.187  27.493  57.238  1.00  0.00     0.010 A 
HETATM   12  C   UNL     1       7.880  28.854  57.309  1.00  0.00     0.030 A 
BRANCH  10  13
HETATM   13  C   UNL     1       7.492  25.077  56.979  1.00  0.00     0.118 C 
BRANCH  13  14
HETATM   14  C   UNL     1       7.742  24.632  55.577  1.00  0.00     0.126 A 
HETATM   15  N   UNL     1       8.346  23.451  55.238  1.00  0.00    -0.263 N 
HETATM   16  N   UNL     1       8.449  23.315  53.907  1.00  0.00    -0.158 NA
HETATM   17  H   UNL     1       8.699  22.719  55.845  1.00  0.00     0.190 HD
HETATM   18  C   UNL     1       7.889  24.450  53.477  1.00  0.00     0.144 A 
HETATM   19  C   UNL     1       7.753  24.780  52.045  1.00  0.00     0.095 C 
HETATM   20  N   UNL     1       7.441  25.281  54.471  1.00  0.00    -0.217 NA
ENDBRANCH  13  14
ENDBRANCH  10  13
ENDBRANCH   1   7
BRANCH   3  21
HETATM   21  C   UNL     1       6.799  32.271  60.589  1.00  0.00     0.131 C 
BRANCH  21  22
HETATM   22  C   UNL     1       8.164  32.359  61.291  1.00  0.00     0.033 C 
BRANCH  22  23
HETATM   23  C   UNL     1       9.278  31.758  60.421  1.00  0.00     0.170 C 
BRANCH  23  24
HETATM   24  O   UNL     1       9.518  32.539  59.256  1.00  0.00    -0.400 OA
HETATM   25  H   UNL     1      10.420  32.900  59.357  1.00  0.00     0.209 HD
ENDBRANCH  23  24
ENDBRANCH  22  23
BRANCH  22  26
HETATM   26  C   UNL     1       8.086  31.743  62.698  1.00  0.00     0.073 C 
BRANCH  26  27
HETATM   27  C   UNL     1       7.304  32.594  63.632  1.00  0.00     0.053 A 
HETATM   28  O   UNL     1       5.954  32.404  63.649  1.00  0.00    -0.327 OA
HETATM   29  C   UNL     1       5.447  33.264  64.572  1.00  0.00     0.142 A 
HETATM   30  C   UNL     1       6.454  34.005  65.144  1.00  0.00     0.027 A 
HETATM   31  C   UNL     1       7.656  33.574  64.536  1.00  0.00     0.034 A 
ENDBRANCH  26  27
ENDBRANCH  22  26
ENDBRANCH  21  22
ENDBRANCH   3  21
TORSDOF 9
ENDMDL
MODEL 4
REMARK VINA RESULT:      -8.4      4.843     11.355
REMARK  9 active torsions:
REMARK  status: ('A' for Active; 'I' for Inactive)
REMARK    1  A    between atoms: C_6  and  C_7 
REMARK    2  A    between atoms: C_7  and  C_8 
REMARK    3  A    between atoms: C_11  and  N_12 
REMARK       I    between atoms: N_12  and  C_13 
REMARK       I    between atoms: C_13  and  N_14 
REMARK    4  A    between atoms: N_14  and  C_15 
REMARK    5  A    between atoms: C_15  and  C_16 
REMARK    6  A    between atoms: C_16  and  C_17 
REMARK    7  A    between atoms: C_16  and  C_19 
REMARK    8  A    between atoms: C_17  and  O_18 
REMARK    9  A    between atoms: C_19  and  C_20 
ROOT
HETATM    1  N   UNL     1       4.660  32.892  63.383  1.00  0.00    -0.309 N 
HETATM    2  C   UNL     1       5.165  32.676  62.142  1.00  0.00     0.320 C 
HETATM    3  N   UNL     1       6.514  32.662  61.975  1.00  0.00    -0.342 N 
HETATM    4  O   UNL     1       4.379  32.468  61.219  1.00  0.00    -0.247 OA
HETATM    5  H   UNL     1       3.661  32.724  63.373  1.00  0.00     0.170 HD
HETATM    6  H   UNL     1       7.030  32.294  62.768  1.00  0.00     0.164 HD
ENDROOT
BRANCH   1   7
HETATM    7  C   UNL     1       5.196  33.337  64.602  1.00  0.00     0.036 A 
HETATM    8  C   UNL     1       6.553  33.374  64.920  1.00  0.00     0.030 A 
HETATM    9  C   UNL     1       6.979  33.863  66.162  1.00  0.00     0.010 A 
HETATM   10  C   UNL     1       6.055  34.342  67.101  1.00  0.00    -0.051 A 
HETATM   11  C   UNL     1       4.696  34.327  66.774  1.00  0.00     0.010 A 
HETATM   12  C   UNL     1       4.275  33.830  65.539  1.00  0.00     0.030 A 
BRANCH  10  13
HETATM   13  C   UNL     1       6.523  34.937  68.410  1.00  0.00     0.118 C 
BRANCH  13  14
HETATM   14  C   UNL     1       6.672  33.948  69.519  1.00  0.00     0.126 A 
HETATM   15  N   UNL     1       5.807  32.914  69.753  1.00  0.00    -0.263 N 
HETATM   16  N   UNL     1       6.181  32.191  70.819  1.00  0.00    -0.158 NA
HETATM   17  H   UNL     1       4.971  32.655  69.240  1.00  0.00     0.190 HD
HETATM   18  C   UNL     1       7.290  32.832  71.203  1.00  0.00     0.144 A 
HETATM   19  C   UNL     1       8.097  32.406  72.363  1.00  0.00     0.095 C 
HETATM   20  N   UNL     1       7.624  33.912  70.429  1.00  0.00    -0.217 NA
ENDBRANCH  13  14
ENDBRANCH  10  13
ENDBRANCH   1   7
BRANCH   3  21
HETATM   21  C   UNL     1       7.059  32.299  60.681  1.00  0.00     0.131 C 
BRANCH  21  22
HETATM   22  C   UNL     1       8.245  31.325  60.743  1.00  0.00     0.033 C 
BRANCH  22  23
HETATM   23  C   UNL     1       8.643  31.023  62.195  1.00  0.00     0.170 C 
BRANCH  23  24
HETATM   24  O   UNL     1       8.825  29.629  62.413  1.00  0.00    -0.400 OA
HETATM   25  H   UNL     1       9.667  29.396  61.976  1.00  0.00     0.209 HD
ENDBRANCH  23  24
ENDBRANCH  22  23
BRANCH  22  26
HETATM   26  C   UNL     1       9.412  31.844  59.885  1.00  0.00     0.073 C 
BRANCH  26  27
HETATM   27  C   UNL     1       9.661  30.974  58.705  1.00  0.00     0.053 A 
HETATM   28  O   UNL     1      10.723  31.302  57.917  1.00  0.00    -0.327 OA
HETATM   29  C   UNL     1      10.773  30.379  56.921  1.00  0.00     0.142 A 
HETATM   30  C   UNL     1       9.754  29.465  57.059  1.00  0.00     0.027 A 
HETATM   31  C   UNL     1       9.032  29.851  58.212  1.00  0.00     0.034 A 
ENDBRANCH  26  27
ENDBRANCH  22  26
ENDBRANCH  21  22
ENDBRANCH   3  21
TORSDOF 9
ENDMDL
MODEL 5
REMARK VINA RESULT:      -8.4      3.407      9.958
REMARK  9 active torsions:
REMARK  status: ('A' for Active; 'I' for Inactive)
REMARK    1  A    between atoms: C_6  and  C_7 
REMARK    2  A    between atoms: C_7  and  C_8 
REMARK    3  A    between atoms: C_11  and  N_12 
REMARK       I    between atoms: N_12  and  C_13 
REMARK       I    between atoms: C_13  and  N_14 
REMARK    4  A    between atoms: N_14  and  C_15 
REMARK    5  A    between atoms: C_15  and  C_16 
REMARK    6  A    between atoms: C_16  and  C_17 
REMARK    7  A    between atoms: C_16  and  C_19 
REMARK    8  A    between atoms: C_17  and  O_18 
REMARK    9  A    between atoms: C_19  and  C_20 
ROOT
HETATM    1  N   UNL     1       7.047  29.635  56.438  1.00  0.00    -0.309 N 
HETATM    2  C   UNL     1       6.773  28.397  55.956  1.00  0.00     0.320 C 
HETATM    3  N   UNL     1       6.471  27.402  56.831  1.00  0.00    -0.342 N 
HETATM    4  O   UNL     1       6.778  28.230  54.737  1.00  0.00    -0.247 OA
HETATM    5  H   UNL     1       7.102  30.291  55.668  1.00  0.00     0.170 HD
HETATM    6  H   UNL     1       5.969  27.712  57.658  1.00  0.00     0.164 HD
ENDROOT
BRANCH   1   7
HETATM    7  C   UNL     1       7.318  30.160  57.712  1.00  0.00     0.036 A 
HETATM    8  C   UNL     1       8.347  29.740  58.554  1.00  0.00     0.030 A 
HETATM    9  C   UNL     1       8.542  30.353  59.799  1.00  0.00     0.010 A 
HETATM   10  C   UNL     1       7.721  31.410  60.215  1.00  0.00    -0.051 A 
HETATM   11  C   UNL     1       6.703  31.847  59.363  1.00  0.00     0.010 A 
HETATM   12  C   UNL     1       6.507  31.227  58.127  1.00  0.00     0.030 A 
BRANCH  10  13
HETATM   13  C   UNL     1       7.979  32.118  61.527  1.00  0.00     0.118 C 
BRANCH  13  14
HETATM   14  C   UNL     1       6.772  32.276  62.391  1.00  0.00     0.126 A 
HETATM   15  N   UNL     1       5.889  31.271  62.675  1.00  0.00    -0.263 N 
HETATM   16  N   UNL     1       4.895  31.698  63.468  1.00  0.00    -0.158 NA
HETATM   17  H   UNL     1       5.905  30.303  62.371  1.00  0.00     0.190 HD
HETATM   18  C   UNL     1       5.221  32.984  63.639  1.00  0.00     0.144 A 
HETATM   19  C   UNL     1       4.417  33.908  64.462  1.00  0.00     0.095 C 
HETATM   20  N   UNL     1       6.367  33.374  62.997  1.00  0.00    -0.217 NA
ENDBRANCH  13  14
ENDBRANCH  10  13
ENDBRANCH   1   7
BRANCH   3  21
HETATM   21  C   UNL     1       6.047  26.115  56.315  1.00  0.00     0.131 C 
BRANCH  21  22
HETATM   22  C   UNL     1       7.167  25.066  56.232  1.00  0.00     0.033 C 
BRANCH  22  23
HETATM   23  C   UNL     1       8.329  25.416  57.172  1.00  0.00     0.170 C 
BRANCH  23  24
HETATM   24  O   UNL     1       7.902  25.511  58.526  1.00  0.00    -0.400 OA
HETATM   25  H   UNL     1       7.536  26.410  58.630  1.00  0.00     0.209 HD
ENDBRANCH  23  24
ENDBRANCH  22  23
BRANCH  22  26
HETATM   26  C   UNL     1       7.603  24.861  54.771  1.00  0.00     0.073 C 
BRANCH  26  27
HETATM   27  C   UNL     1       7.749  23.420  54.434  1.00  0.00     0.053 A 
HETATM   28  O   UNL     1       7.575  22.533  55.455  1.00  0.00    -0.327 OA
HETATM   29  C   UNL     1       7.736  21.291  54.928  1.00  0.00     0.142 A 
HETATM   30  C   UNL     1       8.013  21.370  53.583  1.00  0.00     0.027 A 
HETATM   31  C   UNL     1       8.024  22.747  53.263  1.00  0.00     0.034 A 
ENDBRANCH  26  27
ENDBRANCH  22  26
ENDBRANCH  21  22
ENDBRANCH   3  21
TORSDOF 9
ENDMDL
MODEL 6
REMARK VINA RESULT:      -8.3      3.281      9.685
REMARK  9 active torsions:
REMARK  status: ('A' for Active; 'I' for Inactive)
REMARK    1  A    between atoms: C_6  and  C_7 
REMARK    2  A    between atoms: C_7  and  C_8 
REMARK    3  A    between atoms: C_11  and  N_12 
REMARK       I    between atoms: N_12  and  C_13 
REMARK       I    between atoms: C_13  and  N_14 
REMARK    4  A    between atoms: N_14  and  C_15 
REMARK    5  A    between atoms: C_15  and  C_16 
REMARK    6  A    between atoms: C_16  and  C_17 
REMARK    7  A    between atoms: C_16  and  C_19 
REMARK    8  A    between atoms: C_17  and  O_18 
REMARK    9  A    between atoms: C_19  and  C_20 
ROOT
HETATM    1  N   UNL     1       9.215  30.879  58.863  1.00  0.00    -0.309 N 
HETATM    2  C   UNL     1       8.918  29.841  58.042  1.00  0.00     0.320 C 
HETATM    3  N   UNL     1       7.873  29.031  58.357  1.00  0.00    -0.342 N 
HETATM    4  O   UNL     1       9.592  29.690  57.024  1.00  0.00    -0.247 OA
HETATM    5  H   UNL     1       9.910  31.469  58.422  1.00  0.00     0.170 HD
HETATM    6  H   UNL     1       7.103  29.504  58.821  1.00  0.00     0.164 HD
ENDROOT
BRANCH   1   7
HETATM    7  C   UNL     1       8.823  31.256  60.159  1.00  0.00     0.036 A 
HETATM    8  C   UNL     1       9.150  30.572  61.329  1.00  0.00     0.030 A 
HETATM    9  C   UNL     1       8.725  31.052  62.575  1.00  0.00     0.010 A 
HETATM   10  C   UNL     1       7.982  32.237  62.673  1.00  0.00    -0.051 A 
HETATM   11  C   UNL     1       7.673  32.936  61.502  1.00  0.00     0.010 A 
HETATM   12  C   UNL     1       8.091  32.447  60.262  1.00  0.00     0.030 A 
BRANCH  10  13
HETATM   13  C   UNL     1       7.588  32.792  64.023  1.00  0.00     0.118 C 
BRANCH  13  14
HETATM   14  C   UNL     1       6.231  33.413  64.064  1.00  0.00     0.126 A 
HETATM   15  N   UNL     1       5.059  32.707  64.062  1.00  0.00    -0.263 N 
HETATM   16  N   UNL     1       3.994  33.522  64.094  1.00  0.00    -0.158 NA
HETATM   17  H   UNL     1       4.920  31.702  64.040  1.00  0.00     0.190 HD
HETATM   18  C   UNL     1       4.576  34.725  64.114  1.00  0.00     0.144 A 
HETATM   19  C   UNL     1       3.806  35.983  64.159  1.00  0.00     0.095 C 
HETATM   20  N   UNL     1       5.946  34.699  64.100  1.00  0.00    -0.217 NA
ENDBRANCH  13  14
ENDBRANCH  10  13
ENDBRANCH   1   7
BRANCH   3  21
HETATM   21  C   UNL     1       7.471  28.004  57.416  1.00  0.00     0.131 C 
BRANCH  21  22
HETATM   22  C   UNL     1       6.169  28.313  56.660  1.00  0.00     0.033 C 
BRANCH  22  23
HETATM   23  C   UNL     1       5.514  29.601  57.179  1.00  0.00     0.170 C 
BRANCH  23  24
HETATM   24  O   UNL     1       4.546  29.331  58.187  1.00  0.00    -0.400 OA
HETATM   25  H   UNL     1       4.224  28.425  58.014  1.00  0.00     0.209 HD
ENDBRANCH  23  24
ENDBRANCH  22  23
BRANCH  22  26
HETATM   26  C   UNL     1       5.229  27.095  56.687  1.00  0.00     0.073 C 
BRANCH  26  27
HETATM   27  C   UNL     1       5.626  26.068  55.688  1.00  0.00     0.053 A 
HETATM   28  O   UNL     1       5.288  26.314  54.391  1.00  0.00    -0.327 OA
HETATM   29  C   UNL     1       5.754  25.268  53.659  1.00  0.00     0.142 A 
HETATM   30  C   UNL     1       6.383  24.353  54.470  1.00  0.00     0.027 A 
HETATM   31  C   UNL     1       6.298  24.868  55.784  1.00  0.00     0.034 A 
ENDBRANCH  26  27
ENDBRANCH  22  26
ENDBRANCH  21  22
ENDBRANCH   3  21
TORSDOF 9
ENDMDL
MODEL 7
REMARK VINA RESULT:      -8.0      3.930     10.256
REMARK  9 active torsions:
REMARK  status: ('A' for Active; 'I' for Inactive)
REMARK    1  A    between atoms: C_6  and  C_7 
REMARK    2  A    between atoms: C_7  and  C_8 
REMARK    3  A    between atoms: C_11  and  N_12 
REMARK       I    between atoms: N_12  and  C_13 
REMARK       I    between atoms: C_13  and  N_14 
REMARK    4  A    between atoms: N_14  and  C_15 
REMARK    5  A    between atoms: C_15  and  C_16 
REMARK    6  A    between atoms: C_16  and  C_17 
REMARK    7  A    between atoms: C_16  and  C_19 
REMARK    8  A    between atoms: C_17  and  O_18 
REMARK    9  A    between atoms: C_19  and  C_20 
ROOT
HETATM    1  N   UNL     1       5.824  28.148  54.999  1.00  0.00    -0.309 N 
HETATM    2  C   UNL     1       5.843  26.954  54.355  1.00  0.00     0.320 C 
HETATM    3  N   UNL     1       6.672  25.976  54.808  1.00  0.00    -0.342 N 
HETATM    4  O   UNL     1       5.083  26.792  53.401  1.00  0.00    -0.247 OA
HETATM    5  H   UNL     1       5.060  28.710  54.644  1.00  0.00     0.170 HD
HETATM    6  H   UNL     1       6.806  25.975  55.814  1.00  0.00     0.164 HD
ENDROOT
BRANCH   1   7
HETATM    7  C   UNL     1       6.640  28.761  55.964  1.00  0.00     0.036 A 
HETATM    8  C   UNL     1       6.210  29.220  57.208  1.00  0.00     0.030 A 
HETATM    9  C   UNL     1       7.119  29.796  58.107  1.00  0.00     0.010 A 
HETATM   10  C   UNL     1       8.478  29.905  57.783  1.00  0.00    -0.051 A 
HETATM   11  C   UNL     1       8.915  29.424  56.545  1.00  0.00     0.010 A 
HETATM   12  C   UNL     1       8.004  28.859  55.649  1.00  0.00     0.030 A 
BRANCH  10  13
HETATM   13  C   UNL     1       9.468  30.459  58.783  1.00  0.00     0.118 C 
BRANCH  13  14
HETATM   14  C   UNL     1       8.852  30.971  60.042  1.00  0.00     0.126 A 
HETATM   15  N   UNL     1       8.764  30.255  61.205  1.00  0.00    -0.263 N 
HETATM   16  N   UNL     1       8.155  30.959  62.171  1.00  0.00    -0.158 NA
HETATM   17  H   UNL     1       9.087  29.313  61.399  1.00  0.00     0.190 HD
HETATM   18  C   UNL     1       7.889  32.107  61.541  1.00  0.00     0.144 A 
HETATM   19  C   UNL     1       7.212  33.241  62.199  1.00  0.00     0.095 C 
HETATM   20  N   UNL     1       8.304  32.154  60.235  1.00  0.00    -0.217 NA
ENDBRANCH  13  14
ENDBRANCH  10  13
ENDBRANCH   1   7
BRANCH   3  21
HETATM   21  C   UNL     1       6.598  24.658  54.207  1.00  0.00     0.131 C 
BRANCH  21  22
HETATM   22  C   UNL     1       7.867  24.233  53.453  1.00  0.00     0.033 C 
BRANCH  22  23
HETATM   23  C   UNL     1       8.109  25.121  52.224  1.00  0.00     0.170 C 
BRANCH  23  24
HETATM   24  O   UNL     1       6.908  25.356  51.498  1.00  0.00    -0.400 OA
HETATM   25  H   UNL     1       6.436  26.061  51.981  1.00  0.00     0.209 HD
ENDBRANCH  23  24
ENDBRANCH  22  23
BRANCH  22  26
HETATM   26  C   UNL     1       7.818  22.731  53.123  1.00  0.00     0.073 C 
BRANCH  26  27
HETATM   27  C   UNL     1       8.230  21.896  54.282  1.00  0.00     0.053 A 
HETATM   28  O   UNL     1       7.348  20.941  54.691  1.00  0.00    -0.327 OA
HETATM   29  C   UNL     1       7.926  20.296  55.739  1.00  0.00     0.142 A 
HETATM   30  C   UNL     1       9.165  20.827  56.008  1.00  0.00     0.027 A 
HETATM   31  C   UNL     1       9.362  21.864  55.067  1.00  0.00     0.034 A 
ENDBRANCH  26  27
ENDBRANCH  22  26
ENDBRANCH  21  22
ENDBRANCH   3  21
TORSDOF 9
ENDMDL
MODEL 8
REMARK VINA RESULT:      -8.0      3.364      8.637
REMARK  9 active torsions:
REMARK  status: ('A' for Active; 'I' for Inactive)
REMARK    1  A    between atoms: C_6  and  C_7 
REMARK    2  A    between atoms: C_7  and  C_8 
REMARK    3  A    between atoms: C_11  and  N_12 
REMARK       I    between atoms: N_12  and  C_13 
REMARK       I    between atoms: C_13  and  N_14 
REMARK    4  A    between atoms: N_14  and  C_15 
REMARK    5  A    between atoms: C_15  and  C_16 
REMARK    6  A    between atoms: C_16  and  C_17 
REMARK    7  A    between atoms: C_16  and  C_19 
REMARK    8  A    between atoms: C_17  and  O_18 
REMARK    9  A    between atoms: C_19  and  C_20 
ROOT
HETATM    1  N   UNL     1       9.313  30.757  58.955  1.00  0.00    -0.309 N 
HETATM    2  C   UNL     1       8.925  29.769  58.110  1.00  0.00     0.320 C 
HETATM    3  N   UNL     1       7.771  29.099  58.368  1.00  0.00    -0.342 N 
HETATM    4  O   UNL     1       9.620  29.539  57.121  1.00  0.00    -0.247 OA
HETATM    5  H   UNL     1      10.098  31.255  58.553  1.00  0.00     0.170 HD
HETATM    6  H   UNL     1       7.047  29.665  58.801  1.00  0.00     0.164 HD
ENDROOT
BRANCH   1   7
HETATM    7  C   UNL     1       8.913  31.173  60.235  1.00  0.00     0.036 A 
HETATM    8  C   UNL     1       9.163  30.484  61.421  1.00  0.00     0.030 A 
HETATM    9  C   UNL     1       8.738  31.006  62.650  1.00  0.00     0.010 A 
HETATM   10  C   UNL     1       8.072  32.238  62.716  1.00  0.00    -0.051 A 
HETATM   11  C   UNL     1       7.841  32.941  61.530  1.00  0.00     0.010 A 
HETATM   12  C   UNL     1       8.258  32.411  60.306  1.00  0.00     0.030 A 
BRANCH  10  13
HETATM   13  C   UNL     1       7.679  32.833  64.049  1.00  0.00     0.118 C 
BRANCH  13  14
HETATM   14  C   UNL     1       6.310  33.426  64.082  1.00  0.00     0.126 A 
HETATM   15  N   UNL     1       5.152  32.697  64.078  1.00  0.00    -0.263 N 
HETATM   16  N   UNL     1       4.070  33.490  64.102  1.00  0.00    -0.158 NA
HETATM   17  H   UNL     1       5.034  31.689  64.059  1.00  0.00     0.190 HD
HETATM   18  C   UNL     1       4.628  34.705  64.120  1.00  0.00     0.144 A 
HETATM   19  C   UNL     1       3.833  35.947  64.156  1.00  0.00     0.095 C 
HETATM   20  N   UNL     1       5.998  34.706  64.111  1.00  0.00    -0.217 NA
ENDBRANCH  13  14
ENDBRANCH  10  13
ENDBRANCH   1   7
BRANCH   3  21
HETATM   21  C   UNL     1       7.284  28.137  57.397  1.00  0.00     0.131 C 
BRANCH  21  22
HETATM   22  C   UNL     1       5.761  28.156  57.196  1.00  0.00     0.033 C 
BRANCH  22  23
HETATM   23  C   UNL     1       5.282  26.901  56.453  1.00  0.00     0.170 C 
BRANCH  23  24
HETATM   24  O   UNL     1       4.504  27.230  55.308  1.00  0.00    -0.400 OA
HETATM   25  H   UNL     1       5.011  26.910  54.537  1.00  0.00     0.209 HD
ENDBRANCH  23  24
ENDBRANCH  22  23
BRANCH  22  26
HETATM   26  C   UNL     1       5.324  29.469  56.523  1.00  0.00     0.073 C 
BRANCH  26  27
HETATM   27  C   UNL     1       4.764  30.434  57.505  1.00  0.00     0.053 A 
HETATM   28  O   UNL     1       5.660  31.213  58.176  1.00  0.00    -0.327 OA
HETATM   29  C   UNL     1       4.940  32.020  58.999  1.00  0.00     0.142 A 
HETATM   30  C   UNL     1       3.595  31.767  58.867  1.00  0.00     0.027 A 
HETATM   31  C   UNL     1       3.480  30.739  57.902  1.00  0.00     0.034 A 
ENDBRANCH  26  27
ENDBRANCH  22  26
ENDBRANCH  21  22
ENDBRANCH   3  21
TORSDOF 9
ENDMDL
MODEL 9
REMARK VINA RESULT:      -7.9      4.473      6.840
REMARK  9 active torsions:
REMARK  status: ('A' for Active; 'I' for Inactive)
REMARK    1  A    between atoms: C_6  and  C_7 
REMARK    2  A    between atoms: C_7  and  C_8 
REMARK    3  A    between atoms: C_11  and  N_12 
REMARK       I    between atoms: N_12  and  C_13 
REMARK       I    between atoms: C_13  and  N_14 
REMARK    4  A    between atoms: N_14  and  C_15 
REMARK    5  A    between atoms: C_15  and  C_16 
REMARK    6  A    between atoms: C_16  and  C_17 
REMARK    7  A    between atoms: C_16  and  C_19 
REMARK    8  A    between atoms: C_17  and  O_18 
REMARK    9  A    between atoms: C_19  and  C_20 
ROOT
HETATM    1  N   UNL     1       4.977  25.640  54.918  1.00  0.00    -0.309 N 
HETATM    2  C   UNL     1       5.695  25.785  56.060  1.00  0.00     0.320 C 
HETATM    3  N   UNL     1       6.681  26.720  56.102  1.00  0.00    -0.342 N 
HETATM    4  O   UNL     1       5.405  25.081  57.026  1.00  0.00    -0.247 OA
HETATM    5  H   UNL     1       4.194  25.021  55.090  1.00  0.00     0.170 HD
HETATM    6  H   UNL     1       6.491  27.552  55.552  1.00  0.00     0.164 HD
ENDROOT
BRANCH   1   7
HETATM    7  C   UNL     1       5.120  26.098  53.598  1.00  0.00     0.036 A 
HETATM    8  C   UNL     1       5.372  25.291  52.489  1.00  0.00     0.030 A 
HETATM    9  C   UNL     1       5.472  25.854  51.209  1.00  0.00     0.010 A 
HETATM   10  C   UNL     1       5.302  27.232  51.014  1.00  0.00    -0.051 A 
HETATM   11  C   UNL     1       5.026  28.038  52.123  1.00  0.00     0.010 A 
HETATM   12  C   UNL     1       4.937  27.474  53.397  1.00  0.00     0.030 A 
BRANCH  10  13
HETATM   13  C   UNL     1       5.337  27.825  49.624  1.00  0.00     0.118 C 
BRANCH  13  14
HETATM   14  C   UNL     1       4.255  27.339  48.717  1.00  0.00     0.126 A 
HETATM   15  N   UNL     1       4.446  26.453  47.692  1.00  0.00    -0.263 N 
HETATM   16  N   UNL     1       3.303  26.202  47.038  1.00  0.00    -0.158 NA
HETATM   17  H   UNL     1       5.303  25.998  47.395  1.00  0.00     0.190 HD
HETATM   18  C   UNL     1       2.436  26.967  47.709  1.00  0.00     0.144 A 
HETATM   19  C   UNL     1       1.002  27.036  47.368  1.00  0.00     0.095 C 
HETATM   20  N   UNL     1       2.982  27.676  48.747  1.00  0.00    -0.217 NA
ENDBRANCH  13  14
ENDBRANCH  10  13
ENDBRANCH   1   7
BRANCH   3  21
HETATM   21  C   UNL     1       7.359  26.970  57.359  1.00  0.00     0.131 C 
BRANCH  21  22
HETATM   22  C   UNL     1       7.329  28.437  57.815  1.00  0.00     0.033 C 
BRANCH  22  23
HETATM   23  C   UNL     1       6.148  29.191  57.187  1.00  0.00     0.170 C 
BRANCH  23  24
HETATM   24  O   UNL     1       4.904  28.778  57.741  1.00  0.00    -0.400 OA
HETATM   25  H   UNL     1       5.069  27.908  58.154  1.00  0.00     0.209 HD
ENDBRANCH  23  24
ENDBRANCH  22  23
BRANCH  22  26
HETATM   26  C   UNL     1       8.689  29.108  57.557  1.00  0.00     0.073 C 
BRANCH  26  27
HETATM   27  C   UNL     1       8.999  30.143  58.579  1.00  0.00     0.053 A 
HETATM   28  O   UNL     1       8.528  29.918  59.839  1.00  0.00    -0.327 OA
HETATM   29  C   UNL     1       8.934  30.966  60.602  1.00  0.00     0.142 A 
HETATM   30  C   UNL     1       9.655  31.862  59.848  1.00  0.00     0.027 A 
HETATM   31  C   UNL     1       9.696  31.331  58.538  1.00  0.00     0.034 A 
ENDBRANCH  26  27
ENDBRANCH  22  26
ENDBRANCH  21  22
ENDBRANCH   3  21
TORSDOF 9
ENDMDL
MODEL 10
REMARK VINA RESULT:      -7.9      1.973      3.364
REMARK  9 active torsions:
REMARK  status: ('A' for Active; 'I' for Inactive)
REMARK    1  A    between atoms: C_6  and  C_7 
REMARK    2  A    between atoms: C_7  and  C_8 
REMARK    3  A    between atoms: C_11  and  N_12 
REMARK       I    between atoms: N_12  and  C_13 
REMARK       I    between atoms: C_13  and  N_14 
REMARK    4  A    between atoms: N_14  and  C_15 
REMARK    5  A    between atoms: C_15  and  C_16 
REMARK    6  A    between atoms: C_16  and  C_17 
REMARK    7  A    between atoms: C_16  and  C_19 
REMARK    8  A    between atoms: C_17  and  O_18 
REMARK    9  A    between atoms: C_19  and  C_20 
ROOT
HETATM    1  N   UNL     1       6.237  31.034  57.327  1.00  0.00    -0.309 N 
HETATM    2  C   UNL     1       5.659  31.922  58.174  1.00  0.00     0.320 C 
HETATM    3  N   UNL     1       5.096  31.464  59.324  1.00  0.00    -0.342 N 
HETATM    4  O   UNL     1       5.693  33.116  57.881  1.00  0.00    -0.247 OA
HETATM    5  H   UNL     1       6.737  31.536  56.603  1.00  0.00     0.170 HD
HETATM    6  H   UNL     1       5.567  30.661  59.728  1.00  0.00     0.164 HD
ENDROOT
BRANCH   1   7
HETATM    7  C   UNL     1       6.237  29.634  57.216  1.00  0.00     0.036 A 
HETATM    8  C   UNL     1       7.277  28.794  57.613  1.00  0.00     0.030 A 
HETATM    9  C   UNL     1       7.159  27.404  57.478  1.00  0.00     0.010 A 
HETATM   10  C   UNL     1       5.990  26.829  56.961  1.00  0.00    -0.051 A 
HETATM   11  C   UNL     1       4.938  27.668  56.584  1.00  0.00     0.010 A 
HETATM   12  C   UNL     1       5.064  29.054  56.711  1.00  0.00     0.030 A 
BRANCH  10  13
HETATM   13  C   UNL     1       5.838  25.326  56.885  1.00  0.00     0.118 C 
BRANCH  13  14
HETATM   14  C   UNL     1       6.194  24.736  55.561  1.00  0.00     0.126 A 
HETATM   15  N   UNL     1       5.592  25.072  54.379  1.00  0.00    -0.263 N 
HETATM   16  N   UNL     1       6.104  24.379  53.351  1.00  0.00    -0.158 NA
HETATM   17  H   UNL     1       4.850  25.744  54.210  1.00  0.00     0.190 HD
HETATM   18  C   UNL     1       7.023  23.627  53.965  1.00  0.00     0.144 A 
HETATM   19  C   UNL     1       7.884  22.671  53.242  1.00  0.00     0.095 C 
HETATM   20  N   UNL     1       7.109  23.819  55.319  1.00  0.00    -0.217 NA
ENDBRANCH  13  14
ENDBRANCH  10  13
ENDBRANCH   1   7
BRANCH   3  21
HETATM   21  C   UNL     1       4.597  32.421  60.292  1.00  0.00     0.131 C 
BRANCH  21  22
HETATM   22  C   UNL     1       5.247  32.315  61.680  1.00  0.00     0.033 C 
BRANCH  22  23
HETATM   23  C   UNL     1       4.327  32.881  62.771  1.00  0.00     0.170 C 
BRANCH  23  24
HETATM   24  O   UNL     1       4.739  32.476  64.072  1.00  0.00    -0.400 OA
HETATM   25  H   UNL     1       5.584  32.936  64.241  1.00  0.00     0.209 HD
ENDBRANCH  23  24
ENDBRANCH  22  23
BRANCH  22  26
HETATM   26  C   UNL     1       6.647  32.955  61.669  1.00  0.00     0.073 C 
BRANCH  26  27
HETATM   27  C   UNL     1       7.722  31.931  61.595  1.00  0.00     0.053 A 
HETATM   28  O   UNL     1       8.073  31.501  60.350  1.00  0.00    -0.327 OA
HETATM   29  C   UNL     1       9.069  30.591  60.515  1.00  0.00     0.142 A 
HETATM   30  C   UNL     1       9.359  30.430  61.849  1.00  0.00     0.027 A 
HETATM   31  C   UNL     1       8.486  31.294  62.550  1.00  0.00     0.034 A 
ENDBRANCH  26  27
ENDBRANCH  22  26
ENDBRANCH  21  22
ENDBRANCH   3  21
TORSDOF 9
ENDMDL
