MODEL 1
REMARK VINA RESULT:      -9.3      0.000      0.000
REMARK  4 active torsions:
REMARK  status: ('A' for Active; 'I' for Inactive)
REMARK    1  A    between atoms: C_9  and  N_10 
REMARK       I    between atoms: N_10  and  C_11 
REMARK    2  A    between atoms: C_11  and  C_12 
REMARK    3  A    between atoms: C_14  and  C_15 
REMARK    4  A    between atoms: C_22  and  O_23 
ROOT
HETATM    1  N   UNL     1       6.991  26.831  55.924  1.00  0.00    -0.322 N 
HETATM    2  C   UNL     1       7.422  28.112  55.601  1.00  0.00     0.265 C 
HETATM    3  O   UNL     1       7.963  28.398  54.535  1.00  0.00    -0.267 OA
HETATM    4  H   UNL     1       6.424  26.764  56.762  1.00  0.00     0.169 HD
ENDROOT
BRANCH   2   5
HETATM    5  C   UNL     1       7.151  29.100  56.634  1.00  0.00     0.107 A 
HETATM    6  S   UNL     1       8.057  29.085  58.089  1.00  0.00    -0.081 SA
HETATM    7  C   UNL     1       7.323  30.526  58.651  1.00  0.00     0.018 A 
HETATM    8  C   UNL     1       6.359  30.972  57.767  1.00  0.00     0.058 A 
HETATM    9  C   UNL     1       6.252  30.147  56.606  1.00  0.00     0.092 A 
BRANCH   7  10
HETATM   10  C   UNL     1       7.770  31.146  59.902  1.00  0.00    -0.019 A 
HETATM   11  C   UNL     1       9.035  30.828  60.422  1.00  0.00     0.013 A 
HETATM   12  C   UNL     1       9.481  31.406  61.613  1.00  0.00     0.001 A 
HETATM   13  C   UNL     1       8.671  32.313  62.293  1.00  0.00     0.000 A 
HETATM   14  C   UNL     1       7.417  32.642  61.784  1.00  0.00     0.001 A 
HETATM   15  C   UNL     1       6.967  32.063  60.594  1.00  0.00     0.013 A 
ENDBRANCH   7  10
BRANCH   9  16
HETATM   16  O   UNL     1       5.408  30.279  55.550  1.00  0.00    -0.354 OA
HETATM   17  C   UNL     1       4.103  29.754  55.752  1.00  0.00     0.210 C 
ENDBRANCH   9  16
ENDBRANCH   2   5
BRANCH   1  18
HETATM   18  C   UNL     1       7.209  25.647  55.196  1.00  0.00     0.035 A 
HETATM   19  C   UNL     1       8.151  24.682  55.567  1.00  0.00     0.039 A 
HETATM   20  C   UNL     1       8.266  23.527  54.808  1.00  0.00    -0.022 A 
HETATM   21  C   UNL     1       9.152  22.359  55.062  1.00  0.00     0.274 C 
HETATM   22  C   UNL     1       7.470  23.317  53.682  1.00  0.00    -0.025 A 
HETATM   23  N   UNL     1       8.949  21.439  53.861  1.00  0.00    -0.067 N 
HETATM   24  C   UNL     1       8.819  20.000  54.218  1.00  0.00     0.270 C 
HETATM   25  H   UNL     1       9.778  21.559  53.269  1.00  0.00     0.280 HD
HETATM   26  C   UNL     1       7.769  21.994  53.069  1.00  0.00     0.273 C 
HETATM   27  C   UNL     1       6.531  24.258  53.296  1.00  0.00     0.012 A 
HETATM   28  C   UNL     1       6.399  25.420  54.066  1.00  0.00     0.030 A 
ENDBRANCH   1  18
TORSDOF 4
ENDMDL
MODEL 2
REMARK VINA RESULT:      -9.2      2.332      9.032
REMARK  4 active torsions:
REMARK  status: ('A' for Active; 'I' for Inactive)
REMARK    1  A    between atoms: C_9  and  N_10 
REMARK       I    between atoms: N_10  and  C_11 
REMARK    2  A    between atoms: C_11  and  C_12 
REMARK    3  A    between atoms: C_14  and  C_15 
REMARK    4  A    between atoms: C_22  and  O_23 
ROOT
HETATM    1  N   UNL     1       8.199  27.824  56.344  1.00  0.00    -0.322 N 
HETATM    2  C   UNL     1       6.984  27.657  55.688  1.00  0.00     0.265 C 
HETATM    3  O   UNL     1       6.108  28.517  55.651  1.00  0.00    -0.267 OA
HETATM    4  H   UNL     1       8.889  27.104  56.166  1.00  0.00     0.169 HD
ENDROOT
BRANCH   2   5
HETATM    5  C   UNL     1       6.852  26.371  55.020  1.00  0.00     0.107 A 
HETATM    6  S   UNL     1       8.010  25.139  55.301  1.00  0.00    -0.081 SA
HETATM    7  C   UNL     1       7.133  23.996  54.376  1.00  0.00     0.018 A 
HETATM    8  C   UNL     1       6.008  24.569  53.815  1.00  0.00     0.058 A 
HETATM    9  C   UNL     1       5.846  25.941  54.178  1.00  0.00     0.092 A 
BRANCH   7  10
HETATM   10  C   UNL     1       7.585  22.604  54.297  1.00  0.00    -0.019 A 
HETATM   11  C   UNL     1       7.890  22.043  53.048  1.00  0.00     0.013 A 
HETATM   12  C   UNL     1       8.320  20.718  52.947  1.00  0.00     0.001 A 
HETATM   13  C   UNL     1       8.457  19.941  54.097  1.00  0.00     0.000 A 
HETATM   14  C   UNL     1       8.164  20.489  55.344  1.00  0.00     0.001 A 
HETATM   15  C   UNL     1       7.730  21.813  55.446  1.00  0.00     0.013 A 
ENDBRANCH   7  10
BRANCH   9  16
HETATM   16  O   UNL     1       4.871  26.807  53.799  1.00  0.00    -0.354 OA
HETATM   17  C   UNL     1       4.949  27.249  52.451  1.00  0.00     0.210 C 
ENDBRANCH   9  16
ENDBRANCH   2   5
BRANCH   1  18
HETATM   18  C   UNL     1       8.581  28.895  57.173  1.00  0.00     0.035 A 
HETATM   19  C   UNL     1       7.807  29.349  58.246  1.00  0.00     0.039 A 
HETATM   20  C   UNL     1       8.287  30.386  59.031  1.00  0.00    -0.022 A 
HETATM   21  C   UNL     1       7.658  30.971  60.245  1.00  0.00     0.274 C 
HETATM   22  C   UNL     1       9.517  30.988  58.764  1.00  0.00    -0.025 A 
HETATM   23  N   UNL     1       8.556  32.143  60.633  1.00  0.00    -0.067 N 
HETATM   24  C   UNL     1       8.829  32.237  62.092  1.00  0.00     0.270 C 
HETATM   25  H   UNL     1       8.061  32.990  60.333  1.00  0.00     0.280 HD
HETATM   26  C   UNL     1       9.810  32.048  59.768  1.00  0.00     0.273 C 
HETATM   27  C   UNL     1      10.299  30.557  57.707  1.00  0.00     0.012 A 
HETATM   28  C   UNL     1       9.828  29.499  56.919  1.00  0.00     0.030 A 
ENDBRANCH   1  18
TORSDOF 4
ENDMDL
MODEL 3
REMARK VINA RESULT:      -9.2      3.542     10.140
REMARK  4 active torsions:
REMARK  status: ('A' for Active; 'I' for Inactive)
REMARK    1  A    between atoms: C_9  and  N_10 
REMARK       I    between atoms: N_10  and  C_11 
REMARK    2  A    between atoms: C_11  and  C_12 
REMARK    3  A    between atoms: C_14  and  C_15 
REMARK    4  A    between atoms: C_22  and  O_23 
ROOT
HETATM    1  N   UNL     1       7.703  30.822  60.343  1.00  0.00    -0.322 N 
HETATM    2  C   UNL     1       7.423  31.055  59.002  1.00  0.00     0.265 C 
HETATM    3  O   UNL     1       6.952  32.108  58.578  1.00  0.00    -0.267 OA
HETATM    4  H   UNL     1       8.230  29.978  60.534  1.00  0.00     0.169 HD
ENDROOT
BRANCH   2   5
HETATM    5  C   UNL     1       7.763  29.940  58.130  1.00  0.00     0.107 A 
HETATM    6  S   UNL     1       6.518  28.995  57.426  1.00  0.00    -0.081 SA
HETATM    7  C   UNL     1       7.629  28.088  56.492  1.00  0.00     0.018 A 
HETATM    8  C   UNL     1       8.932  28.463  56.763  1.00  0.00     0.058 A 
HETATM    9  C   UNL     1       9.013  29.526  57.714  1.00  0.00     0.092 A 
BRANCH   7  10
HETATM   10  C   UNL     1       7.149  27.097  55.524  1.00  0.00    -0.019 A 
HETATM   11  C   UNL     1       6.425  25.981  55.974  1.00  0.00     0.013 A 
HETATM   12  C   UNL     1       5.959  25.024  55.070  1.00  0.00     0.001 A 
HETATM   13  C   UNL     1       6.204  25.175  53.707  1.00  0.00     0.000 A 
HETATM   14  C   UNL     1       6.915  26.282  53.247  1.00  0.00     0.001 A 
HETATM   15  C   UNL     1       7.385  27.239  54.150  1.00  0.00     0.013 A 
ENDBRANCH   7  10
BRANCH   9  16
HETATM   16  O   UNL     1      10.122  30.127  58.218  1.00  0.00    -0.354 OA
HETATM   17  C   UNL     1      11.271  30.066  57.384  1.00  0.00     0.210 C 
ENDBRANCH   9  16
ENDBRANCH   2   5
BRANCH   1  18
HETATM   18  C   UNL     1       7.384  31.646  61.438  1.00  0.00     0.035 A 
HETATM   19  C   UNL     1       6.114  32.197  61.637  1.00  0.00     0.039 A 
HETATM   20  C   UNL     1       5.884  32.965  62.769  1.00  0.00    -0.022 A 
HETATM   21  C   UNL     1       4.602  33.586  63.199  1.00  0.00     0.274 C 
HETATM   22  C   UNL     1       6.894  33.205  63.701  1.00  0.00    -0.025 A 
HETATM   23  N   UNL     1       4.952  34.398  64.442  1.00  0.00    -0.067 N 
HETATM   24  C   UNL     1       3.966  34.263  65.549  1.00  0.00     0.270 C 
HETATM   25  H   UNL     1       4.980  35.379  64.141  1.00  0.00     0.280 HD
HETATM   26  C   UNL     1       6.380  34.026  64.831  1.00  0.00     0.273 C 
HETATM   27  C   UNL     1       8.158  32.670  63.523  1.00  0.00     0.012 A 
HETATM   28  C   UNL     1       8.394  31.880  62.391  1.00  0.00     0.030 A 
ENDBRANCH   1  18
TORSDOF 4
ENDMDL
MODEL 4
REMARK VINA RESULT:      -9.2      2.357      9.355
REMARK  4 active torsions:
REMARK  status: ('A' for Active; 'I' for Inactive)
REMARK    1  A    between atoms: C_9  and  N_10 
REMARK       I    between atoms: N_10  and  C_11 
REMARK    2  A    between atoms: C_11  and  C_12 
REMARK    3  A    between atoms: C_14  and  C_15 
REMARK    4  A    between atoms: C_22  and  O_23 
ROOT
HETATM    1  N   UNL     1       7.458  28.635  56.932  1.00  0.00    -0.322 N 
HETATM    2  C   UNL     1       6.509  27.667  56.625  1.00  0.00     0.265 C 
HETATM    3  O   UNL     1       5.364  27.672  57.071  1.00  0.00    -0.267 OA
HETATM    4  H   UNL     1       8.306  28.601  56.378  1.00  0.00     0.169 HD
ENDROOT
BRANCH   2   5
HETATM    5  C   UNL     1       6.987  26.653  55.698  1.00  0.00     0.107 A 
HETATM    6  S   UNL     1       7.169  25.032  56.224  1.00  0.00    -0.081 SA
HETATM    7  C   UNL     1       7.565  24.484  54.652  1.00  0.00     0.018 A 
HETATM    8  C   UNL     1       7.616  25.535  53.756  1.00  0.00     0.058 A 
HETATM    9  C   UNL     1       7.291  26.789  54.358  1.00  0.00     0.092 A 
BRANCH   7  10
HETATM   10  C   UNL     1       7.758  23.054  54.392  1.00  0.00    -0.019 A 
HETATM   11  C   UNL     1       7.715  22.142  55.458  1.00  0.00     0.013 A 
HETATM   12  C   UNL     1       7.898  20.776  55.235  1.00  0.00     0.001 A 
HETATM   13  C   UNL     1       8.118  20.305  53.942  1.00  0.00     0.000 A 
HETATM   14  C   UNL     1       8.156  21.199  52.874  1.00  0.00     0.001 A 
HETATM   15  C   UNL     1       7.976  22.567  53.096  1.00  0.00     0.013 A 
ENDBRANCH   7  10
BRANCH   9  16
HETATM   16  O   UNL     1       7.257  28.019  53.783  1.00  0.00    -0.354 OA
HETATM   17  C   UNL     1       6.173  28.236  52.889  1.00  0.00     0.210 C 
ENDBRANCH   9  16
ENDBRANCH   2   5
BRANCH   1  18
HETATM   18  C   UNL     1       7.346  29.671  57.879  1.00  0.00     0.035 A 
HETATM   19  C   UNL     1       6.294  30.593  57.884  1.00  0.00     0.039 A 
HETATM   20  C   UNL     1       6.247  31.554  58.883  1.00  0.00    -0.022 A 
HETATM   21  C   UNL     1       5.193  32.580  59.106  1.00  0.00     0.274 C 
HETATM   22  C   UNL     1       7.231  31.624  59.869  1.00  0.00    -0.025 A 
HETATM   23  N   UNL     1       5.705  33.430  60.265  1.00  0.00    -0.067 N 
HETATM   24  C   UNL     1       4.668  33.756  61.281  1.00  0.00     0.270 C 
HETATM   25  H   UNL     1       6.046  34.304  59.847  1.00  0.00     0.280 HD
HETATM   26  C   UNL     1       6.931  32.719  60.832  1.00  0.00     0.273 C 
HETATM   27  C   UNL     1       8.282  30.722  59.883  1.00  0.00     0.012 A 
HETATM   28  C   UNL     1       8.327  29.739  58.887  1.00  0.00     0.030 A 
ENDBRANCH   1  18
TORSDOF 4
ENDMDL
MODEL 5
REMARK VINA RESULT:      -9.1      3.947      6.308
REMARK  4 active torsions:
REMARK  status: ('A' for Active; 'I' for Inactive)
REMARK    1  A    between atoms: C_9  and  N_10 
REMARK       I    between atoms: N_10  and  C_11 
REMARK    2  A    between atoms: C_11  and  C_12 
REMARK    3  A    between atoms: C_14  and  C_15 
REMARK    4  A    between atoms: C_22  and  O_23 
ROOT
HETATM    1  N   UNL     1       7.541  30.591  59.491  1.00  0.00    -0.322 N 
HETATM    2  C   UNL     1       7.111  31.884  59.767  1.00  0.00     0.265 C 
HETATM    3  O   UNL     1       6.623  32.633  58.924  1.00  0.00    -0.267 OA
HETATM    4  H   UNL     1       7.775  30.031  60.302  1.00  0.00     0.169 HD
ENDROOT
BRANCH   2   5
HETATM    5  C   UNL     1       7.265  32.266  61.163  1.00  0.00     0.107 A 
HETATM    6  S   UNL     1       5.984  33.063  61.977  1.00  0.00    -0.081 SA
HETATM    7  C   UNL     1       6.806  33.017  63.478  1.00  0.00     0.018 A 
HETATM    8  C   UNL     1       8.062  32.457  63.341  1.00  0.00     0.058 A 
HETATM    9  C   UNL     1       8.333  32.030  62.005  1.00  0.00     0.092 A 
BRANCH   7  10
HETATM   10  C   UNL     1       6.148  33.495  64.698  1.00  0.00    -0.019 A 
HETATM   11  C   UNL     1       6.921  33.801  65.829  1.00  0.00     0.013 A 
HETATM   12  C   UNL     1       6.316  34.256  67.003  1.00  0.00     0.001 A 
HETATM   13  C   UNL     1       4.932  34.417  67.056  1.00  0.00     0.000 A 
HETATM   14  C   UNL     1       4.155  34.123  65.938  1.00  0.00     0.001 A 
HETATM   15  C   UNL     1       4.758  33.664  64.764  1.00  0.00     0.013 A 
ENDBRANCH   7  10
BRANCH   9  16
HETATM   16  O   UNL     1       9.462  31.456  61.513  1.00  0.00    -0.354 OA
HETATM   17  C   UNL     1       9.754  30.164  62.027  1.00  0.00     0.210 C 
ENDBRANCH   9  16
ENDBRANCH   2   5
BRANCH   1  18
HETATM   18  C   UNL     1       7.634  29.974  58.230  1.00  0.00     0.035 A 
HETATM   19  C   UNL     1       6.518  29.565  57.493  1.00  0.00     0.039 A 
HETATM   20  C   UNL     1       6.708  29.002  56.240  1.00  0.00    -0.022 A 
HETATM   21  C   UNL     1       5.665  28.561  55.275  1.00  0.00     0.274 C 
HETATM   22  C   UNL     1       7.987  28.827  55.710  1.00  0.00    -0.025 A 
HETATM   23  N   UNL     1       6.434  27.924  54.122  1.00  0.00    -0.067 N 
HETATM   24  C   UNL     1       5.931  28.307  52.775  1.00  0.00     0.270 C 
HETATM   25  H   UNL     1       6.330  26.910  54.238  1.00  0.00     0.280 HD
HETATM   26  C   UNL     1       7.912  28.234  54.347  1.00  0.00     0.273 C 
HETATM   27  C   UNL     1       9.106  29.224  56.422  1.00  0.00     0.012 A 
HETATM   28  C   UNL     1       8.921  29.808  57.681  1.00  0.00     0.030 A 
ENDBRANCH   1  18
TORSDOF 4
ENDMDL
MODEL 6
REMARK VINA RESULT:      -8.8      3.369     10.059
REMARK  4 active torsions:
REMARK  status: ('A' for Active; 'I' for Inactive)
REMARK    1  A    between atoms: C_9  and  N_10 
REMARK       I    between atoms: N_10  and  C_11 
REMARK    2  A    between atoms: C_11  and  C_12 
REMARK    3  A    between atoms: C_14  and  C_15 
REMARK    4  A    between atoms: C_22  and  O_23 
ROOT
HETATM    1  N   UNL     1       6.896  31.199  60.056  1.00  0.00    -0.322 N 
HETATM    2  C   UNL     1       7.704  31.324  58.932  1.00  0.00     0.265 C 
HETATM    3  O   UNL     1       8.700  32.042  58.888  1.00  0.00    -0.267 OA
HETATM    4  H   UNL     1       6.204  30.460  60.011  1.00  0.00     0.169 HD
ENDROOT
BRANCH   2   5
HETATM    5  C   UNL     1       7.278  30.500  57.811  1.00  0.00     0.107 A 
HETATM    6  S   UNL     1       8.261  29.197  57.286  1.00  0.00    -0.081 SA
HETATM    7  C   UNL     1       7.093  28.672  56.151  1.00  0.00     0.018 A 
HETATM    8  C   UNL     1       5.999  29.517  56.134  1.00  0.00     0.058 A 
HETATM    9  C   UNL     1       6.107  30.577  57.085  1.00  0.00     0.092 A 
BRANCH   7  10
HETATM   10  C   UNL     1       7.307  27.442  55.382  1.00  0.00    -0.019 A 
HETATM   11  C   UNL     1       7.414  26.214  56.052  1.00  0.00     0.013 A 
HETATM   12  C   UNL     1       7.619  25.029  55.341  1.00  0.00     0.001 A 
HETATM   13  C   UNL     1       7.714  25.060  53.950  1.00  0.00     0.000 A 
HETATM   14  C   UNL     1       7.603  26.272  53.273  1.00  0.00     0.001 A 
HETATM   15  C   UNL     1       7.401  27.458  53.984  1.00  0.00     0.013 A 
ENDBRANCH   7  10
BRANCH   9  16
HETATM   16  O   UNL     1       5.232  31.588  57.327  1.00  0.00    -0.354 OA
HETATM   17  C   UNL     1       3.988  31.186  57.886  1.00  0.00     0.210 C 
ENDBRANCH   9  16
ENDBRANCH   2   5
BRANCH   1  18
HETATM   18  C   UNL     1       6.971  31.943  61.249  1.00  0.00     0.035 A 
HETATM   19  C   UNL     1       6.111  33.005  61.545  1.00  0.00     0.039 A 
HETATM   20  C   UNL     1       6.236  33.652  62.765  1.00  0.00    -0.022 A 
HETATM   21  C   UNL     1       5.391  34.754  63.298  1.00  0.00     0.274 C 
HETATM   22  C   UNL     1       7.206  33.271  63.692  1.00  0.00    -0.025 A 
HETATM   23  N   UNL     1       6.043  35.151  64.620  1.00  0.00    -0.067 N 
HETATM   24  C   UNL     1       5.075  35.374  65.728  1.00  0.00     0.270 C 
HETATM   25  H   UNL     1       6.544  36.027  64.436  1.00  0.00     0.280 HD
HETATM   26  C   UNL     1       7.108  34.101  64.924  1.00  0.00     0.273 C 
HETATM   27  C   UNL     1       8.068  32.223  63.420  1.00  0.00     0.012 A 
HETATM   28  C   UNL     1       7.938  31.554  62.196  1.00  0.00     0.030 A 
ENDBRANCH   1  18
TORSDOF 4
ENDMDL
MODEL 7
REMARK VINA RESULT:      -8.8      2.565      9.193
REMARK  4 active torsions:
REMARK  status: ('A' for Active; 'I' for Inactive)
REMARK    1  A    between atoms: C_9  and  N_10 
REMARK       I    between atoms: N_10  and  C_11 
REMARK    2  A    between atoms: C_11  and  C_12 
REMARK    3  A    between atoms: C_14  and  C_15 
REMARK    4  A    between atoms: C_22  and  O_23 
ROOT
HETATM    1  N   UNL     1       6.406  27.757  56.001  1.00  0.00    -0.322 N 
HETATM    2  C   UNL     1       6.323  27.644  54.618  1.00  0.00     0.265 C 
HETATM    3  O   UNL     1       6.181  28.604  53.864  1.00  0.00    -0.267 OA
HETATM    4  H   UNL     1       6.678  26.912  56.489  1.00  0.00     0.169 HD
ENDROOT
BRANCH   2   5
HETATM    5  C   UNL     1       6.447  26.277  54.135  1.00  0.00     0.107 A 
HETATM    6  S   UNL     1       7.571  25.210  54.868  1.00  0.00    -0.081 SA
HETATM    7  C   UNL     1       7.034  23.879  53.935  1.00  0.00     0.018 A 
HETATM    8  C   UNL     1       6.056  24.263  53.037  1.00  0.00     0.058 A 
HETATM    9  C   UNL     1       5.720  25.647  53.144  1.00  0.00     0.092 A 
BRANCH   7  10
HETATM   10  C   UNL     1       7.578  22.539  54.174  1.00  0.00    -0.019 A 
HETATM   11  C   UNL     1       8.012  21.762  53.089  1.00  0.00     0.013 A 
HETATM   12  C   UNL     1       8.532  20.482  53.293  1.00  0.00     0.001 A 
HETATM   13  C   UNL     1       8.631  19.968  54.585  1.00  0.00     0.000 A 
HETATM   14  C   UNL     1       8.210  20.732  55.671  1.00  0.00     0.001 A 
HETATM   15  C   UNL     1       7.686  22.011  55.468  1.00  0.00     0.013 A 
ENDBRANCH   7  10
BRANCH   9  16
HETATM   16  O   UNL     1       4.821  26.358  52.416  1.00  0.00    -0.354 OA
HETATM   17  C   UNL     1       5.172  26.556  51.053  1.00  0.00     0.210 C 
ENDBRANCH   9  16
ENDBRANCH   2   5
BRANCH   1  18
HETATM   18  C   UNL     1       6.206  28.915  56.776  1.00  0.00     0.035 A 
HETATM   19  C   UNL     1       4.940  29.431  57.070  1.00  0.00     0.039 A 
HETATM   20  C   UNL     1       4.842  30.555  57.877  1.00  0.00    -0.022 A 
HETATM   21  C   UNL     1       3.602  31.221  58.359  1.00  0.00     0.274 C 
HETATM   22  C   UNL     1       5.979  31.182  58.388  1.00  0.00    -0.025 A 
HETATM   23  N   UNL     1       4.083  32.460  59.109  1.00  0.00    -0.067 N 
HETATM   24  C   UNL     1       3.376  32.699  60.397  1.00  0.00     0.270 C 
HETATM   25  H   UNL     1       3.910  33.255  58.484  1.00  0.00     0.280 HD
HETATM   26  C   UNL     1       5.599  32.340  59.243  1.00  0.00     0.273 C 
HETATM   27  C   UNL     1       7.242  30.689  58.109  1.00  0.00     0.012 A 
HETATM   28  C   UNL     1       7.348  29.546  57.307  1.00  0.00     0.030 A 
ENDBRANCH   1  18
TORSDOF 4
ENDMDL
MODEL 8
REMARK VINA RESULT:      -8.6      1.927      2.759
REMARK  4 active torsions:
REMARK  status: ('A' for Active; 'I' for Inactive)
REMARK    1  A    between atoms: C_9  and  N_10 
REMARK       I    between atoms: N_10  and  C_11 
REMARK    2  A    between atoms: C_11  and  C_12 
REMARK    3  A    between atoms: C_14  and  C_15 
REMARK    4  A    between atoms: C_22  and  O_23 
ROOT
HETATM    1  N   UNL     1       7.052  28.661  57.561  1.00  0.00    -0.322 N 
HETATM    2  C   UNL     1       7.905  29.708  57.888  1.00  0.00     0.265 C 
HETATM    3  O   UNL     1       9.056  29.805  57.467  1.00  0.00    -0.267 OA
HETATM    4  H   UNL     1       6.088  28.784  57.847  1.00  0.00     0.169 HD
ENDROOT
BRANCH   2   5
HETATM    5  C   UNL     1       7.301  30.705  58.760  1.00  0.00     0.107 A 
HETATM    6  S   UNL     1       7.812  30.834  60.391  1.00  0.00    -0.081 SA
HETATM    7  C   UNL     1       6.843  32.218  60.665  1.00  0.00     0.018 A 
HETATM    8  C   UNL     1       6.097  32.535  59.545  1.00  0.00     0.058 A 
HETATM    9  C   UNL     1       6.354  31.659  58.446  1.00  0.00     0.092 A 
BRANCH   7  10
HETATM   10  C   UNL     1       6.909  32.927  61.947  1.00  0.00    -0.019 A 
HETATM   11  C   UNL     1       7.764  32.459  62.956  1.00  0.00     0.013 A 
HETATM   12  C   UNL     1       7.843  33.117  64.186  1.00  0.00     0.001 A 
HETATM   13  C   UNL     1       7.071  34.255  64.417  1.00  0.00     0.000 A 
HETATM   14  C   UNL     1       6.223  34.734  63.420  1.00  0.00     0.001 A 
HETATM   15  C   UNL     1       6.141  34.075  62.191  1.00  0.00     0.013 A 
ENDBRANCH   7  10
BRANCH   9  16
HETATM   16  O   UNL     1       5.794  31.668  57.209  1.00  0.00    -0.354 OA
HETATM   17  C   UNL     1       4.886  32.734  56.967  1.00  0.00     0.210 C 
ENDBRANCH   9  16
ENDBRANCH   2   5
BRANCH   1  18
HETATM   18  C   UNL     1       7.369  27.493  56.842  1.00  0.00     0.035 A 
HETATM   19  C   UNL     1       7.915  26.352  57.438  1.00  0.00     0.039 A 
HETATM   20  C   UNL     1       8.157  25.234  56.653  1.00  0.00    -0.022 A 
HETATM   21  C   UNL     1       8.670  23.909  57.095  1.00  0.00     0.274 C 
HETATM   22  C   UNL     1       7.876  25.233  55.287  1.00  0.00    -0.025 A 
HETATM   23  N   UNL     1       8.844  23.102  55.811  1.00  0.00    -0.067 N 
HETATM   24  C   UNL     1       8.361  21.699  55.909  1.00  0.00     0.270 C 
HETATM   25  H   UNL     1       9.852  23.093  55.617  1.00  0.00     0.280 HD
HETATM   26  C   UNL     1       8.197  23.908  54.687  1.00  0.00     0.273 C 
HETATM   27  C   UNL     1       7.337  26.352  54.676  1.00  0.00     0.012 A 
HETATM   28  C   UNL     1       7.076  27.479  55.465  1.00  0.00     0.030 A 
ENDBRANCH   1  18
TORSDOF 4
ENDMDL
MODEL 9
REMARK VINA RESULT:      -8.3      2.180      3.030
REMARK  4 active torsions:
REMARK  status: ('A' for Active; 'I' for Inactive)
REMARK    1  A    between atoms: C_9  and  N_10 
REMARK       I    between atoms: N_10  and  C_11 
REMARK    2  A    between atoms: C_11  and  C_12 
REMARK    3  A    between atoms: C_14  and  C_15 
REMARK    4  A    between atoms: C_22  and  O_23 
ROOT
HETATM    1  N   UNL     1       7.441  27.457  56.081  1.00  0.00    -0.322 N 
HETATM    2  C   UNL     1       6.319  27.856  56.799  1.00  0.00     0.265 C 
HETATM    3  O   UNL     1       5.315  27.161  56.934  1.00  0.00    -0.267 OA
HETATM    4  H   UNL     1       8.252  28.055  56.180  1.00  0.00     0.169 HD
ENDROOT
BRANCH   2   5
HETATM    5  C   UNL     1       6.451  29.172  57.406  1.00  0.00     0.107 A 
HETATM    6  S   UNL     1       5.120  30.253  57.398  1.00  0.00    -0.081 SA
HETATM    7  C   UNL     1       5.947  31.400  58.363  1.00  0.00     0.018 A 
HETATM    8  C   UNL     1       7.238  30.986  58.632  1.00  0.00     0.058 A 
HETATM    9  C   UNL     1       7.534  29.705  58.075  1.00  0.00     0.092 A 
BRANCH   7  10
HETATM   10  C   UNL     1       5.261  32.610  58.827  1.00  0.00    -0.019 A 
HETATM   11  C   UNL     1       5.113  32.839  60.204  1.00  0.00     0.013 A 
HETATM   12  C   UNL     1       4.463  33.984  60.669  1.00  0.00     0.001 A 
HETATM   13  C   UNL     1       3.959  34.915  59.763  1.00  0.00     0.000 A 
HETATM   14  C   UNL     1       4.105  34.703  58.394  1.00  0.00     0.001 A 
HETATM   15  C   UNL     1       4.753  33.556  57.927  1.00  0.00     0.013 A 
ENDBRANCH   7  10
BRANCH   9  16
HETATM   16  O   UNL     1       8.698  29.007  58.130  1.00  0.00    -0.354 OA
HETATM   17  C   UNL     1       9.829  29.679  57.592  1.00  0.00     0.210 C 
ENDBRANCH   9  16
ENDBRANCH   2   5
BRANCH   1  18
HETATM   18  C   UNL     1       7.580  26.302  55.288  1.00  0.00     0.035 A 
HETATM   19  C   UNL     1       8.028  25.077  55.792  1.00  0.00     0.039 A 
HETATM   20  C   UNL     1       8.094  23.984  54.940  1.00  0.00    -0.022 A 
HETATM   21  C   UNL     1       8.479  22.588  55.284  1.00  0.00     0.274 C 
HETATM   22  C   UNL     1       7.734  24.088  53.597  1.00  0.00    -0.025 A 
HETATM   23  N   UNL     1       8.484  21.839  53.955  1.00  0.00    -0.067 N 
HETATM   24  C   UNL     1       7.851  20.494  54.017  1.00  0.00     0.270 C 
HETATM   25  H   UNL     1       9.471  21.730  53.695  1.00  0.00     0.280 HD
HETATM   26  C   UNL     1       7.866  22.771  52.916  1.00  0.00     0.273 C 
HETATM   27  C   UNL     1       7.289  25.291  53.077  1.00  0.00     0.012 A 
HETATM   28  C   UNL     1       7.205  26.396  53.934  1.00  0.00     0.030 A 
ENDBRANCH   1  18
TORSDOF 4
ENDMDL
MODEL 10
REMARK VINA RESULT:      -8.1      2.598      3.899
REMARK  4 active torsions:
REMARK  status: ('A' for Active; 'I' for Inactive)
REMARK    1  A    between atoms: C_9  and  N_10 
REMARK       I    between atoms: N_10  and  C_11 
REMARK    2  A    between atoms: C_11  and  C_12 
REMARK    3  A    between atoms: C_14  and  C_15 
REMARK    4  A    between atoms: C_22  and  O_23 
ROOT
HETATM    1  N   UNL     1       7.155  28.516  57.643  1.00  0.00    -0.322 N 
HETATM    2  C   UNL     1       8.073  29.538  57.857  1.00  0.00     0.265 C 
HETATM    3  O   UNL     1       9.166  29.598  57.298  1.00  0.00    -0.267 OA
HETATM    4  H   UNL     1       6.237  28.669  58.044  1.00  0.00     0.169 HD
ENDROOT
BRANCH   2   5
HETATM    5  C   UNL     1       7.611  30.554  58.790  1.00  0.00     0.107 A 
HETATM    6  S   UNL     1       6.297  31.570  58.366  1.00  0.00    -0.081 SA
HETATM    7  C   UNL     1       6.261  32.300  59.913  1.00  0.00     0.018 A 
HETATM    8  C   UNL     1       7.277  31.817  60.716  1.00  0.00     0.058 A 
HETATM    9  C   UNL     1       8.063  30.815  60.069  1.00  0.00     0.092 A 
BRANCH   7  10
HETATM   10  C   UNL     1       5.214  33.269  60.251  1.00  0.00    -0.019 A 
HETATM   11  C   UNL     1       4.230  33.587  59.303  1.00  0.00     0.013 A 
HETATM   12  C   UNL     1       3.223  34.508  59.602  1.00  0.00     0.001 A 
HETATM   13  C   UNL     1       3.186  35.115  60.856  1.00  0.00     0.000 A 
HETATM   14  C   UNL     1       4.152  34.802  61.809  1.00  0.00     0.001 A 
HETATM   15  C   UNL     1       5.162  33.884  61.510  1.00  0.00     0.013 A 
ENDBRANCH   7  10
BRANCH   9  16
HETATM   16  O   UNL     1       9.138  30.141  60.551  1.00  0.00    -0.354 OA
HETATM   17  C   UNL     1       9.486  30.445  61.896  1.00  0.00     0.210 C 
ENDBRANCH   9  16
ENDBRANCH   2   5
BRANCH   1  18
HETATM   18  C   UNL     1       7.347  27.338  56.897  1.00  0.00     0.035 A 
HETATM   19  C   UNL     1       7.896  26.171  57.437  1.00  0.00     0.039 A 
HETATM   20  C   UNL     1       8.008  25.046  56.634  1.00  0.00    -0.022 A 
HETATM   21  C   UNL     1       8.501  23.697  57.024  1.00  0.00     0.274 C 
HETATM   22  C   UNL     1       7.595  25.062  55.302  1.00  0.00    -0.025 A 
HETATM   23  N   UNL     1       8.511  22.888  55.730  1.00  0.00    -0.067 N 
HETATM   24  C   UNL     1       7.976  21.508  55.876  1.00  0.00     0.270 C 
HETATM   25  H   UNL     1       9.494  22.834  55.438  1.00  0.00     0.280 HD
HETATM   26  C   UNL     1       7.794  23.727  54.675  1.00  0.00     0.273 C 
HETATM   27  C   UNL     1       7.049  26.207  54.746  1.00  0.00     0.012 A 
HETATM   28  C   UNL     1       6.919  27.342  55.556  1.00  0.00     0.030 A 
ENDBRANCH   1  18
TORSDOF 4
ENDMDL
