MODEL 1
REMARK VINA RESULT:     -10.5      0.000      0.000
REMARK  10 active torsions:
REMARK  status: ('A' for Active; 'I' for Inactive)
REMARK    1  A    between atoms: C_2  and  C_3 
REMARK    2  A    between atoms: C_3  and  O_4 
REMARK    3  A    between atoms: O_4  and  C_5 
REMARK    4  A    between atoms: C_7  and  C_8 
REMARK       I    between atoms: C_8  and  N_9 
REMARK    5  A    between atoms: N_9  and  C_10 
REMARK    6  A    between atoms: C_10  and  N_11 
REMARK    7  A    between atoms: N_11  and  C_12 
REMARK    8  A    between atoms: C_15  and  N_16 
REMARK    9  A    between atoms: N_19  and  C_21 
REMARK   10  A    between atoms: C_21  and  C_22 
ROOT
HETATM    1  C   UNL     1       6.679  29.911  57.853  1.00  0.00     0.034 A 
HETATM    2  C   UNL     1       5.364  29.832  57.395  1.00  0.00     0.032 A 
HETATM    3  C   UNL     1       4.922  28.727  56.652  1.00  0.00     0.031 A 
HETATM    4  C   UNL     1       5.755  27.639  56.355  1.00  0.00     0.030 A 
HETATM    5  C   UNL     1       7.073  27.740  56.838  1.00  0.00     0.031 A 
HETATM    6  C   UNL     1       7.533  28.856  57.568  1.00  0.00     0.032 A 
ENDROOT
BRANCH   1   7
HETATM    7  N   UNL     1       7.060  31.127  58.459  1.00  0.00    -0.333 N 
HETATM    8  H   UNL     1       7.097  31.906  57.809  1.00  0.00     0.168 HD
BRANCH   7   9
HETATM    9  C   UNL     1       7.790  31.368  59.564  1.00  0.00     0.179 C 
HETATM   10  S   UNL     1       9.403  31.782  59.364  1.00  0.00    -0.040 SA
BRANCH   9  11
HETATM   11  N   UNL     1       7.306  31.369  60.830  1.00  0.00    -0.299 N 
HETATM   12  C   UNL     1       6.224  32.105  61.308  1.00  0.00     0.257 C 
HETATM   13  O   UNL     1       5.175  32.310  60.707  1.00  0.00    -0.267 OA
HETATM   14  H   UNL     1       8.099  31.339  61.456  1.00  0.00     0.171 HD
BRANCH  12  15
HETATM   15  C   UNL     1       6.378  32.649  62.698  1.00  0.00     0.035 A 
HETATM   16  C   UNL     1       5.292  32.960  63.527  1.00  0.00     0.053 A 
HETATM   17  C   UNL     1       5.491  33.393  64.844  1.00  0.00     0.069 A 
HETATM   18  C   UNL     1       6.788  33.541  65.331  1.00  0.00     0.037 A 
HETATM   19  C   UNL     1       7.880  33.263  64.505  1.00  0.00     0.004 A 
HETATM   20  C   UNL     1       7.678  32.819  63.195  1.00  0.00     0.017 A 
BRANCH  17  21
HETATM   21  O   UNL     1       4.336  33.620  65.541  1.00  0.00    -0.351 OA
BRANCH  21  22
HETATM   22  C   UNL     1       3.369  34.497  64.956  1.00  0.00     0.179 C 
BRANCH  22  23
HETATM   23  C   UNL     1       3.634  35.922  65.467  1.00  0.00     0.002 C 
HETATM   24  C   UNL     1       4.495  36.701  64.475  1.00  0.00     0.011 C 
HETATM   25  C   UNL     1       4.302  35.902  66.844  1.00  0.00     0.011 C 
ENDBRANCH  22  23
ENDBRANCH  21  22
ENDBRANCH  17  21
ENDBRANCH  12  15
ENDBRANCH   9  11
ENDBRANCH   7   9
ENDBRANCH   1   7
BRANCH   4  26
HETATM   26  N   UNL     1       5.304  26.579  55.566  1.00  0.00    -0.378 N 
HETATM   27  C   UNL     1       5.517  25.191  56.031  1.00  0.00     0.150 C 
HETATM   28  C   UNL     1       6.837  24.632  55.458  1.00  0.00     0.255 C 
HETATM   29  N   UNL     1       6.841  24.733  53.928  1.00  0.00    -0.064 N 
HETATM   30  H   UNL     1       6.063  24.152  53.594  1.00  0.00     0.280 HD
HETATM   31  C   UNL     1       6.566  26.169  53.472  1.00  0.00     0.255 C 
HETATM   32  C   UNL     1       5.254  26.689  54.097  1.00  0.00     0.150 C 
BRANCH  29  33
HETATM   33  C   UNL     1       8.100  24.178  53.312  1.00  0.00     0.273 C 
BRANCH  33  34
HETATM   34  C   UNL     1       8.336  22.737  53.678  1.00  0.00    -0.033 A 
HETATM   35  C   UNL     1       7.829  21.706  52.870  1.00  0.00     0.009 A 
HETATM   36  C   UNL     1       8.018  20.371  53.227  1.00  0.00     0.001 A 
HETATM   37  C   UNL     1       8.712  20.051  54.392  1.00  0.00     0.000 A 
HETATM   38  C   UNL     1       9.221  21.064  55.201  1.00  0.00     0.001 A 
HETATM   39  C   UNL     1       9.037  22.402  54.846  1.00  0.00     0.009 A 
ENDBRANCH  33  34
ENDBRANCH  29  33
ENDBRANCH   4  26
TORSDOF 10
ENDMDL
MODEL 2
REMARK VINA RESULT:     -10.2      1.735      2.222
REMARK  10 active torsions:
REMARK  status: ('A' for Active; 'I' for Inactive)
REMARK    1  A    between atoms: C_2  and  C_3 
REMARK    2  A    between atoms: C_3  and  O_4 
REMARK    3  A    between atoms: O_4  and  C_5 
REMARK    4  A    between atoms: C_7  and  C_8 
REMARK       I    between atoms: C_8  and  N_9 
REMARK    5  A    between atoms: N_9  and  C_10 
REMARK    6  A    between atoms: C_10  and  N_11 
REMARK    7  A    between atoms: N_11  and  C_12 
REMARK    8  A    between atoms: C_15  and  N_16 
REMARK    9  A    between atoms: N_19  and  C_21 
REMARK   10  A    between atoms: C_21  and  C_22 
ROOT
HETATM    1  C   UNL     1       4.645  30.463  57.599  1.00  0.00     0.034 A 
HETATM    2  C   UNL     1       5.993  30.115  57.524  1.00  0.00     0.032 A 
HETATM    3  C   UNL     1       6.458  29.229  56.540  1.00  0.00     0.031 A 
HETATM    4  C   UNL     1       5.613  28.674  55.569  1.00  0.00     0.030 A 
HETATM    5  C   UNL     1       4.261  29.050  55.661  1.00  0.00     0.031 A 
HETATM    6  C   UNL     1       3.780  29.923  56.659  1.00  0.00     0.032 A 
ENDROOT
BRANCH   1   7
HETATM    7  N   UNL     1       4.259  31.238  58.712  1.00  0.00    -0.333 N 
HETATM    8  H   UNL     1       3.525  30.808  59.267  1.00  0.00     0.168 HD
BRANCH   7   9
HETATM    9  C   UNL     1       4.328  32.565  58.926  1.00  0.00     0.179 C 
HETATM   10  S   UNL     1       3.427  33.569  57.929  1.00  0.00    -0.040 SA
BRANCH   9  11
HETATM   11  N   UNL     1       5.019  33.155  59.931  1.00  0.00    -0.299 N 
HETATM   12  C   UNL     1       6.293  32.812  60.380  1.00  0.00     0.257 C 
HETATM   13  O   UNL     1       7.238  32.484  59.671  1.00  0.00    -0.267 OA
HETATM   14  H   UNL     1       4.360  33.364  60.669  1.00  0.00     0.171 HD
BRANCH  12  15
HETATM   15  C   UNL     1       6.499  32.899  61.864  1.00  0.00     0.035 A 
HETATM   16  C   UNL     1       5.445  33.032  62.780  1.00  0.00     0.053 A 
HETATM   17  C   UNL     1       5.685  33.032  64.159  1.00  0.00     0.069 A 
HETATM   18  C   UNL     1       6.992  32.924  64.630  1.00  0.00     0.037 A 
HETATM   19  C   UNL     1       8.054  32.822  63.727  1.00  0.00     0.004 A 
HETATM   20  C   UNL     1       7.810  32.809  62.351  1.00  0.00     0.017 A 
BRANCH  17  21
HETATM   21  O   UNL     1       4.557  33.129  64.925  1.00  0.00    -0.351 OA
BRANCH  21  22
HETATM   22  C   UNL     1       3.756  34.306  64.780  1.00  0.00     0.179 C 
BRANCH  22  23
HETATM   23  C   UNL     1       4.560  35.508  65.300  1.00  0.00     0.002 C 
HETATM   24  C   UNL     1       4.093  35.908  66.698  1.00  0.00     0.011 C 
HETATM   25  C   UNL     1       4.455  36.701  64.347  1.00  0.00     0.011 C 
ENDBRANCH  22  23
ENDBRANCH  21  22
ENDBRANCH  17  21
ENDBRANCH  12  15
ENDBRANCH   9  11
ENDBRANCH   7   9
ENDBRANCH   1   7
BRANCH   4  26
HETATM   26  N   UNL     1       6.094  27.753  54.636  1.00  0.00    -0.378 N 
HETATM   27  C   UNL     1       5.202  26.672  54.162  1.00  0.00     0.150 C 
HETATM   28  C   UNL     1       5.389  25.406  55.026  1.00  0.00     0.255 C 
HETATM   29  N   UNL     1       6.860  24.976  55.033  1.00  0.00    -0.064 N 
HETATM   30  H   UNL     1       7.104  24.751  54.061  1.00  0.00     0.280 HD
HETATM   31  C   UNL     1       7.767  26.128  55.477  1.00  0.00     0.255 C 
HETATM   32  C   UNL     1       7.518  27.375  54.601  1.00  0.00     0.150 C 
BRANCH  29  33
HETATM   33  C   UNL     1       7.097  23.727  55.845  1.00  0.00     0.273 C 
BRANCH  33  34
HETATM   34  C   UNL     1       7.556  22.569  55.002  1.00  0.00    -0.033 A 
HETATM   35  C   UNL     1       7.680  22.707  53.610  1.00  0.00     0.009 A 
HETATM   36  C   UNL     1       8.074  21.623  52.824  1.00  0.00     0.001 A 
HETATM   37  C   UNL     1       8.345  20.392  53.418  1.00  0.00     0.000 A 
HETATM   38  C   UNL     1       8.228  20.243  54.798  1.00  0.00     0.001 A 
HETATM   39  C   UNL     1       7.838  21.325  55.588  1.00  0.00     0.009 A 
ENDBRANCH  33  34
ENDBRANCH  29  33
ENDBRANCH   4  26
TORSDOF 10
ENDMDL
MODEL 3
REMARK VINA RESULT:      -9.7      1.569      1.997
REMARK  10 active torsions:
REMARK  status: ('A' for Active; 'I' for Inactive)
REMARK    1  A    between atoms: C_2  and  C_3 
REMARK    2  A    between atoms: C_3  and  O_4 
REMARK    3  A    between atoms: O_4  and  C_5 
REMARK    4  A    between atoms: C_7  and  C_8 
REMARK       I    between atoms: C_8  and  N_9 
REMARK    5  A    between atoms: N_9  and  C_10 
REMARK    6  A    between atoms: C_10  and  N_11 
REMARK    7  A    between atoms: N_11  and  C_12 
REMARK    8  A    between atoms: C_15  and  N_16 
REMARK    9  A    between atoms: N_19  and  C_21 
REMARK   10  A    between atoms: C_21  and  C_22 
ROOT
HETATM    1  C   UNL     1       6.627  29.269  57.372  1.00  0.00     0.034 A 
HETATM    2  C   UNL     1       5.459  28.507  57.351  1.00  0.00     0.032 A 
HETATM    3  C   UNL     1       5.139  27.706  56.244  1.00  0.00     0.031 A 
HETATM    4  C   UNL     1       5.975  27.602  55.124  1.00  0.00     0.030 A 
HETATM    5  C   UNL     1       7.152  28.371  55.177  1.00  0.00     0.031 A 
HETATM    6  C   UNL     1       7.473  29.196  56.275  1.00  0.00     0.032 A 
ENDROOT
BRANCH   1   7
HETATM    7  N   UNL     1       6.781  30.150  58.463  1.00  0.00    -0.333 N 
HETATM    8  H   UNL     1       6.851  29.675  59.357  1.00  0.00     0.168 HD
BRANCH   7   9
HETATM    9  C   UNL     1       6.414  31.437  58.612  1.00  0.00     0.179 C 
HETATM   10  S   UNL     1       5.409  32.106  57.448  1.00  0.00    -0.040 SA
BRANCH   9  11
HETATM   11  N   UNL     1       6.738  32.219  59.670  1.00  0.00    -0.299 N 
HETATM   12  C   UNL     1       7.535  31.863  60.757  1.00  0.00     0.257 C 
HETATM   13  O   UNL     1       8.555  31.186  60.706  1.00  0.00    -0.267 OA
HETATM   14  H   UNL     1       5.915  32.753  59.914  1.00  0.00     0.171 HD
BRANCH  12  15
HETATM   15  C   UNL     1       7.092  32.406  62.085  1.00  0.00     0.035 A 
HETATM   16  C   UNL     1       5.751  32.658  62.403  1.00  0.00     0.053 A 
HETATM   17  C   UNL     1       5.384  33.093  63.683  1.00  0.00     0.069 A 
HETATM   18  C   UNL     1       6.368  33.300  64.648  1.00  0.00     0.037 A 
HETATM   19  C   UNL     1       7.712  33.082  64.333  1.00  0.00     0.004 A 
HETATM   20  C   UNL     1       8.073  32.636  63.059  1.00  0.00     0.017 A 
BRANCH  17  21
HETATM   21  O   UNL     1       4.037  33.258  63.855  1.00  0.00    -0.351 OA
BRANCH  21  22
HETATM   22  C   UNL     1       3.580  34.533  64.319  1.00  0.00     0.179 C 
BRANCH  22  23
HETATM   23  C   UNL     1       3.002  35.306  63.123  1.00  0.00     0.002 C 
HETATM   24  C   UNL     1       2.318  34.354  62.144  1.00  0.00     0.011 C 
HETATM   25  C   UNL     1       4.089  36.110  62.405  1.00  0.00     0.011 C 
ENDBRANCH  22  23
ENDBRANCH  21  22
ENDBRANCH  17  21
ENDBRANCH  12  15
ENDBRANCH   9  11
ENDBRANCH   7   9
ENDBRANCH   1   7
BRANCH   4  26
HETATM   26  N   UNL     1       5.603  26.840  54.014  1.00  0.00    -0.378 N 
HETATM   27  C   UNL     1       5.120  25.456  54.217  1.00  0.00     0.150 C 
HETATM   28  C   UNL     1       6.292  24.458  54.105  1.00  0.00     0.255 C 
HETATM   29  N   UNL     1       7.010  24.625  52.761  1.00  0.00    -0.064 N 
HETATM   30  H   UNL     1       6.321  24.408  52.031  1.00  0.00     0.280 HD
HETATM   31  C   UNL     1       7.454  26.076  52.552  1.00  0.00     0.255 C 
HETATM   32  C   UNL     1       6.252  27.033  52.705  1.00  0.00     0.150 C 
BRANCH  29  33
HETATM   33  C   UNL     1       8.152  23.656  52.587  1.00  0.00     0.273 C 
BRANCH  33  34
HETATM   34  C   UNL     1       8.211  22.630  53.686  1.00  0.00    -0.033 A 
HETATM   35  C   UNL     1       8.726  22.968  54.948  1.00  0.00     0.009 A 
HETATM   36  C   UNL     1       8.812  22.008  55.957  1.00  0.00     0.001 A 
HETATM   37  C   UNL     1       8.388  20.703  55.717  1.00  0.00     0.000 A 
HETATM   38  C   UNL     1       7.875  20.355  54.470  1.00  0.00     0.001 A 
HETATM   39  C   UNL     1       7.783  21.313  53.459  1.00  0.00     0.009 A 
ENDBRANCH  33  34
ENDBRANCH  29  33
ENDBRANCH   4  26
TORSDOF 10
ENDMDL
MODEL 4
REMARK VINA RESULT:      -9.6      2.158      3.389
REMARK  10 active torsions:
REMARK  status: ('A' for Active; 'I' for Inactive)
REMARK    1  A    between atoms: C_2  and  C_3 
REMARK    2  A    between atoms: C_3  and  O_4 
REMARK    3  A    between atoms: O_4  and  C_5 
REMARK    4  A    between atoms: C_7  and  C_8 
REMARK       I    between atoms: C_8  and  N_9 
REMARK    5  A    between atoms: N_9  and  C_10 
REMARK    6  A    between atoms: C_10  and  N_11 
REMARK    7  A    between atoms: N_11  and  C_12 
REMARK    8  A    between atoms: C_15  and  N_16 
REMARK    9  A    between atoms: N_19  and  C_21 
REMARK   10  A    between atoms: C_21  and  C_22 
ROOT
HETATM    1  C   UNL     1       6.927  31.653  59.543  1.00  0.00     0.034 A 
HETATM    2  C   UNL     1       5.781  31.710  58.750  1.00  0.00     0.032 A 
HETATM    3  C   UNL     1       5.655  30.911  57.603  1.00  0.00     0.031 A 
HETATM    4  C   UNL     1       6.645  30.001  57.208  1.00  0.00     0.030 A 
HETATM    5  C   UNL     1       7.785  29.957  58.031  1.00  0.00     0.031 A 
HETATM    6  C   UNL     1       7.931  30.770  59.175  1.00  0.00     0.032 A 
ENDROOT
BRANCH   1   7
HETATM    7  N   UNL     1       7.016  32.601  60.584  1.00  0.00    -0.333 N 
HETATM    8  H   UNL     1       7.574  33.414  60.341  1.00  0.00     0.168 HD
BRANCH   7   9
HETATM    9  C   UNL     1       6.908  32.455  61.917  1.00  0.00     0.179 C 
HETATM   10  S   UNL     1       8.113  31.603  62.714  1.00  0.00    -0.040 SA
BRANCH   9  11
HETATM   11  N   UNL     1       5.932  33.002  62.682  1.00  0.00    -0.299 N 
HETATM   12  C   UNL     1       5.774  34.352  62.992  1.00  0.00     0.257 C 
HETATM   13  O   UNL     1       5.958  35.290  62.224  1.00  0.00    -0.267 OA
HETATM   14  H   UNL     1       5.769  32.375  63.458  1.00  0.00     0.171 HD
BRANCH  12  15
HETATM   15  C   UNL     1       5.303  34.642  64.387  1.00  0.00     0.035 A 
HETATM   16  C   UNL     1       6.029  34.290  65.533  1.00  0.00     0.053 A 
HETATM   17  C   UNL     1       5.581  34.651  66.809  1.00  0.00     0.069 A 
HETATM   18  C   UNL     1       4.383  35.350  66.946  1.00  0.00     0.037 A 
HETATM   19  C   UNL     1       3.634  35.679  65.814  1.00  0.00     0.004 A 
HETATM   20  C   UNL     1       4.090  35.329  64.540  1.00  0.00     0.017 A 
BRANCH  17  21
HETATM   21  O   UNL     1       6.415  34.273  67.825  1.00  0.00    -0.351 OA
BRANCH  21  22
HETATM   22  C   UNL     1       5.901  34.322  69.159  1.00  0.00     0.179 C 
BRANCH  22  23
HETATM   23  C   UNL     1       6.820  35.220  70.001  1.00  0.00     0.002 C 
HETATM   24  C   UNL     1       8.288  34.886  69.743  1.00  0.00     0.011 C 
HETATM   25  C   UNL     1       6.505  35.094  71.494  1.00  0.00     0.011 C 
ENDBRANCH  22  23
ENDBRANCH  21  22
ENDBRANCH  17  21
ENDBRANCH  12  15
ENDBRANCH   9  11
ENDBRANCH   7   9
ENDBRANCH   1   7
BRANCH   4  26
HETATM   26  N   UNL     1       6.516  29.260  56.032  1.00  0.00    -0.378 N 
HETATM   27  C   UNL     1       5.228  28.599  55.732  1.00  0.00     0.150 C 
HETATM   28  C   UNL     1       5.233  27.149  56.263  1.00  0.00     0.255 C 
HETATM   29  N   UNL     1       6.424  26.374  55.688  1.00  0.00    -0.064 N 
HETATM   30  H   UNL     1       6.296  26.352  54.670  1.00  0.00     0.280 HD
HETATM   31  C   UNL     1       7.741  27.106  55.966  1.00  0.00     0.255 C 
HETATM   32  C   UNL     1       7.670  28.556  55.444  1.00  0.00     0.150 C 
BRANCH  29  33
HETATM   33  C   UNL     1       6.466  24.941  56.156  1.00  0.00     0.273 C 
BRANCH  33  34
HETATM   34  C   UNL     1       7.018  24.009  55.112  1.00  0.00    -0.033 A 
HETATM   35  C   UNL     1       7.124  24.421  53.774  1.00  0.00     0.009 A 
HETATM   36  C   UNL     1       7.605  23.545  52.800  1.00  0.00     0.001 A 
HETATM   37  C   UNL     1       7.982  22.250  53.150  1.00  0.00     0.000 A 
HETATM   38  C   UNL     1       7.883  21.830  54.474  1.00  0.00     0.001 A 
HETATM   39  C   UNL     1       7.406  22.703  55.453  1.00  0.00     0.009 A 
ENDBRANCH  33  34
ENDBRANCH  29  33
ENDBRANCH   4  26
TORSDOF 10
ENDMDL
MODEL 5
REMARK VINA RESULT:      -9.6      2.744      4.211
REMARK  10 active torsions:
REMARK  status: ('A' for Active; 'I' for Inactive)
REMARK    1  A    between atoms: C_2  and  C_3 
REMARK    2  A    between atoms: C_3  and  O_4 
REMARK    3  A    between atoms: O_4  and  C_5 
REMARK    4  A    between atoms: C_7  and  C_8 
REMARK       I    between atoms: C_8  and  N_9 
REMARK    5  A    between atoms: N_9  and  C_10 
REMARK    6  A    between atoms: C_10  and  N_11 
REMARK    7  A    between atoms: N_11  and  C_12 
REMARK    8  A    between atoms: C_15  and  N_16 
REMARK    9  A    between atoms: N_19  and  C_21 
REMARK   10  A    between atoms: C_21  and  C_22 
ROOT
HETATM    1  C   UNL     1       7.155  31.880  60.214  1.00  0.00     0.034 A 
HETATM    2  C   UNL     1       6.370  32.066  59.077  1.00  0.00     0.032 A 
HETATM    3  C   UNL     1       6.559  31.279  57.931  1.00  0.00     0.031 A 
HETATM    4  C   UNL     1       7.513  30.254  57.872  1.00  0.00     0.030 A 
HETATM    5  C   UNL     1       8.284  30.081  59.036  1.00  0.00     0.031 A 
HETATM    6  C   UNL     1       8.116  30.881  60.186  1.00  0.00     0.032 A 
ENDROOT
BRANCH   1   7
HETATM    7  N   UNL     1       6.986  32.819  61.254  1.00  0.00    -0.333 N 
HETATM    8  H   UNL     1       7.864  33.155  61.638  1.00  0.00     0.168 HD
BRANCH   7   9
HETATM    9  C   UNL     1       5.965  33.009  62.109  1.00  0.00     0.179 C 
HETATM   10  S   UNL     1       4.534  32.185  61.818  1.00  0.00    -0.040 SA
BRANCH   9  11
HETATM   11  N   UNL     1       6.022  33.767  63.231  1.00  0.00    -0.299 N 
HETATM   12  C   UNL     1       6.848  33.559  64.335  1.00  0.00     0.257 C 
HETATM   13  O   UNL     1       8.017  33.193  64.296  1.00  0.00    -0.267 OA
HETATM   14  H   UNL     1       5.076  34.034  63.463  1.00  0.00     0.171 HD
BRANCH  12  15
HETATM   15  C   UNL     1       6.226  33.856  65.669  1.00  0.00     0.035 A 
HETATM   16  C   UNL     1       6.971  34.210  66.802  1.00  0.00     0.053 A 
HETATM   17  C   UNL     1       6.337  34.551  68.003  1.00  0.00     0.069 A 
HETATM   18  C   UNL     1       4.946  34.514  68.082  1.00  0.00     0.037 A 
HETATM   19  C   UNL     1       4.194  34.132  66.968  1.00  0.00     0.004 A 
HETATM   20  C   UNL     1       4.829  33.805  65.767  1.00  0.00     0.017 A 
BRANCH  17  21
HETATM   21  O   UNL     1       7.193  34.912  69.007  1.00  0.00    -0.351 OA
BRANCH  21  22
HETATM   22  C   UNL     1       6.711  34.827  70.352  1.00  0.00     0.179 C 
BRANCH  22  23
HETATM   23  C   UNL     1       7.194  33.500  70.958  1.00  0.00     0.002 C 
HETATM   24  C   UNL     1       6.063  32.810  71.717  1.00  0.00     0.011 C 
HETATM   25  C   UNL     1       8.396  33.716  71.881  1.00  0.00     0.011 C 
ENDBRANCH  22  23
ENDBRANCH  21  22
ENDBRANCH  17  21
ENDBRANCH  12  15
ENDBRANCH   9  11
ENDBRANCH   7   9
ENDBRANCH   1   7
BRANCH   4  26
HETATM   26  N   UNL     1       7.716  29.524  56.699  1.00  0.00    -0.378 N 
HETATM   27  C   UNL     1       6.552  29.167  55.860  1.00  0.00     0.150 C 
HETATM   28  C   UNL     1       6.017  27.773  56.252  1.00  0.00     0.255 C 
HETATM   29  N   UNL     1       7.134  26.727  56.160  1.00  0.00    -0.064 N 
HETATM   30  H   UNL     1       7.432  26.701  55.179  1.00  0.00     0.280 HD
HETATM   31  C   UNL     1       8.347  27.145  56.996  1.00  0.00     0.255 C 
HETATM   32  C   UNL     1       8.822  28.555  56.585  1.00  0.00     0.150 C 
BRANCH  29  33
HETATM   33  C   UNL     1       6.660  25.339  56.511  1.00  0.00     0.273 C 
BRANCH  33  34
HETATM   34  C   UNL     1       7.214  24.289  55.587  1.00  0.00    -0.033 A 
HETATM   35  C   UNL     1       8.197  23.392  56.036  1.00  0.00     0.009 A 
HETATM   36  C   UNL     1       8.735  22.440  55.170  1.00  0.00     0.001 A 
HETATM   37  C   UNL     1       8.301  22.374  53.848  1.00  0.00     0.000 A 
HETATM   38  C   UNL     1       7.325  23.256  53.390  1.00  0.00     0.001 A 
HETATM   39  C   UNL     1       6.781  24.208  54.254  1.00  0.00     0.009 A 
ENDBRANCH  33  34
ENDBRANCH  29  33
ENDBRANCH   4  26
TORSDOF 10
ENDMDL
MODEL 6
REMARK VINA RESULT:      -9.5      2.834      5.022
REMARK  10 active torsions:
REMARK  status: ('A' for Active; 'I' for Inactive)
REMARK    1  A    between atoms: C_2  and  C_3 
REMARK    2  A    between atoms: C_3  and  O_4 
REMARK    3  A    between atoms: O_4  and  C_5 
REMARK    4  A    between atoms: C_7  and  C_8 
REMARK       I    between atoms: C_8  and  N_9 
REMARK    5  A    between atoms: N_9  and  C_10 
REMARK    6  A    between atoms: C_10  and  N_11 
REMARK    7  A    between atoms: N_11  and  C_12 
REMARK    8  A    between atoms: C_15  and  N_16 
REMARK    9  A    between atoms: N_19  and  C_21 
REMARK   10  A    between atoms: C_21  and  C_22 
ROOT
HETATM    1  C   UNL     1       4.619  31.706  56.430  1.00  0.00     0.034 A 
HETATM    2  C   UNL     1       3.743  31.331  55.412  1.00  0.00     0.032 A 
HETATM    3  C   UNL     1       4.004  30.208  54.612  1.00  0.00     0.031 A 
HETATM    4  C   UNL     1       5.127  29.391  54.806  1.00  0.00     0.030 A 
HETATM    5  C   UNL     1       5.987  29.787  55.846  1.00  0.00     0.031 A 
HETATM    6  C   UNL     1       5.745  30.926  56.642  1.00  0.00     0.032 A 
ENDROOT
BRANCH   1   7
HETATM    7  N   UNL     1       4.342  32.931  57.074  1.00  0.00    -0.333 N 
HETATM    8  H   UNL     1       4.709  33.738  56.579  1.00  0.00     0.168 HD
BRANCH   7   9
HETATM    9  C   UNL     1       4.108  33.210  58.370  1.00  0.00     0.179 C 
HETATM   10  S   UNL     1       2.922  34.341  58.727  1.00  0.00    -0.040 SA
BRANCH   9  11
HETATM   11  N   UNL     1       4.710  32.597  59.418  1.00  0.00    -0.299 N 
HETATM   12  C   UNL     1       5.431  33.212  60.441  1.00  0.00     0.257 C 
HETATM   13  O   UNL     1       5.142  34.272  60.984  1.00  0.00    -0.267 OA
HETATM   14  H   UNL     1       5.124  31.743  59.072  1.00  0.00     0.171 HD
BRANCH  12  15
HETATM   15  C   UNL     1       6.642  32.463  60.916  1.00  0.00     0.035 A 
HETATM   16  C   UNL     1       7.370  31.585  60.101  1.00  0.00     0.053 A 
HETATM   17  C   UNL     1       8.537  30.968  60.570  1.00  0.00     0.069 A 
HETATM   18  C   UNL     1       8.967  31.211  61.873  1.00  0.00     0.037 A 
HETATM   19  C   UNL     1       8.233  32.060  62.704  1.00  0.00     0.004 A 
HETATM   20  C   UNL     1       7.076  32.683  62.230  1.00  0.00     0.017 A 
BRANCH  17  21
HETATM   21  O   UNL     1       9.159  30.171  59.650  1.00  0.00    -0.351 OA
BRANCH  21  22
HETATM   22  C   UNL     1       9.797  30.812  58.540  1.00  0.00     0.179 C 
BRANCH  22  23
HETATM   23  C   UNL     1       9.628  29.919  57.301  1.00  0.00     0.002 C 
HETATM   24  C   UNL     1       8.777  28.694  57.629  1.00  0.00     0.011 C 
HETATM   25  C   UNL     1      10.985  29.485  56.741  1.00  0.00     0.011 C 
ENDBRANCH  22  23
ENDBRANCH  21  22
ENDBRANCH  17  21
ENDBRANCH  12  15
ENDBRANCH   9  11
ENDBRANCH   7   9
ENDBRANCH   1   7
BRANCH   4  26
HETATM   26  N   UNL     1       5.389  28.312  53.959  1.00  0.00    -0.378 N 
HETATM   27  C   UNL     1       4.668  27.038  54.168  1.00  0.00     0.150 C 
HETATM   28  C   UNL     1       5.486  26.103  55.083  1.00  0.00     0.255 C 
HETATM   29  N   UNL     1       6.888  25.881  54.503  1.00  0.00    -0.064 N 
HETATM   30  H   UNL     1       6.760  25.423  53.594  1.00  0.00     0.280 HD
HETATM   31  C   UNL     1       7.594  27.216  54.248  1.00  0.00     0.255 C 
HETATM   32  C   UNL     1       6.721  28.123  53.355  1.00  0.00     0.150 C 
BRANCH  29  33
HETATM   33  C   UNL     1       7.725  24.953  55.347  1.00  0.00     0.273 C 
BRANCH  33  34
HETATM   34  C   UNL     1       7.757  23.550  54.806  1.00  0.00    -0.033 A 
HETATM   35  C   UNL     1       7.758  22.450  55.679  1.00  0.00     0.009 A 
HETATM   36  C   UNL     1       7.821  21.149  55.178  1.00  0.00     0.001 A 
HETATM   37  C   UNL     1       7.886  20.933  53.804  1.00  0.00     0.000 A 
HETATM   38  C   UNL     1       7.885  22.015  52.927  1.00  0.00     0.001 A 
HETATM   39  C   UNL     1       7.818  23.318  53.423  1.00  0.00     0.009 A 
ENDBRANCH  33  34
ENDBRANCH  29  33
ENDBRANCH   4  26
TORSDOF 10
ENDMDL
MODEL 7
REMARK VINA RESULT:      -9.4      1.780      2.507
REMARK  10 active torsions:
REMARK  status: ('A' for Active; 'I' for Inactive)
REMARK    1  A    between atoms: C_2  and  C_3 
REMARK    2  A    between atoms: C_3  and  O_4 
REMARK    3  A    between atoms: O_4  and  C_5 
REMARK    4  A    between atoms: C_7  and  C_8 
REMARK       I    between atoms: C_8  and  N_9 
REMARK    5  A    between atoms: N_9  and  C_10 
REMARK    6  A    between atoms: C_10  and  N_11 
REMARK    7  A    between atoms: N_11  and  C_12 
REMARK    8  A    between atoms: C_15  and  N_16 
REMARK    9  A    between atoms: N_19  and  C_21 
REMARK   10  A    between atoms: C_21  and  C_22 
ROOT
HETATM    1  C   UNL     1       7.290  30.671  58.759  1.00  0.00     0.034 A 
HETATM    2  C   UNL     1       6.049  30.735  58.128  1.00  0.00     0.032 A 
HETATM    3  C   UNL     1       5.607  29.697  57.294  1.00  0.00     0.031 A 
HETATM    4  C   UNL     1       6.364  28.537  57.072  1.00  0.00     0.030 A 
HETATM    5  C   UNL     1       7.607  28.494  57.729  1.00  0.00     0.031 A 
HETATM    6  C   UNL     1       8.069  29.542  58.553  1.00  0.00     0.032 A 
ENDROOT
BRANCH   1   7
HETATM    7  N   UNL     1       7.701  31.829  59.453  1.00  0.00    -0.333 N 
HETATM    8  H   UNL     1       8.229  32.477  58.878  1.00  0.00     0.168 HD
BRANCH   7   9
HETATM    9  C   UNL     1       7.925  32.035  60.764  1.00  0.00     0.179 C 
HETATM   10  S   UNL     1       9.517  32.077  61.292  1.00  0.00    -0.040 SA
BRANCH   9  11
HETATM   11  N   UNL     1       6.964  32.280  61.688  1.00  0.00    -0.299 N 
HETATM   12  C   UNL     1       5.976  33.262  61.623  1.00  0.00     0.257 C 
HETATM   13  O   UNL     1       5.358  33.590  60.616  1.00  0.00    -0.267 OA
HETATM   14  H   UNL     1       7.387  32.175  62.599  1.00  0.00     0.171 HD
BRANCH  12  15
HETATM   15  C   UNL     1       5.644  33.929  62.926  1.00  0.00     0.035 A 
HETATM   16  C   UNL     1       5.646  35.320  63.099  1.00  0.00     0.053 A 
HETATM   17  C   UNL     1       5.255  35.894  64.315  1.00  0.00     0.069 A 
HETATM   18  C   UNL     1       4.881  35.072  65.376  1.00  0.00     0.037 A 
HETATM   19  C   UNL     1       4.904  33.683  65.225  1.00  0.00     0.004 A 
HETATM   20  C   UNL     1       5.283  33.113  64.007  1.00  0.00     0.017 A 
BRANCH  17  21
HETATM   21  O   UNL     1       5.271  37.262  64.320  1.00  0.00    -0.351 OA
BRANCH  21  22
HETATM   22  C   UNL     1       6.065  37.920  63.329  1.00  0.00     0.179 C 
BRANCH  22  23
HETATM   23  C   UNL     1       5.170  38.910  62.568  1.00  0.00     0.002 C 
HETATM   24  C   UNL     1       4.987  38.469  61.117  1.00  0.00     0.011 C 
HETATM   25  C   UNL     1       5.742  40.329  62.620  1.00  0.00     0.011 C 
ENDBRANCH  22  23
ENDBRANCH  21  22
ENDBRANCH  17  21
ENDBRANCH  12  15
ENDBRANCH   9  11
ENDBRANCH   7   9
ENDBRANCH   1   7
BRANCH   4  26
HETATM   26  N   UNL     1       5.924  27.546  56.193  1.00  0.00    -0.378 N 
HETATM   27  C   UNL     1       5.054  26.463  56.702  1.00  0.00     0.150 C 
HETATM   28  C   UNL     1       5.906  25.250  57.133  1.00  0.00     0.255 C 
HETATM   29  N   UNL     1       6.790  24.779  55.973  1.00  0.00    -0.064 N 
HETATM   30  H   UNL     1       6.156  24.486  55.221  1.00  0.00     0.280 HD
HETATM   31  C   UNL     1       7.642  25.930  55.430  1.00  0.00     0.255 C 
HETATM   32  C   UNL     1       6.746  27.126  55.043  1.00  0.00     0.150 C 
BRANCH  29  33
HETATM   33  C   UNL     1       7.629  23.578  56.332  1.00  0.00     0.273 C 
BRANCH  33  34
HETATM   34  C   UNL     1       7.739  22.591  55.201  1.00  0.00    -0.033 A 
HETATM   35  C   UNL     1       7.835  21.215  55.465  1.00  0.00     0.009 A 
HETATM   36  C   UNL     1       7.970  20.302  54.419  1.00  0.00     0.001 A 
HETATM   37  C   UNL     1       8.014  20.752  53.101  1.00  0.00     0.000 A 
HETATM   38  C   UNL     1       7.918  22.114  52.826  1.00  0.00     0.001 A 
HETATM   39  C   UNL     1       7.778  23.031  53.869  1.00  0.00     0.009 A 
ENDBRANCH  33  34
ENDBRANCH  29  33
ENDBRANCH   4  26
TORSDOF 10
ENDMDL
MODEL 8
REMARK VINA RESULT:      -9.3      2.484      3.938
REMARK  10 active torsions:
REMARK  status: ('A' for Active; 'I' for Inactive)
REMARK    1  A    between atoms: C_2  and  C_3 
REMARK    2  A    between atoms: C_3  and  O_4 
REMARK    3  A    between atoms: O_4  and  C_5 
REMARK    4  A    between atoms: C_7  and  C_8 
REMARK       I    between atoms: C_8  and  N_9 
REMARK    5  A    between atoms: N_9  and  C_10 
REMARK    6  A    between atoms: C_10  and  N_11 
REMARK    7  A    between atoms: N_11  and  C_12 
REMARK    8  A    between atoms: C_15  and  N_16 
REMARK    9  A    between atoms: N_19  and  C_21 
REMARK   10  A    between atoms: C_21  and  C_22 
ROOT
HETATM    1  C   UNL     1       5.779  32.333  59.199  1.00  0.00     0.034 A 
HETATM    2  C   UNL     1       5.320  31.546  58.144  1.00  0.00     0.032 A 
HETATM    3  C   UNL     1       6.088  30.480  57.650  1.00  0.00     0.031 A 
HETATM    4  C   UNL     1       7.329  30.130  58.199  1.00  0.00     0.030 A 
HETATM    5  C   UNL     1       7.763  30.934  59.269  1.00  0.00     0.031 A 
HETATM    6  C   UNL     1       7.008  32.020  59.760  1.00  0.00     0.032 A 
ENDROOT
BRANCH   1   7
HETATM    7  N   UNL     1       5.002  33.467  59.520  1.00  0.00    -0.333 N 
HETATM    8  H   UNL     1       5.241  34.286  58.970  1.00  0.00     0.168 HD
BRANCH   7   9
HETATM    9  C   UNL     1       4.361  33.801  60.655  1.00  0.00     0.179 C 
HETATM   10  S   UNL     1       2.685  33.863  60.620  1.00  0.00    -0.040 SA
BRANCH   9  11
HETATM   11  N   UNL     1       4.961  34.027  61.849  1.00  0.00    -0.299 N 
HETATM   12  C   UNL     1       4.846  33.248  63.000  1.00  0.00     0.257 C 
HETATM   13  O   UNL     1       4.812  32.023  63.035  1.00  0.00    -0.267 OA
HETATM   14  H   UNL     1       4.935  35.023  62.016  1.00  0.00     0.171 HD
BRANCH  12  15
HETATM   15  C   UNL     1       4.798  34.011  64.292  1.00  0.00     0.035 A 
HETATM   16  C   UNL     1       5.597  33.697  65.400  1.00  0.00     0.053 A 
HETATM   17  C   UNL     1       5.568  34.487  66.555  1.00  0.00     0.069 A 
HETATM   18  C   UNL     1       4.716  35.588  66.615  1.00  0.00     0.037 A 
HETATM   19  C   UNL     1       3.892  35.893  65.529  1.00  0.00     0.004 A 
HETATM   20  C   UNL     1       3.932  35.110  64.372  1.00  0.00     0.017 A 
BRANCH  17  21
HETATM   21  O   UNL     1       6.430  34.080  67.536  1.00  0.00    -0.351 OA
BRANCH  21  22
HETATM   22  C   UNL     1       6.225  34.594  68.855  1.00  0.00     0.179 C 
BRANCH  22  23
HETATM   23  C   UNL     1       7.599  34.849  69.496  1.00  0.00     0.002 C 
HETATM   24  C   UNL     1       7.866  33.848  70.618  1.00  0.00     0.011 C 
HETATM   25  C   UNL     1       7.707  36.280  70.028  1.00  0.00     0.011 C 
ENDBRANCH  22  23
ENDBRANCH  21  22
ENDBRANCH  17  21
ENDBRANCH  12  15
ENDBRANCH   9  11
ENDBRANCH   7   9
ENDBRANCH   1   7
BRANCH   4  26
HETATM   26  N   UNL     1       8.095  29.099  57.651  1.00  0.00    -0.378 N 
HETATM   27  C   UNL     1       8.696  29.280  56.311  1.00  0.00     0.150 C 
HETATM   28  C   UNL     1       7.754  28.723  55.222  1.00  0.00     0.255 C 
HETATM   29  N   UNL     1       7.417  27.255  55.508  1.00  0.00    -0.064 N 
HETATM   30  H   UNL     1       8.303  26.738  55.473  1.00  0.00     0.280 HD
HETATM   31  C   UNL     1       6.845  27.088  56.919  1.00  0.00     0.255 C 
HETATM   32  C   UNL     1       7.810  27.687  57.964  1.00  0.00     0.150 C 
BRANCH  29  33
HETATM   33  C   UNL     1       6.516  26.652  54.460  1.00  0.00     0.273 C 
BRANCH  33  34
HETATM   34  C   UNL     1       7.002  25.310  53.983  1.00  0.00    -0.033 A 
HETATM   35  C   UNL     1       7.522  25.161  52.687  1.00  0.00     0.009 A 
HETATM   36  C   UNL     1       7.942  23.910  52.233  1.00  0.00     0.001 A 
HETATM   37  C   UNL     1       7.845  22.797  53.065  1.00  0.00     0.000 A 
HETATM   38  C   UNL     1       7.333  22.931  54.352  1.00  0.00     0.001 A 
HETATM   39  C   UNL     1       6.915  24.181  54.813  1.00  0.00     0.009 A 
ENDBRANCH  33  34
ENDBRANCH  29  33
ENDBRANCH   4  26
TORSDOF 10
ENDMDL
MODEL 9
REMARK VINA RESULT:      -9.3      4.638     10.542
REMARK  10 active torsions:
REMARK  status: ('A' for Active; 'I' for Inactive)
REMARK    1  A    between atoms: C_2  and  C_3 
REMARK    2  A    between atoms: C_3  and  O_4 
REMARK    3  A    between atoms: O_4  and  C_5 
REMARK    4  A    between atoms: C_7  and  C_8 
REMARK       I    between atoms: C_8  and  N_9 
REMARK    5  A    between atoms: N_9  and  C_10 
REMARK    6  A    between atoms: C_10  and  N_11 
REMARK    7  A    between atoms: N_11  and  C_12 
REMARK    8  A    between atoms: C_15  and  N_16 
REMARK    9  A    between atoms: N_19  and  C_21 
REMARK   10  A    between atoms: C_21  and  C_22 
ROOT
HETATM    1  C   UNL     1       4.169  31.468  56.711  1.00  0.00     0.034 A 
HETATM    2  C   UNL     1       4.476  32.826  56.638  1.00  0.00     0.032 A 
HETATM    3  C   UNL     1       4.286  33.671  57.742  1.00  0.00     0.031 A 
HETATM    4  C   UNL     1       3.813  33.201  58.976  1.00  0.00     0.030 A 
HETATM    5  C   UNL     1       3.523  31.825  59.025  1.00  0.00     0.031 A 
HETATM    6  C   UNL     1       3.690  30.972  57.914  1.00  0.00     0.032 A 
ENDROOT
BRANCH   1   7
HETATM    7  N   UNL     1       4.255  30.740  55.506  1.00  0.00    -0.333 N 
HETATM    8  H   UNL     1       3.402  30.771  54.956  1.00  0.00     0.168 HD
BRANCH   7   9
HETATM    9  C   UNL     1       5.027  29.692  55.164  1.00  0.00     0.179 C 
HETATM   10  S   UNL     1       4.349  28.501  54.196  1.00  0.00    -0.040 SA
BRANCH   9  11
HETATM   11  N   UNL     1       6.336  29.554  55.484  1.00  0.00    -0.299 N 
HETATM   12  C   UNL     1       6.854  29.092  56.694  1.00  0.00     0.257 C 
HETATM   13  O   UNL     1       6.398  28.171  57.362  1.00  0.00    -0.267 OA
HETATM   14  H   UNL     1       6.827  30.348  55.097  1.00  0.00     0.171 HD
BRANCH  12  15
HETATM   15  C   UNL     1       8.098  29.785  57.168  1.00  0.00     0.035 A 
HETATM   16  C   UNL     1       8.085  30.853  58.076  1.00  0.00     0.053 A 
HETATM   17  C   UNL     1       9.278  31.414  58.545  1.00  0.00     0.069 A 
HETATM   18  C   UNL     1      10.498  30.921  58.085  1.00  0.00     0.037 A 
HETATM   19  C   UNL     1      10.524  29.878  57.156  1.00  0.00     0.004 A 
HETATM   20  C   UNL     1       9.331  29.311  56.700  1.00  0.00     0.017 A 
BRANCH  17  21
HETATM   21  O   UNL     1       9.106  32.421  59.455  1.00  0.00    -0.351 OA
BRANCH  21  22
HETATM   22  C   UNL     1       8.218  32.179  60.550  1.00  0.00     0.179 C 
BRANCH  22  23
HETATM   23  C   UNL     1       9.059  31.894  61.804  1.00  0.00     0.002 C 
HETATM   24  C   UNL     1       9.449  30.419  61.869  1.00  0.00     0.011 C 
HETATM   25  C   UNL     1       8.314  32.300  63.077  1.00  0.00     0.011 C 
ENDBRANCH  22  23
ENDBRANCH  21  22
ENDBRANCH  17  21
ENDBRANCH  12  15
ENDBRANCH   9  11
ENDBRANCH   7   9
ENDBRANCH   1   7
BRANCH   4  26
HETATM   26  N   UNL     1       3.582  34.075  60.040  1.00  0.00    -0.378 N 
HETATM   27  C   UNL     1       4.705  34.875  60.575  1.00  0.00     0.150 C 
HETATM   28  C   UNL     1       5.379  34.135  61.750  1.00  0.00     0.255 C 
HETATM   29  N   UNL     1       4.347  33.800  62.833  1.00  0.00    -0.064 N 
HETATM   30  H   UNL     1       3.978  34.695  63.174  1.00  0.00     0.280 HD
HETATM   31  C   UNL     1       3.170  33.016  62.244  1.00  0.00     0.255 C 
HETATM   32  C   UNL     1       2.553  33.785  61.055  1.00  0.00     0.150 C 
BRANCH  29  33
HETATM   33  C   UNL     1       4.956  33.095  64.018  1.00  0.00     0.273 C 
BRANCH  33  34
HETATM   34  C   UNL     1       4.927  33.934  65.267  1.00  0.00    -0.033 A 
HETATM   35  C   UNL     1       3.816  34.745  65.553  1.00  0.00     0.009 A 
HETATM   36  C   UNL     1       3.803  35.549  66.693  1.00  0.00     0.001 A 
HETATM   37  C   UNL     1       4.897  35.555  67.556  1.00  0.00     0.000 A 
HETATM   38  C   UNL     1       6.003  34.754  67.284  1.00  0.00     0.001 A 
HETATM   39  C   UNL     1       6.020  33.945  66.147  1.00  0.00     0.009 A 
ENDBRANCH  33  34
ENDBRANCH  29  33
ENDBRANCH   4  26
TORSDOF 10
ENDMDL
MODEL 10
REMARK VINA RESULT:      -9.1      3.283     12.725
REMARK  10 active torsions:
REMARK  status: ('A' for Active; 'I' for Inactive)
REMARK    1  A    between atoms: C_2  and  C_3 
REMARK    2  A    between atoms: C_3  and  O_4 
REMARK    3  A    between atoms: O_4  and  C_5 
REMARK    4  A    between atoms: C_7  and  C_8 
REMARK       I    between atoms: C_8  and  N_9 
REMARK    5  A    between atoms: N_9  and  C_10 
REMARK    6  A    between atoms: C_10  and  N_11 
REMARK    7  A    between atoms: N_11  and  C_12 
REMARK    8  A    between atoms: C_15  and  N_16 
REMARK    9  A    between atoms: N_19  and  C_21 
REMARK   10  A    between atoms: C_21  and  C_22 
ROOT
HETATM    1  C   UNL     1       5.091  31.414  56.268  1.00  0.00     0.034 A 
HETATM    2  C   UNL     1       3.930  32.180  56.358  1.00  0.00     0.032 A 
HETATM    3  C   UNL     1       3.499  32.699  57.588  1.00  0.00     0.031 A 
HETATM    4  C   UNL     1       4.216  32.505  58.778  1.00  0.00     0.030 A 
HETATM    5  C   UNL     1       5.389  31.738  58.656  1.00  0.00     0.031 A 
HETATM    6  C   UNL     1       5.819  31.195  57.428  1.00  0.00     0.032 A 
ENDROOT
BRANCH   1   7
HETATM    7  N   UNL     1       5.354  30.818  55.016  1.00  0.00    -0.333 N 
HETATM    8  H   UNL     1       5.676  31.478  54.316  1.00  0.00     0.168 HD
BRANCH   7   9
HETATM    9  C   UNL     1       4.858  29.701  54.453  1.00  0.00     0.179 C 
HETATM   10  S   UNL     1       3.630  29.870  53.322  1.00  0.00    -0.040 SA
BRANCH   9  11
HETATM   11  N   UNL     1       5.320  28.446  54.677  1.00  0.00    -0.299 N 
HETATM   12  C   UNL     1       6.654  28.055  54.781  1.00  0.00     0.257 C 
HETATM   13  O   UNL     1       7.543  28.686  55.343  1.00  0.00    -0.267 OA
HETATM   14  H   UNL     1       4.741  27.812  54.145  1.00  0.00     0.171 HD
BRANCH  12  15
HETATM   15  C   UNL     1       6.985  26.725  54.171  1.00  0.00     0.035 A 
HETATM   16  C   UNL     1       7.441  25.629  54.918  1.00  0.00     0.053 A 
HETATM   17  C   UNL     1       7.663  24.387  54.312  1.00  0.00     0.069 A 
HETATM   18  C   UNL     1       7.451  24.242  52.942  1.00  0.00     0.037 A 
HETATM   19  C   UNL     1       7.026  25.334  52.182  1.00  0.00     0.004 A 
HETATM   20  C   UNL     1       6.794  26.569  52.792  1.00  0.00     0.017 A 
BRANCH  17  21
HETATM   21  O   UNL     1       8.068  23.406  55.175  1.00  0.00    -0.351 OA
BRANCH  21  22
HETATM   22  C   UNL     1       8.944  22.395  54.666  1.00  0.00     0.179 C 
BRANCH  22  23
HETATM   23  C   UNL     1       8.143  21.093  54.510  1.00  0.00     0.002 C 
HETATM   24  C   UNL     1       8.427  20.140  55.669  1.00  0.00     0.011 C 
HETATM   25  C   UNL     1       8.452  20.408  53.176  1.00  0.00     0.011 C 
ENDBRANCH  22  23
ENDBRANCH  21  22
ENDBRANCH  17  21
ENDBRANCH  12  15
ENDBRANCH   9  11
ENDBRANCH   7   9
ENDBRANCH   1   7
BRANCH   4  26
HETATM   26  N   UNL     1       3.734  32.987  59.997  1.00  0.00    -0.378 N 
HETATM   27  C   UNL     1       4.146  34.331  60.456  1.00  0.00     0.150 C 
HETATM   28  C   UNL     1       5.395  34.230  61.358  1.00  0.00     0.255 C 
HETATM   29  N   UNL     1       5.131  33.278  62.530  1.00  0.00    -0.064 N 
HETATM   30  H   UNL     1       4.364  33.688  63.075  1.00  0.00     0.280 HD
HETATM   31  C   UNL     1       4.657  31.910  62.030  1.00  0.00     0.255 C 
HETATM   32  C   UNL     1       3.428  32.071  61.111  1.00  0.00     0.150 C 
BRANCH  29  33
HETATM   33  C   UNL     1       6.313  33.159  63.459  1.00  0.00     0.273 C 
BRANCH  33  34
HETATM   34  C   UNL     1       5.983  33.568  64.869  1.00  0.00    -0.033 A 
HETATM   35  C   UNL     1       4.648  33.756  65.261  1.00  0.00     0.009 A 
HETATM   36  C   UNL     1       4.343  34.168  66.559  1.00  0.00     0.001 A 
HETATM   37  C   UNL     1       5.365  34.399  67.476  1.00  0.00     0.000 A 
HETATM   38  C   UNL     1       6.693  34.215  67.101  1.00  0.00     0.001 A 
HETATM   39  C   UNL     1       7.003  33.799  65.805  1.00  0.00     0.009 A 
ENDBRANCH  33  34
ENDBRANCH  29  33
ENDBRANCH   4  26
TORSDOF 10
ENDMDL
