MODEL 1
REMARK VINA RESULT:      -9.2      0.000      0.000
REMARK  5 active torsions:
REMARK  status: ('A' for Active; 'I' for Inactive)
REMARK    1  A    between atoms: O_2  and  C_3 
REMARK    2  A    between atoms: C_7  and  C_9 
REMARK    3  A    between atoms: C_9  and  N_11 
REMARK       I    between atoms: N_11  and  C_12 
REMARK       I    between atoms: C_12  and  N_14 
REMARK    4  A    between atoms: N_14  and  C_15 
REMARK    5  A    between atoms: C_18  and  C_21 
ROOT
HETATM    1  N   UNL     1       3.956  27.585  51.630  1.00  0.00    -0.335 N 
HETATM    2  C   UNL     1       4.993  26.905  52.165  1.00  0.00     0.322 C 
HETATM    3  O   UNL     1       6.161  26.885  51.827  1.00  0.00    -0.247 OA
HETATM    4  N   UNL     1       4.565  26.136  53.249  1.00  0.00    -0.289 N 
HETATM    5  H   UNL     1       3.021  27.500  52.003  1.00  0.00     0.165 HD
HETATM    6  H   UNL     1       3.609  26.070  53.556  1.00  0.00     0.172 HD
ENDROOT
BRANCH   1   7
HETATM    7  C   UNL     1       4.085  28.391  50.421  1.00  0.00     0.115 C 
HETATM    8  C   UNL     1       3.401  29.754  50.553  1.00  0.00     0.037 C 
BRANCH   7   9
HETATM    9  C   UNL     1       3.540  27.586  49.256  1.00  0.00    -0.033 A 
HETATM   10  C   UNL     1       4.342  26.630  48.620  1.00  0.00     0.009 A 
HETATM   11  C   UNL     1       3.822  25.846  47.588  1.00  0.00     0.003 A 
HETATM   12  C   UNL     1       2.493  25.999  47.182  1.00  0.00     0.037 A 
HETATM   13  C   UNL     1       1.679  26.940  47.805  1.00  0.00     0.068 A 
HETATM   14  C   UNL     1       2.207  27.727  48.834  1.00  0.00     0.046 A 
BRANCH  13  15
HETATM   15  O   UNL     1       0.363  27.185  47.526  1.00  0.00    -0.356 OA
HETATM   16  C   UNL     1       0.037  27.487  46.174  1.00  0.00     0.210 C 
ENDBRANCH  13  15
ENDBRANCH   7   9
ENDBRANCH   1   7
BRANCH   4  17
HETATM   17  C   UNL     1       5.407  25.395  53.948  1.00  0.00     0.153 A 
HETATM   18  N   UNL     1       5.926  24.220  53.582  1.00  0.00    -0.335 N 
HETATM   19  H   UNL     1       5.662  23.831  52.674  1.00  0.00     0.168 HD
HETATM   20  C   UNL     1       6.796  23.668  54.505  1.00  0.00     0.051 A 
HETATM   21  C   UNL     1       6.914  24.460  55.629  1.00  0.00     0.083 A 
HETATM   22  S   UNL     1       5.973  25.897  55.500  1.00  0.00    -0.063 SA
BRANCH  20  23
HETATM   23  C   UNL     1       7.492  22.401  54.297  1.00  0.00    -0.006 A 
HETATM   24  C   UNL     1       7.810  21.944  53.011  1.00  0.00     0.033 A 
HETATM   25  C   UNL     1       8.460  20.727  52.877  1.00  0.00     0.117 A 
HETATM   26  N   UNL     1       8.801  19.948  53.920  1.00  0.00    -0.273 NA
HETATM   27  C   UNL     1       8.491  20.395  55.150  1.00  0.00     0.117 A 
HETATM   28  C   UNL     1       7.846  21.600  55.388  1.00  0.00     0.033 A 
ENDBRANCH  20  23
ENDBRANCH   4  17
TORSDOF 5
ENDMDL
MODEL 2
REMARK VINA RESULT:      -9.1      6.593      9.697
REMARK  5 active torsions:
REMARK  status: ('A' for Active; 'I' for Inactive)
REMARK    1  A    between atoms: O_2  and  C_3 
REMARK    2  A    between atoms: C_7  and  C_9 
REMARK    3  A    between atoms: C_9  and  N_11 
REMARK       I    between atoms: N_11  and  C_12 
REMARK       I    between atoms: C_12  and  N_14 
REMARK    4  A    between atoms: N_14  and  C_15 
REMARK    5  A    between atoms: C_18  and  C_21 
ROOT
HETATM    1  N   UNL     1       7.714  26.717  56.362  1.00  0.00    -0.335 N 
HETATM    2  C   UNL     1       7.637  27.900  57.008  1.00  0.00     0.322 C 
HETATM    3  O   UNL     1       6.657  28.554  57.309  1.00  0.00    -0.247 OA
HETATM    4  N   UNL     1       8.914  28.365  57.329  1.00  0.00    -0.289 N 
HETATM    5  H   UNL     1       8.604  26.284  56.160  1.00  0.00     0.165 HD
HETATM    6  H   UNL     1       9.768  27.900  57.074  1.00  0.00     0.172 HD
ENDROOT
BRANCH   1   7
HETATM    7  C   UNL     1       6.543  26.043  55.814  1.00  0.00     0.115 C 
HETATM    8  C   UNL     1       5.745  25.295  56.885  1.00  0.00     0.037 C 
BRANCH   7   9
HETATM    9  C   UNL     1       7.005  25.125  54.697  1.00  0.00    -0.033 A 
HETATM   10  C   UNL     1       7.423  25.657  53.471  1.00  0.00     0.009 A 
HETATM   11  C   UNL     1       7.906  24.818  52.466  1.00  0.00     0.003 A 
HETATM   12  C   UNL     1       7.988  23.438  52.672  1.00  0.00     0.037 A 
HETATM   13  C   UNL     1       7.582  22.890  53.886  1.00  0.00     0.068 A 
HETATM   14  C   UNL     1       7.093  23.735  54.887  1.00  0.00     0.046 A 
BRANCH  13  15
HETATM   15  O   UNL     1       7.622  21.568  54.232  1.00  0.00    -0.356 OA
HETATM   16  C   UNL     1       7.935  20.641  53.198  1.00  0.00     0.210 C 
ENDBRANCH  13  15
ENDBRANCH   7   9
ENDBRANCH   1   7
BRANCH   4  17
HETATM   17  C   UNL     1       9.094  29.500  57.983  1.00  0.00     0.153 A 
HETATM   18  N   UNL     1       8.393  29.933  59.033  1.00  0.00    -0.335 N 
HETATM   19  H   UNL     1       7.634  29.348  59.389  1.00  0.00     0.168 HD
HETATM   20  C   UNL     1       8.808  31.156  59.532  1.00  0.00     0.051 A 
HETATM   21  C   UNL     1       9.859  31.672  58.801  1.00  0.00     0.083 A 
HETATM   22  S   UNL     1      10.337  30.610  57.532  1.00  0.00    -0.063 SA
BRANCH  20  23
HETATM   23  C   UNL     1       8.196  31.802  60.690  1.00  0.00    -0.006 A 
HETATM   24  C   UNL     1       6.983  32.494  60.584  1.00  0.00     0.033 A 
HETATM   25  C   UNL     1       6.457  33.097  61.717  1.00  0.00     0.117 A 
HETATM   26  N   UNL     1       7.054  33.062  62.922  1.00  0.00    -0.273 NA
HETATM   27  C   UNL     1       8.220  32.395  63.013  1.00  0.00     0.117 A 
HETATM   28  C   UNL     1       8.823  31.756  61.940  1.00  0.00     0.033 A 
ENDBRANCH  20  23
ENDBRANCH   4  17
TORSDOF 5
ENDMDL
MODEL 3
REMARK VINA RESULT:      -8.9      5.079      9.141
REMARK  5 active torsions:
REMARK  status: ('A' for Active; 'I' for Inactive)
REMARK    1  A    between atoms: O_2  and  C_3 
REMARK    2  A    between atoms: C_7  and  C_9 
REMARK    3  A    between atoms: C_9  and  N_11 
REMARK       I    between atoms: N_11  and  C_12 
REMARK       I    between atoms: C_12  and  N_14 
REMARK    4  A    between atoms: N_14  and  C_15 
REMARK    5  A    between atoms: C_18  and  C_21 
ROOT
HETATM    1  N   UNL     1       7.104  25.034  54.622  1.00  0.00    -0.335 N 
HETATM    2  C   UNL     1       7.177  26.325  55.009  1.00  0.00     0.322 C 
HETATM    3  O   UNL     1       7.870  27.224  54.573  1.00  0.00    -0.247 OA
HETATM    4  N   UNL     1       6.304  26.566  56.073  1.00  0.00    -0.289 N 
HETATM    5  H   UNL     1       6.489  24.379  55.085  1.00  0.00     0.165 HD
HETATM    6  H   UNL     1       5.736  25.862  56.511  1.00  0.00     0.172 HD
ENDROOT
BRANCH   1   7
HETATM    7  C   UNL     1       7.977  24.469  53.599  1.00  0.00     0.115 C 
HETATM    8  C   UNL     1       7.503  24.797  52.181  1.00  0.00     0.037 C 
BRANCH   7   9
HETATM    9  C   UNL     1       8.079  22.974  53.839  1.00  0.00    -0.033 A 
HETATM   10  C   UNL     1       7.888  22.073  52.783  1.00  0.00     0.009 A 
HETATM   11  C   UNL     1       8.042  20.701  52.989  1.00  0.00     0.003 A 
HETATM   12  C   UNL     1       8.398  20.209  54.248  1.00  0.00     0.037 A 
HETATM   13  C   UNL     1       8.597  21.088  55.309  1.00  0.00     0.068 A 
HETATM   14  C   UNL     1       8.435  22.461  55.098  1.00  0.00     0.046 A 
BRANCH  13  15
HETATM   15  O   UNL     1       8.963  20.751  56.582  1.00  0.00    -0.356 OA
HETATM   16  C   UNL     1       8.384  21.507  57.640  1.00  0.00     0.210 C 
ENDBRANCH  13  15
ENDBRANCH   7   9
ENDBRANCH   1   7
BRANCH   4  17
HETATM   17  C   UNL     1       6.186  27.767  56.613  1.00  0.00     0.153 A 
HETATM   18  N   UNL     1       7.144  28.456  57.238  1.00  0.00    -0.335 N 
HETATM   19  H   UNL     1       8.073  28.037  57.322  1.00  0.00     0.168 HD
HETATM   20  C   UNL     1       6.746  29.700  57.696  1.00  0.00     0.051 A 
HETATM   21  C   UNL     1       5.416  29.941  57.419  1.00  0.00     0.083 A 
HETATM   22  S   UNL     1       4.695  28.635  56.558  1.00  0.00    -0.063 SA
BRANCH  20  23
HETATM   23  C   UNL     1       7.640  30.626  58.386  1.00  0.00    -0.006 A 
HETATM   24  C   UNL     1       7.163  31.519  59.354  1.00  0.00     0.033 A 
HETATM   25  C   UNL     1       8.058  32.383  59.965  1.00  0.00     0.117 A 
HETATM   26  N   UNL     1       9.372  32.418  59.675  1.00  0.00    -0.273 NA
HETATM   27  C   UNL     1       9.820  31.558  58.744  1.00  0.00     0.117 A 
HETATM   28  C   UNL     1       9.005  30.653  58.080  1.00  0.00     0.033 A 
ENDBRANCH  20  23
ENDBRANCH   4  17
TORSDOF 5
ENDMDL
MODEL 4
REMARK VINA RESULT:      -8.5      7.968     10.966
REMARK  5 active torsions:
REMARK  status: ('A' for Active; 'I' for Inactive)
REMARK    1  A    between atoms: O_2  and  C_3 
REMARK    2  A    between atoms: C_7  and  C_9 
REMARK    3  A    between atoms: C_9  and  N_11 
REMARK       I    between atoms: N_11  and  C_12 
REMARK       I    between atoms: C_12  and  N_14 
REMARK    4  A    between atoms: N_14  and  C_15 
REMARK    5  A    between atoms: C_18  and  C_21 
ROOT
HETATM    1  N   UNL     1       7.670  30.794  60.209  1.00  0.00    -0.335 N 
HETATM    2  C   UNL     1       8.055  29.993  59.191  1.00  0.00     0.322 C 
HETATM    3  O   UNL     1       9.174  29.660  58.852  1.00  0.00    -0.247 OA
HETATM    4  N   UNL     1       6.943  29.539  58.479  1.00  0.00    -0.289 N 
HETATM    5  H   UNL     1       6.696  31.004  60.373  1.00  0.00     0.165 HD
HETATM    6  H   UNL     1       5.994  29.809  58.676  1.00  0.00     0.172 HD
ENDROOT
BRANCH   1   7
HETATM    7  C   UNL     1       8.623  31.496  61.061  1.00  0.00     0.115 C 
HETATM    8  C   UNL     1       9.557  30.538  61.804  1.00  0.00     0.037 C 
BRANCH   7   9
HETATM    9  C   UNL     1       7.841  32.387  62.008  1.00  0.00    -0.033 A 
HETATM   10  C   UNL     1       8.127  32.386  63.379  1.00  0.00     0.009 A 
HETATM   11  C   UNL     1       7.451  33.250  64.242  1.00  0.00     0.003 A 
HETATM   12  C   UNL     1       6.487  34.134  63.749  1.00  0.00     0.037 A 
HETATM   13  C   UNL     1       6.192  34.154  62.389  1.00  0.00     0.068 A 
HETATM   14  C   UNL     1       6.868  33.281  61.530  1.00  0.00     0.046 A 
BRANCH  13  15
HETATM   15  O   UNL     1       5.290  34.972  61.768  1.00  0.00    -0.356 OA
HETATM   16  C   UNL     1       4.289  34.344  60.975  1.00  0.00     0.210 C 
ENDBRANCH  13  15
ENDBRANCH   7   9
ENDBRANCH   1   7
BRANCH   4  17
HETATM   17  C   UNL     1       7.068  28.724  57.446  1.00  0.00     0.153 A 
HETATM   18  N   UNL     1       7.290  27.408  57.493  1.00  0.00    -0.335 N 
HETATM   19  H   UNL     1       7.379  26.960  58.407  1.00  0.00     0.168 HD
HETATM   20  C   UNL     1       7.362  26.797  56.253  1.00  0.00     0.051 A 
HETATM   21  C   UNL     1       7.208  27.708  55.228  1.00  0.00     0.083 A 
HETATM   22  S   UNL     1       6.936  29.301  55.824  1.00  0.00    -0.063 SA
BRANCH  20  23
HETATM   23  C   UNL     1       7.576  25.363  56.075  1.00  0.00    -0.006 A 
HETATM   24  C   UNL     1       8.263  24.602  57.029  1.00  0.00     0.033 A 
HETATM   25  C   UNL     1       8.446  23.247  56.797  1.00  0.00     0.117 A 
HETATM   26  N   UNL     1       8.003  22.617  55.695  1.00  0.00    -0.273 NA
HETATM   27  C   UNL     1       7.346  23.356  54.783  1.00  0.00     0.117 A 
HETATM   28  C   UNL     1       7.109  24.715  54.926  1.00  0.00     0.033 A 
ENDBRANCH  20  23
ENDBRANCH   4  17
TORSDOF 5
ENDMDL
MODEL 5
REMARK VINA RESULT:      -8.4      5.711      8.786
REMARK  5 active torsions:
REMARK  status: ('A' for Active; 'I' for Inactive)
REMARK    1  A    between atoms: O_2  and  C_3 
REMARK    2  A    between atoms: C_7  and  C_9 
REMARK    3  A    between atoms: C_9  and  N_11 
REMARK       I    between atoms: N_11  and  C_12 
REMARK       I    between atoms: C_12  and  N_14 
REMARK    4  A    between atoms: N_14  and  C_15 
REMARK    5  A    between atoms: C_18  and  C_21 
ROOT
HETATM    1  N   UNL     1       8.394  28.684  57.677  1.00  0.00    -0.335 N 
HETATM    2  C   UNL     1       8.135  27.908  56.603  1.00  0.00     0.322 C 
HETATM    3  O   UNL     1       8.354  28.121  55.425  1.00  0.00    -0.247 OA
HETATM    4  N   UNL     1       7.519  26.718  56.996  1.00  0.00    -0.289 N 
HETATM    5  H   UNL     1       8.143  28.391  58.611  1.00  0.00     0.165 HD
HETATM    6  H   UNL     1       7.268  26.496  57.944  1.00  0.00     0.172 HD
ENDROOT
BRANCH   1   7
HETATM    7  C   UNL     1       8.940  30.031  57.561  1.00  0.00     0.115 C 
HETATM    8  C   UNL     1      10.452  30.029  57.320  1.00  0.00     0.037 C 
BRANCH   7   9
HETATM    9  C   UNL     1       8.558  30.806  58.809  1.00  0.00    -0.033 A 
HETATM   10  C   UNL     1       9.538  31.186  59.734  1.00  0.00     0.009 A 
HETATM   11  C   UNL     1       9.196  31.950  60.850  1.00  0.00     0.003 A 
HETATM   12  C   UNL     1       7.874  32.354  61.056  1.00  0.00     0.037 A 
HETATM   13  C   UNL     1       6.886  31.991  60.145  1.00  0.00     0.068 A 
HETATM   14  C   UNL     1       7.233  31.219  59.032  1.00  0.00     0.046 A 
BRANCH  13  15
HETATM   15  O   UNL     1       5.563  32.327  60.208  1.00  0.00    -0.356 OA
HETATM   16  C   UNL     1       5.012  32.991  59.077  1.00  0.00     0.210 C 
ENDBRANCH  13  15
ENDBRANCH   7   9
ENDBRANCH   1   7
BRANCH   4  17
HETATM   17  C   UNL     1       7.185  25.788  56.119  1.00  0.00     0.153 A 
HETATM   18  N   UNL     1       7.791  24.612  55.935  1.00  0.00    -0.335 N 
HETATM   19  H   UNL     1       8.599  24.382  56.518  1.00  0.00     0.168 HD
HETATM   20  C   UNL     1       7.219  23.821  54.954  1.00  0.00     0.051 A 
HETATM   21  C   UNL     1       6.144  24.450  54.358  1.00  0.00     0.083 A 
HETATM   22  S   UNL     1       5.840  25.995  55.057  1.00  0.00    -0.063 SA
BRANCH  20  23
HETATM   23  C   UNL     1       7.709  22.490  54.607  1.00  0.00    -0.006 A 
HETATM   24  C   UNL     1       8.037  21.551  55.593  1.00  0.00     0.033 A 
HETATM   25  C   UNL     1       8.509  20.308  55.201  1.00  0.00     0.117 A 
HETATM   26  N   UNL     1       8.678  19.950  53.915  1.00  0.00    -0.273 NA
HETATM   27  C   UNL     1       8.362  20.859  52.975  1.00  0.00     0.117 A 
HETATM   28  C   UNL     1       7.878  22.126  53.266  1.00  0.00     0.033 A 
ENDBRANCH  20  23
ENDBRANCH   4  17
TORSDOF 5
ENDMDL
MODEL 6
REMARK VINA RESULT:      -8.3      5.094      8.243
REMARK  5 active torsions:
REMARK  status: ('A' for Active; 'I' for Inactive)
REMARK    1  A    between atoms: O_2  and  C_3 
REMARK    2  A    between atoms: C_7  and  C_9 
REMARK    3  A    between atoms: C_9  and  N_11 
REMARK       I    between atoms: N_11  and  C_12 
REMARK       I    between atoms: C_12  and  N_14 
REMARK    4  A    between atoms: N_14  and  C_15 
REMARK    5  A    between atoms: C_18  and  C_21 
ROOT
HETATM    1  N   UNL     1       6.320  29.457  56.464  1.00  0.00    -0.335 N 
HETATM    2  C   UNL     1       6.077  28.166  56.151  1.00  0.00     0.322 C 
HETATM    3  O   UNL     1       5.557  27.294  56.821  1.00  0.00    -0.247 OA
HETATM    4  N   UNL     1       6.530  27.882  54.862  1.00  0.00    -0.289 N 
HETATM    5  H   UNL     1       6.779  30.079  55.813  1.00  0.00     0.165 HD
HETATM    6  H   UNL     1       7.008  28.540  54.270  1.00  0.00     0.172 HD
ENDROOT
BRANCH   1   7
HETATM    7  C   UNL     1       6.047  30.011  57.785  1.00  0.00     0.115 C 
HETATM    8  C   UNL     1       4.855  30.972  57.780  1.00  0.00     0.037 C 
BRANCH   7   9
HETATM    9  C   UNL     1       7.316  30.673  58.291  1.00  0.00    -0.033 A 
HETATM   10  C   UNL     1       7.256  31.630  59.312  1.00  0.00     0.009 A 
HETATM   11  C   UNL     1       8.428  32.194  59.819  1.00  0.00     0.003 A 
HETATM   12  C   UNL     1       9.675  31.805  59.323  1.00  0.00     0.037 A 
HETATM   13  C   UNL     1       9.756  30.851  58.312  1.00  0.00     0.068 A 
HETATM   14  C   UNL     1       8.578  30.295  57.803  1.00  0.00     0.046 A 
BRANCH  13  15
HETATM   15  O   UNL     1      10.901  30.365  57.747  1.00  0.00    -0.356 OA
HETATM   16  C   UNL     1      10.754  29.569  56.576  1.00  0.00     0.210 C 
ENDBRANCH  13  15
ENDBRANCH   7   9
ENDBRANCH   1   7
BRANCH   4  17
HETATM   17  C   UNL     1       6.387  26.682  54.325  1.00  0.00     0.153 A 
HETATM   18  N   UNL     1       7.084  25.585  54.631  1.00  0.00    -0.335 N 
HETATM   19  H   UNL     1       7.810  25.651  55.348  1.00  0.00     0.168 HD
HETATM   20  C   UNL     1       6.713  24.456  53.922  1.00  0.00     0.051 A 
HETATM   21  C   UNL     1       5.701  24.731  53.024  1.00  0.00     0.083 A 
HETATM   22  S   UNL     1       5.203  26.378  53.106  1.00  0.00    -0.063 SA
BRANCH  20  23
HETATM   23  C   UNL     1       7.329  23.146  54.115  1.00  0.00    -0.006 A 
HETATM   24  C   UNL     1       7.785  22.385  53.030  1.00  0.00     0.033 A 
HETATM   25  C   UNL     1       8.350  21.144  53.277  1.00  0.00     0.117 A 
HETATM   26  N   UNL     1       8.481  20.619  54.509  1.00  0.00    -0.273 NA
HETATM   27  C   UNL     1       8.040  21.357  55.543  1.00  0.00     0.117 A 
HETATM   28  C   UNL     1       7.465  22.610  55.400  1.00  0.00     0.033 A 
ENDBRANCH  20  23
ENDBRANCH   4  17
TORSDOF 5
ENDMDL
MODEL 7
REMARK VINA RESULT:      -8.2      7.336     10.395
REMARK  5 active torsions:
REMARK  status: ('A' for Active; 'I' for Inactive)
REMARK    1  A    between atoms: O_2  and  C_3 
REMARK    2  A    between atoms: C_7  and  C_9 
REMARK    3  A    between atoms: C_9  and  N_11 
REMARK       I    between atoms: N_11  and  C_12 
REMARK       I    between atoms: C_12  and  N_14 
REMARK    4  A    between atoms: N_14  and  C_15 
REMARK    5  A    between atoms: C_18  and  C_21 
ROOT
HETATM    1  N   UNL     1       7.444  27.506  57.248  1.00  0.00    -0.335 N 
HETATM    2  C   UNL     1       7.316  28.747  57.762  1.00  0.00     0.322 C 
HETATM    3  O   UNL     1       6.444  29.574  57.577  1.00  0.00    -0.247 OA
HETATM    4  N   UNL     1       8.387  29.038  58.609  1.00  0.00    -0.289 N 
HETATM    5  H   UNL     1       8.235  26.920  57.476  1.00  0.00     0.165 HD
HETATM    6  H   UNL     1       9.164  28.421  58.774  1.00  0.00     0.172 HD
ENDROOT
BRANCH   1   7
HETATM    7  C   UNL     1       6.526  26.969  56.250  1.00  0.00     0.115 C 
HETATM    8  C   UNL     1       5.091  26.863  56.774  1.00  0.00     0.037 C 
BRANCH   7   9
HETATM    9  C   UNL     1       7.066  25.631  55.781  1.00  0.00    -0.033 A 
HETATM   10  C   UNL     1       7.178  24.560  56.676  1.00  0.00     0.009 A 
HETATM   11  C   UNL     1       7.618  23.312  56.232  1.00  0.00     0.003 A 
HETATM   12  C   UNL     1       7.943  23.112  54.887  1.00  0.00     0.037 A 
HETATM   13  C   UNL     1       7.834  24.163  53.981  1.00  0.00     0.068 A 
HETATM   14  C   UNL     1       7.399  25.413  54.433  1.00  0.00     0.046 A 
BRANCH  13  15
HETATM   15  O   UNL     1       8.099  24.108  52.641  1.00  0.00    -0.356 OA
HETATM   16  C   UNL     1       7.500  25.107  51.824  1.00  0.00     0.210 C 
ENDBRANCH  13  15
ENDBRANCH   7   9
ENDBRANCH   1   7
BRANCH   4  17
HETATM   17  C   UNL     1       8.473  30.193  59.247  1.00  0.00     0.153 A 
HETATM   18  N   UNL     1       7.779  30.559  60.327  1.00  0.00    -0.335 N 
HETATM   19  H   UNL     1       7.105  29.900  60.722  1.00  0.00     0.168 HD
HETATM   20  C   UNL     1       8.081  31.825  60.798  1.00  0.00     0.051 A 
HETATM   21  C   UNL     1       9.034  32.444  60.015  1.00  0.00     0.083 A 
HETATM   22  S   UNL     1       9.566  31.426  58.731  1.00  0.00    -0.063 SA
BRANCH  20  23
HETATM   23  C   UNL     1       7.457  32.414  61.980  1.00  0.00    -0.006 A 
HETATM   24  C   UNL     1       8.132  32.487  63.205  1.00  0.00     0.033 A 
HETATM   25  C   UNL     1       7.482  33.046  64.294  1.00  0.00     0.117 A 
HETATM   26  N   UNL     1       6.224  33.521  64.244  1.00  0.00    -0.273 NA
HETATM   27  C   UNL     1       5.583  33.445  63.064  1.00  0.00     0.117 A 
HETATM   28  C   UNL     1       6.149  32.909  61.917  1.00  0.00     0.033 A 
ENDBRANCH  20  23
ENDBRANCH   4  17
TORSDOF 5
ENDMDL
MODEL 8
REMARK VINA RESULT:      -8.1      6.821      9.878
REMARK  5 active torsions:
REMARK  status: ('A' for Active; 'I' for Inactive)
REMARK    1  A    between atoms: O_2  and  C_3 
REMARK    2  A    between atoms: C_7  and  C_9 
REMARK    3  A    between atoms: C_9  and  N_11 
REMARK       I    between atoms: N_11  and  C_12 
REMARK       I    between atoms: C_12  and  N_14 
REMARK    4  A    between atoms: N_14  and  C_15 
REMARK    5  A    between atoms: C_18  and  C_21 
ROOT
HETATM    1  N   UNL     1       7.678  29.770  58.669  1.00  0.00    -0.335 N 
HETATM    2  C   UNL     1       7.650  29.088  57.504  1.00  0.00     0.322 C 
HETATM    3  O   UNL     1       8.224  29.323  56.458  1.00  0.00    -0.247 OA
HETATM    4  N   UNL     1       6.810  27.978  57.608  1.00  0.00    -0.289 N 
HETATM    5  H   UNL     1       7.135  29.472  59.467  1.00  0.00     0.165 HD
HETATM    6  H   UNL     1       6.271  27.748  58.426  1.00  0.00     0.172 HD
ENDROOT
BRANCH   1   7
HETATM    7  C   UNL     1       8.390  31.034  58.824  1.00  0.00     0.115 C 
HETATM    8  C   UNL     1       9.903  30.874  58.653  1.00  0.00     0.037 C 
BRANCH   7   9
HETATM    9  C   UNL     1       8.023  31.621  60.174  1.00  0.00    -0.033 A 
HETATM   10  C   UNL     1       8.887  31.477  61.267  1.00  0.00     0.009 A 
HETATM   11  C   UNL     1       8.579  32.068  62.493  1.00  0.00     0.003 A 
HETATM   12  C   UNL     1       7.410  32.820  62.644  1.00  0.00     0.037 A 
HETATM   13  C   UNL     1       6.541  32.979  61.568  1.00  0.00     0.068 A 
HETATM   14  C   UNL     1       6.851  32.378  60.344  1.00  0.00     0.046 A 
BRANCH  13  15
HETATM   15  O   UNL     1       5.377  33.696  61.566  1.00  0.00    -0.356 OA
HETATM   16  C   UNL     1       5.064  34.419  62.751  1.00  0.00     0.210 C 
ENDBRANCH  13  15
ENDBRANCH   7   9
ENDBRANCH   1   7
BRANCH   4  17
HETATM   17  C   UNL     1       6.636  27.144  56.597  1.00  0.00     0.153 A 
HETATM   18  N   UNL     1       7.383  26.076  56.308  1.00  0.00    -0.335 N 
HETATM   19  H   UNL     1       8.179  25.858  56.912  1.00  0.00     0.168 HD
HETATM   20  C   UNL     1       6.963  25.368  55.196  1.00  0.00     0.051 A 
HETATM   21  C   UNL     1       5.857  25.952  54.611  1.00  0.00     0.083 A 
HETATM   22  S   UNL     1       5.336  27.346  55.478  1.00  0.00    -0.063 SA
BRANCH  20  23
HETATM   23  C   UNL     1       7.623  24.157  54.716  1.00  0.00    -0.006 A 
HETATM   24  C   UNL     1       8.618  23.519  55.468  1.00  0.00     0.033 A 
HETATM   25  C   UNL     1       9.217  22.380  54.954  1.00  0.00     0.117 A 
HETATM   26  N   UNL     1       8.899  21.848  53.760  1.00  0.00    -0.273 NA
HETATM   27  C   UNL     1       7.943  22.468  53.044  1.00  0.00     0.117 A 
HETATM   28  C   UNL     1       7.283  23.610  53.474  1.00  0.00     0.033 A 
ENDBRANCH  20  23
ENDBRANCH   4  17
TORSDOF 5
ENDMDL
MODEL 9
REMARK VINA RESULT:      -8.0      2.487      8.772
REMARK  5 active torsions:
REMARK  status: ('A' for Active; 'I' for Inactive)
REMARK    1  A    between atoms: O_2  and  C_3 
REMARK    2  A    between atoms: C_7  and  C_9 
REMARK    3  A    between atoms: C_9  and  N_11 
REMARK       I    between atoms: N_11  and  C_12 
REMARK       I    between atoms: C_12  and  N_14 
REMARK    4  A    between atoms: N_14  and  C_15 
REMARK    5  A    between atoms: C_18  and  C_21 
ROOT
HETATM    1  N   UNL     1       7.185  24.961  54.312  1.00  0.00    -0.335 N 
HETATM    2  C   UNL     1       6.256  25.766  53.753  1.00  0.00     0.322 C 
HETATM    3  O   UNL     1       5.297  26.310  54.264  1.00  0.00    -0.247 OA
HETATM    4  N   UNL     1       6.510  25.931  52.390  1.00  0.00    -0.289 N 
HETATM    5  H   UNL     1       7.932  24.558  53.764  1.00  0.00     0.165 HD
HETATM    6  H   UNL     1       7.257  25.477  51.892  1.00  0.00     0.172 HD
ENDROOT
BRANCH   1   7
HETATM    7  C   UNL     1       7.116  24.528  55.703  1.00  0.00     0.115 C 
HETATM    8  C   UNL     1       7.890  25.456  56.642  1.00  0.00     0.037 C 
BRANCH   7   9
HETATM    9  C   UNL     1       7.608  23.094  55.777  1.00  0.00    -0.033 A 
HETATM   10  C   UNL     1       8.125  22.584  56.974  1.00  0.00     0.009 A 
HETATM   11  C   UNL     1       8.522  21.249  57.059  1.00  0.00     0.003 A 
HETATM   12  C   UNL     1       8.400  20.401  55.955  1.00  0.00     0.037 A 
HETATM   13  C   UNL     1       7.884  20.888  54.757  1.00  0.00     0.068 A 
HETATM   14  C   UNL     1       7.495  22.228  54.675  1.00  0.00     0.046 A 
BRANCH  13  15
HETATM   15  O   UNL     1       7.692  20.173  53.608  1.00  0.00    -0.356 OA
HETATM   16  C   UNL     1       8.605  20.410  52.542  1.00  0.00     0.210 C 
ENDBRANCH  13  15
ENDBRANCH   7   9
ENDBRANCH   1   7
BRANCH   4  17
HETATM   17  C   UNL     1       5.744  26.694  51.629  1.00  0.00     0.153 A 
HETATM   18  N   UNL     1       4.956  26.286  50.631  1.00  0.00    -0.335 N 
HETATM   19  H   UNL     1       4.923  25.288  50.410  1.00  0.00     0.168 HD
HETATM   20  C   UNL     1       4.248  27.301  50.011  1.00  0.00     0.051 A 
HETATM   21  C   UNL     1       4.542  28.533  50.560  1.00  0.00     0.083 A 
HETATM   22  S   UNL     1       5.660  28.402  51.863  1.00  0.00    -0.063 SA
BRANCH  20  23
HETATM   23  C   UNL     1       3.313  27.075  48.912  1.00  0.00    -0.006 A 
HETATM   24  C   UNL     1       2.144  27.834  48.779  1.00  0.00     0.033 A 
HETATM   25  C   UNL     1       1.289  27.564  47.721  1.00  0.00     0.117 A 
HETATM   26  N   UNL     1       1.516  26.599  46.811  1.00  0.00    -0.273 NA
HETATM   27  C   UNL     1       2.641  25.875  46.949  1.00  0.00     0.117 A 
HETATM   28  C   UNL     1       3.560  26.072  47.968  1.00  0.00     0.033 A 
ENDBRANCH  20  23
ENDBRANCH   4  17
TORSDOF 5
ENDMDL
MODEL 10
REMARK VINA RESULT:      -7.9      5.434      8.318
REMARK  5 active torsions:
REMARK  status: ('A' for Active; 'I' for Inactive)
REMARK    1  A    between atoms: O_2  and  C_3 
REMARK    2  A    between atoms: C_7  and  C_9 
REMARK    3  A    between atoms: C_9  and  N_11 
REMARK       I    between atoms: N_11  and  C_12 
REMARK       I    between atoms: C_12  and  N_14 
REMARK    4  A    between atoms: N_14  and  C_15 
REMARK    5  A    between atoms: C_18  and  C_21 
ROOT
HETATM    1  N   UNL     1       6.719  28.519  57.168  1.00  0.00    -0.335 N 
HETATM    2  C   UNL     1       7.050  27.680  56.163  1.00  0.00     0.322 C 
HETATM    3  O   UNL     1       7.957  27.759  55.358  1.00  0.00    -0.247 OA
HETATM    4  N   UNL     1       6.163  26.603  56.115  1.00  0.00    -0.289 N 
HETATM    5  H   UNL     1       5.921  28.341  57.762  1.00  0.00     0.165 HD
HETATM    6  H   UNL     1       5.366  26.496  56.719  1.00  0.00     0.172 HD
ENDROOT
BRANCH   1   7
HETATM    7  C   UNL     1       7.407  29.785  57.394  1.00  0.00     0.115 C 
HETATM    8  C   UNL     1       8.718  29.607  58.164  1.00  0.00     0.037 C 
BRANCH   7   9
HETATM    9  C   UNL     1       6.449  30.725  58.102  1.00  0.00    -0.033 A 
HETATM   10  C   UNL     1       5.099  30.771  57.730  1.00  0.00     0.009 A 
HETATM   11  C   UNL     1       4.205  31.590  58.421  1.00  0.00     0.003 A 
HETATM   12  C   UNL     1       4.641  32.367  59.498  1.00  0.00     0.037 A 
HETATM   13  C   UNL     1       5.977  32.330  59.887  1.00  0.00     0.068 A 
HETATM   14  C   UNL     1       6.870  31.514  59.186  1.00  0.00     0.046 A 
BRANCH  13  15
HETATM   15  O   UNL     1       6.538  33.019  60.926  1.00  0.00    -0.356 OA
HETATM   16  C   UNL     1       7.020  32.251  62.022  1.00  0.00     0.210 C 
ENDBRANCH  13  15
ENDBRANCH   7   9
ENDBRANCH   1   7
BRANCH   4  17
HETATM   17  C   UNL     1       6.295  25.636  55.223  1.00  0.00     0.153 A 
HETATM   18  N   UNL     1       6.956  24.487  55.386  1.00  0.00    -0.335 N 
HETATM   19  H   UNL     1       7.417  24.311  56.281  1.00  0.00     0.168 HD
HETATM   20  C   UNL     1       6.919  23.646  54.287  1.00  0.00     0.051 A 
HETATM   21  C   UNL     1       6.213  24.207  53.242  1.00  0.00     0.083 A 
HETATM   22  S   UNL     1       5.574  25.752  53.658  1.00  0.00    -0.063 SA
BRANCH  20  23
HETATM   23  C   UNL     1       7.556  22.332  54.258  1.00  0.00    -0.006 A 
HETATM   24  C   UNL     1       7.845  21.634  55.437  1.00  0.00     0.033 A 
HETATM   25  C   UNL     1       8.463  20.396  55.346  1.00  0.00     0.117 A 
HETATM   26  N   UNL     1       8.809  19.824  54.179  1.00  0.00    -0.273 NA
HETATM   27  C   UNL     1       8.528  20.503  53.052  1.00  0.00     0.117 A 
HETATM   28  C   UNL     1       7.910  21.744  53.039  1.00  0.00     0.033 A 
ENDBRANCH  20  23
ENDBRANCH   4  17
TORSDOF 5
ENDMDL
