MODEL 1
REMARK VINA RESULT:      -9.2      0.000      0.000
REMARK  8 active torsions:
REMARK  status: ('A' for Active; 'I' for Inactive)
REMARK    1  A    between atoms: C_7  and  C_8 
REMARK       I    between atoms: C_8  and  N_9 
REMARK    2  A    between atoms: N_9  and  S_10 
REMARK    3  A    between atoms: S_10  and  N_11 
REMARK    4  A    between atoms: N_11  and  C_12 
REMARK    5  A    between atoms: C_12  and  C_13 
REMARK    6  A    between atoms: C_13  and  C_14 
REMARK    7  A    between atoms: C_16  and  O_17 
REMARK    8  A    between atoms: C_19  and  O_20 
ROOT
HETATM    1  S   UNL     1       5.391  26.542  53.045  1.00  0.00     0.303 S 
HETATM    2  O   UNL     1       6.128  27.581  52.372  1.00  0.00    -0.188 OA
HETATM    3  O   UNL     1       4.796  25.451  52.312  1.00  0.00    -0.188 OA
ENDROOT
BRANCH   1   4
HETATM    4  N   UNL     1       6.391  25.864  54.167  1.00  0.00    -0.237 N 
HETATM    5  C   UNL     1       7.502  25.101  53.785  1.00  0.00     0.268 C 
HETATM    6  O   UNL     1       8.046  25.278  52.700  1.00  0.00    -0.267 OA
HETATM    7  H   UNL     1       5.847  25.528  54.948  1.00  0.00     0.183 HD
BRANCH   5   8
HETATM    8  C   UNL     1       7.948  24.078  54.737  1.00  0.00     0.067 A 
HETATM    9  C   UNL     1       8.246  24.193  56.098  1.00  0.00     0.022 A 
HETATM   10  C   UNL     1       8.266  25.338  57.050  1.00  0.00     0.069 C 
HETATM   11  N   UNL     1       8.601  22.943  56.553  1.00  0.00    -0.358 N 
HETATM   12  H   UNL     1       8.865  22.723  57.505  1.00  0.00     0.166 HD
HETATM   13  C   UNL     1       8.577  22.021  55.540  1.00  0.00     0.043 A 
HETATM   14  C   UNL     1       8.176  22.694  54.388  1.00  0.00     0.008 A 
HETATM   15  C   UNL     1       8.881  20.654  55.561  1.00  0.00     0.030 A 
HETATM   16  C   UNL     1       8.070  21.948  53.192  1.00  0.00     0.015 A 
HETATM   17  C   UNL     1       8.372  20.581  53.191  1.00  0.00     0.001 A 
HETATM   18  C   UNL     1       8.771  19.946  54.361  1.00  0.00     0.002 A 
ENDBRANCH   5   8
ENDBRANCH   1   4
BRANCH   1  19
HETATM   19  N   UNL     1       4.216  27.255  54.008  1.00  0.00    -0.202 NA
HETATM   20  H   UNL     1       4.064  26.623  54.807  1.00  0.00     0.141 HD
BRANCH  19  21
HETATM   21  C   UNL     1       4.556  28.605  54.530  1.00  0.00     0.110 C 
BRANCH  21  22
HETATM   22  C   UNL     1       4.668  28.648  56.052  1.00  0.00     0.054 C 
BRANCH  22  23
HETATM   23  C   UNL     1       6.095  28.933  56.462  1.00  0.00    -0.054 A 
HETATM   24  C   UNL     1       6.376  29.345  57.775  1.00  0.00     0.046 A 
HETATM   25  C   UNL     1       7.679  29.684  58.159  1.00  0.00     0.102 A 
HETATM   26  C   UNL     1       8.718  29.619  57.211  1.00  0.00     0.101 A 
HETATM   27  C   UNL     1       8.441  29.191  55.908  1.00  0.00     0.040 A 
HETATM   28  C   UNL     1       7.137  28.856  55.534  1.00  0.00     0.010 A 
BRANCH  25  29
HETATM   29  O   UNL     1       8.032  30.107  59.416  1.00  0.00    -0.353 OA
HETATM   30  C   UNL     1       7.659  31.424  59.797  1.00  0.00     0.210 C 
ENDBRANCH  25  29
BRANCH  26  31
HETATM   31  O   UNL     1       9.969  29.972  57.655  1.00  0.00    -0.353 OA
HETATM   32  C   UNL     1      11.074  29.558  56.866  1.00  0.00     0.210 C 
ENDBRANCH  26  31
ENDBRANCH  22  23
ENDBRANCH  21  22
ENDBRANCH  19  21
ENDBRANCH   1  19
TORSDOF 8
ENDMDL
MODEL 2
REMARK VINA RESULT:      -9.0      1.249      2.216
REMARK  8 active torsions:
REMARK  status: ('A' for Active; 'I' for Inactive)
REMARK    1  A    between atoms: C_7  and  C_8 
REMARK       I    between atoms: C_8  and  N_9 
REMARK    2  A    between atoms: N_9  and  S_10 
REMARK    3  A    between atoms: S_10  and  N_11 
REMARK    4  A    between atoms: N_11  and  C_12 
REMARK    5  A    between atoms: C_12  and  C_13 
REMARK    6  A    between atoms: C_13  and  C_14 
REMARK    7  A    between atoms: C_16  and  O_17 
REMARK    8  A    between atoms: C_19  and  O_20 
ROOT
HETATM    1  S   UNL     1       6.907  27.458  53.574  1.00  0.00     0.303 S 
HETATM    2  O   UNL     1       7.916  28.453  53.836  1.00  0.00    -0.188 OA
HETATM    3  O   UNL     1       6.237  27.389  52.297  1.00  0.00    -0.188 OA
ENDROOT
BRANCH   1   4
HETATM    4  N   UNL     1       7.585  25.977  53.830  1.00  0.00    -0.237 N 
HETATM    5  C   UNL     1       6.814  24.888  54.256  1.00  0.00     0.268 C 
HETATM    6  O   UNL     1       5.613  24.831  54.015  1.00  0.00    -0.267 OA
HETATM    7  H   UNL     1       8.497  26.089  54.247  1.00  0.00     0.183 HD
BRANCH   5   8
HETATM    8  C   UNL     1       7.519  23.851  55.019  1.00  0.00     0.067 A 
HETATM    9  C   UNL     1       7.988  23.874  56.335  1.00  0.00     0.022 A 
HETATM   10  C   UNL     1       7.992  24.910  57.404  1.00  0.00     0.069 C 
HETATM   11  N   UNL     1       8.563  22.649  56.593  1.00  0.00    -0.358 N 
HETATM   12  H   UNL     1       8.985  22.378  57.471  1.00  0.00     0.166 HD
HETATM   13  C   UNL     1       8.518  21.838  55.490  1.00  0.00     0.043 A 
HETATM   14  C   UNL     1       7.875  22.555  54.484  1.00  0.00     0.008 A 
HETATM   15  C   UNL     1       8.998  20.534  55.312  1.00  0.00     0.030 A 
HETATM   16  C   UNL     1       7.701  21.924  53.232  1.00  0.00     0.015 A 
HETATM   17  C   UNL     1       8.175  20.622  53.033  1.00  0.00     0.001 A 
HETATM   18  C   UNL     1       8.814  19.939  54.061  1.00  0.00     0.002 A 
ENDBRANCH   5   8
ENDBRANCH   1   4
BRANCH   1  19
HETATM   19  N   UNL     1       5.753  27.531  54.790  1.00  0.00    -0.202 NA
HETATM   20  H   UNL     1       5.288  26.612  54.813  1.00  0.00     0.141 HD
BRANCH  19  21
HETATM   21  C   UNL     1       6.280  27.831  56.148  1.00  0.00     0.110 C 
BRANCH  21  22
HETATM   22  C   UNL     1       5.558  28.992  56.828  1.00  0.00     0.054 C 
BRANCH  22  23
HETATM   23  C   UNL     1       6.559  29.912  57.489  1.00  0.00    -0.054 A 
HETATM   24  C   UNL     1       7.929  29.603  57.446  1.00  0.00     0.046 A 
HETATM   25  C   UNL     1       8.867  30.400  58.112  1.00  0.00     0.102 A 
HETATM   26  C   UNL     1       8.428  31.521  58.841  1.00  0.00     0.101 A 
HETATM   27  C   UNL     1       7.066  31.840  58.869  1.00  0.00     0.040 A 
HETATM   28  C   UNL     1       6.137  31.037  58.201  1.00  0.00     0.010 A 
BRANCH  25  29
HETATM   29  O   UNL     1      10.218  30.157  58.129  1.00  0.00    -0.353 OA
HETATM   30  C   UNL     1      10.843  29.824  56.897  1.00  0.00     0.210 C 
ENDBRANCH  25  29
BRANCH  26  31
HETATM   31  O   UNL     1       9.402  32.253  59.475  1.00  0.00    -0.353 OA
HETATM   32  C   UNL     1       9.557  32.049  60.872  1.00  0.00     0.210 C 
ENDBRANCH  26  31
ENDBRANCH  22  23
ENDBRANCH  21  22
ENDBRANCH  19  21
ENDBRANCH   1  19
TORSDOF 8
ENDMDL
MODEL 3
REMARK VINA RESULT:      -9.0      2.723      4.444
REMARK  8 active torsions:
REMARK  status: ('A' for Active; 'I' for Inactive)
REMARK    1  A    between atoms: C_7  and  C_8 
REMARK       I    between atoms: C_8  and  N_9 
REMARK    2  A    between atoms: N_9  and  S_10 
REMARK    3  A    between atoms: S_10  and  N_11 
REMARK    4  A    between atoms: N_11  and  C_12 
REMARK    5  A    between atoms: C_12  and  C_13 
REMARK    6  A    between atoms: C_13  and  C_14 
REMARK    7  A    between atoms: C_16  and  O_17 
REMARK    8  A    between atoms: C_19  and  O_20 
ROOT
HETATM    1  S   UNL     1       7.501  26.956  57.265  1.00  0.00     0.303 S 
HETATM    2  O   UNL     1       6.210  27.580  57.412  1.00  0.00    -0.188 OA
HETATM    3  O   UNL     1       7.974  25.981  58.219  1.00  0.00    -0.188 OA
ENDROOT
BRANCH   1   4
HETATM    4  N   UNL     1       7.539  26.224  55.788  1.00  0.00    -0.237 N 
HETATM    5  C   UNL     1       6.739  25.109  55.507  1.00  0.00     0.268 C 
HETATM    6  O   UNL     1       5.689  24.917  56.112  1.00  0.00    -0.267 OA
HETATM    7  H   UNL     1       8.486  26.212  55.440  1.00  0.00     0.183 HD
BRANCH   5   8
HETATM    8  C   UNL     1       7.242  24.189  54.481  1.00  0.00     0.067 A 
HETATM    9  C   UNL     1       7.451  24.401  53.115  1.00  0.00     0.022 A 
HETATM   10  C   UNL     1       7.222  25.561  52.212  1.00  0.00     0.069 C 
HETATM   11  N   UNL     1       7.954  23.234  52.586  1.00  0.00    -0.358 N 
HETATM   12  H   UNL     1       8.204  23.095  51.615  1.00  0.00     0.166 HD
HETATM   13  C   UNL     1       8.054  22.258  53.542  1.00  0.00     0.043 A 
HETATM   14  C   UNL     1       7.616  22.816  54.740  1.00  0.00     0.008 A 
HETATM   15  C   UNL     1       8.495  20.933  53.432  1.00  0.00     0.030 A 
HETATM   16  C   UNL     1       7.625  21.997  55.892  1.00  0.00     0.015 A 
HETATM   17  C   UNL     1       8.060  20.670  55.803  1.00  0.00     0.001 A 
HETATM   18  C   UNL     1       8.489  20.148  54.588  1.00  0.00     0.002 A 
ENDBRANCH   5   8
ENDBRANCH   1   4
BRANCH   1  19
HETATM   19  N   UNL     1       8.660  28.155  57.093  1.00  0.00    -0.202 NA
HETATM   20  H   UNL     1       8.839  28.252  56.083  1.00  0.00     0.141 HD
BRANCH  19  21
HETATM   21  C   UNL     1       8.283  29.487  57.637  1.00  0.00     0.110 C 
BRANCH  21  22
HETATM   22  C   UNL     1       9.392  30.133  58.464  1.00  0.00     0.054 C 
BRANCH  22  23
HETATM   23  C   UNL     1       8.801  30.868  59.645  1.00  0.00    -0.054 A 
HETATM   24  C   UNL     1       7.521  31.438  59.545  1.00  0.00     0.046 A 
HETATM   25  C   UNL     1       6.982  32.185  60.599  1.00  0.00     0.102 A 
HETATM   26  C   UNL     1       7.739  32.372  61.772  1.00  0.00     0.101 A 
HETATM   27  C   UNL     1       9.006  31.788  61.878  1.00  0.00     0.040 A 
HETATM   28  C   UNL     1       9.536  31.045  60.820  1.00  0.00     0.010 A 
BRANCH  25  29
HETATM   29  O   UNL     1       5.748  32.785  60.574  1.00  0.00    -0.353 OA
HETATM   30  C   UNL     1       4.872  32.444  59.507  1.00  0.00     0.210 C 
ENDBRANCH  25  29
BRANCH  26  31
HETATM   31  O   UNL     1       7.151  33.120  62.762  1.00  0.00    -0.353 OA
HETATM   32  C   UNL     1       7.710  33.020  64.064  1.00  0.00     0.210 C 
ENDBRANCH  26  31
ENDBRANCH  22  23
ENDBRANCH  21  22
ENDBRANCH  19  21
ENDBRANCH   1  19
TORSDOF 8
ENDMDL
MODEL 4
REMARK VINA RESULT:      -8.9      2.769      5.218
REMARK  8 active torsions:
REMARK  status: ('A' for Active; 'I' for Inactive)
REMARK    1  A    between atoms: C_7  and  C_8 
REMARK       I    between atoms: C_8  and  N_9 
REMARK    2  A    between atoms: N_9  and  S_10 
REMARK    3  A    between atoms: S_10  and  N_11 
REMARK    4  A    between atoms: N_11  and  C_12 
REMARK    5  A    between atoms: C_12  and  C_13 
REMARK    6  A    between atoms: C_13  and  C_14 
REMARK    7  A    between atoms: C_16  and  O_17 
REMARK    8  A    between atoms: C_19  and  O_20 
ROOT
HETATM    1  S   UNL     1       7.787  26.965  57.204  1.00  0.00     0.303 S 
HETATM    2  O   UNL     1       7.856  26.009  58.280  1.00  0.00    -0.188 OA
HETATM    3  O   UNL     1       8.745  28.039  57.094  1.00  0.00    -0.188 OA
ENDROOT
BRANCH   1   4
HETATM    4  N   UNL     1       7.858  26.127  55.785  1.00  0.00    -0.237 N 
HETATM    5  C   UNL     1       7.053  25.002  55.563  1.00  0.00     0.268 C 
HETATM    6  O   UNL     1       5.985  24.865  56.149  1.00  0.00    -0.267 OA
HETATM    7  H   UNL     1       8.814  26.081  55.466  1.00  0.00     0.183 HD
BRANCH   5   8
HETATM    8  C   UNL     1       7.574  24.005  54.621  1.00  0.00     0.067 A 
HETATM    9  C   UNL     1       7.919  24.144  53.273  1.00  0.00     0.022 A 
HETATM   10  C   UNL     1       7.859  25.278  52.311  1.00  0.00     0.069 C 
HETATM   11  N   UNL     1       8.377  22.922  52.834  1.00  0.00    -0.358 N 
HETATM   12  H   UNL     1       8.701  22.725  51.896  1.00  0.00     0.166 HD
HETATM   13  C   UNL     1       8.318  21.983  53.830  1.00  0.00     0.043 A 
HETATM   14  C   UNL     1       7.819  22.622  54.961  1.00  0.00     0.008 A 
HETATM   15  C   UNL     1       8.666  20.626  53.808  1.00  0.00     0.030 A 
HETATM   16  C   UNL     1       7.664  21.854  56.138  1.00  0.00     0.015 A 
HETATM   17  C   UNL     1       8.004  20.496  56.137  1.00  0.00     0.001 A 
HETATM   18  C   UNL     1       8.498  19.893  54.986  1.00  0.00     0.002 A 
ENDBRANCH   5   8
ENDBRANCH   1   4
BRANCH   1  19
HETATM   19  N   UNL     1       6.239  27.608  57.155  1.00  0.00    -0.202 NA
HETATM   20  H   UNL     1       6.141  28.207  57.988  1.00  0.00     0.141 HD
BRANCH  19  21
HETATM   21  C   UNL     1       5.926  28.420  55.949  1.00  0.00     0.110 C 
BRANCH  21  22
HETATM   22  C   UNL     1       4.644  27.980  55.247  1.00  0.00     0.054 C 
BRANCH  22  23
HETATM   23  C   UNL     1       4.885  27.835  53.762  1.00  0.00    -0.054 A 
HETATM   24  C   UNL     1       5.359  28.930  53.020  1.00  0.00     0.046 A 
HETATM   25  C   UNL     1       5.522  28.843  51.633  1.00  0.00     0.102 A 
HETATM   26  C   UNL     1       5.197  27.642  50.973  1.00  0.00     0.101 A 
HETATM   27  C   UNL     1       4.743  26.546  51.714  1.00  0.00     0.040 A 
HETATM   28  C   UNL     1       4.583  26.643  53.099  1.00  0.00     0.010 A 
BRANCH  25  29
HETATM   29  O   UNL     1       5.965  29.870  50.837  1.00  0.00    -0.353 OA
HETATM   30  C   UNL     1       5.116  31.000  50.685  1.00  0.00     0.210 C 
ENDBRANCH  25  29
BRANCH  26  31
HETATM   31  O   UNL     1       5.375  27.630  49.612  1.00  0.00    -0.353 OA
HETATM   32  C   UNL     1       4.219  27.428  48.812  1.00  0.00     0.210 C 
ENDBRANCH  26  31
ENDBRANCH  22  23
ENDBRANCH  21  22
ENDBRANCH  19  21
ENDBRANCH   1  19
TORSDOF 8
ENDMDL
MODEL 5
REMARK VINA RESULT:      -8.8      2.321      6.756
REMARK  8 active torsions:
REMARK  status: ('A' for Active; 'I' for Inactive)
REMARK    1  A    between atoms: C_7  and  C_8 
REMARK       I    between atoms: C_8  and  N_9 
REMARK    2  A    between atoms: N_9  and  S_10 
REMARK    3  A    between atoms: S_10  and  N_11 
REMARK    4  A    between atoms: N_11  and  C_12 
REMARK    5  A    between atoms: C_12  and  C_13 
REMARK    6  A    between atoms: C_13  and  C_14 
REMARK    7  A    between atoms: C_16  and  O_17 
REMARK    8  A    between atoms: C_19  and  O_20 
ROOT
HETATM    1  S   UNL     1       5.234  27.960  52.938  1.00  0.00     0.303 S 
HETATM    2  O   UNL     1       3.867  28.183  53.334  1.00  0.00    -0.188 OA
HETATM    3  O   UNL     1       5.754  28.500  51.704  1.00  0.00    -0.188 OA
ENDROOT
BRANCH   1   4
HETATM    4  N   UNL     1       6.205  28.529  54.144  1.00  0.00    -0.237 N 
HETATM    5  C   UNL     1       6.062  28.085  55.464  1.00  0.00     0.268 C 
HETATM    6  O   UNL     1       5.586  26.982  55.711  1.00  0.00    -0.267 OA
HETATM    7  H   UNL     1       6.378  29.514  54.004  1.00  0.00     0.183 HD
BRANCH   5   8
HETATM    8  C   UNL     1       6.486  29.018  56.514  1.00  0.00     0.067 A 
HETATM    9  C   UNL     1       5.715  29.778  57.398  1.00  0.00     0.022 A 
HETATM   10  C   UNL     1       4.249  29.960  57.585  1.00  0.00     0.069 C 
HETATM   11  N   UNL     1       6.581  30.481  58.206  1.00  0.00    -0.358 N 
HETATM   12  H   UNL     1       6.303  31.113  58.945  1.00  0.00     0.166 HD
HETATM   13  C   UNL     1       7.885  30.235  57.867  1.00  0.00     0.043 A 
HETATM   14  C   UNL     1       7.866  29.327  56.811  1.00  0.00     0.008 A 
HETATM   15  C   UNL     1       9.068  30.749  58.413  1.00  0.00     0.030 A 
HETATM   16  C   UNL     1       9.107  28.910  56.278  1.00  0.00     0.015 A 
HETATM   17  C   UNL     1      10.301  29.414  56.808  1.00  0.00     0.001 A 
HETATM   18  C   UNL     1      10.278  30.321  57.861  1.00  0.00     0.002 A 
ENDBRANCH   5   8
ENDBRANCH   1   4
BRANCH   1  19
HETATM   19  N   UNL     1       5.545  26.312  52.985  1.00  0.00    -0.202 NA
HETATM   20  H   UNL     1       4.630  25.838  52.980  1.00  0.00     0.141 HD
BRANCH  19  21
HETATM   21  C   UNL     1       6.357  25.787  51.855  1.00  0.00     0.110 C 
BRANCH  21  22
HETATM   22  C   UNL     1       7.789  25.441  52.256  1.00  0.00     0.054 C 
BRANCH  22  23
HETATM   23  C   UNL     1       7.789  24.331  53.282  1.00  0.00    -0.054 A 
HETATM   24  C   UNL     1       7.999  24.632  54.638  1.00  0.00     0.046 A 
HETATM   25  C   UNL     1       8.075  23.615  55.597  1.00  0.00     0.102 A 
HETATM   26  C   UNL     1       7.948  22.273  55.193  1.00  0.00     0.101 A 
HETATM   27  C   UNL     1       7.719  21.974  53.846  1.00  0.00     0.040 A 
HETATM   28  C   UNL     1       7.645  22.997  52.895  1.00  0.00     0.010 A 
BRANCH  25  29
HETATM   29  O   UNL     1       8.292  23.826  56.936  1.00  0.00    -0.353 OA
HETATM   30  C   UNL     1       8.203  25.161  57.416  1.00  0.00     0.210 C 
ENDBRANCH  25  29
BRANCH  26  31
HETATM   31  O   UNL     1       8.040  21.328  56.185  1.00  0.00    -0.353 OA
HETATM   32  C   UNL     1       9.106  20.394  56.090  1.00  0.00     0.210 C 
ENDBRANCH  26  31
ENDBRANCH  22  23
ENDBRANCH  21  22
ENDBRANCH  19  21
ENDBRANCH   1  19
TORSDOF 8
ENDMDL
MODEL 6
REMARK VINA RESULT:      -8.7      3.988      6.904
REMARK  8 active torsions:
REMARK  status: ('A' for Active; 'I' for Inactive)
REMARK    1  A    between atoms: C_7  and  C_8 
REMARK       I    between atoms: C_8  and  N_9 
REMARK    2  A    between atoms: N_9  and  S_10 
REMARK    3  A    between atoms: S_10  and  N_11 
REMARK    4  A    between atoms: N_11  and  C_12 
REMARK    5  A    between atoms: C_12  and  C_13 
REMARK    6  A    between atoms: C_13  and  C_14 
REMARK    7  A    between atoms: C_16  and  O_17 
REMARK    8  A    between atoms: C_19  and  O_20 
ROOT
HETATM    1  S   UNL     1       8.587  30.432  58.917  1.00  0.00     0.303 S 
HETATM    2  O   UNL     1       9.988  30.688  58.699  1.00  0.00    -0.188 OA
HETATM    3  O   UNL     1       7.580  31.379  58.501  1.00  0.00    -0.188 OA
ENDROOT
BRANCH   1   4
HETATM    4  N   UNL     1       8.218  29.002  58.183  1.00  0.00    -0.237 N 
HETATM    5  C   UNL     1       8.276  28.862  56.791  1.00  0.00     0.268 C 
HETATM    6  O   UNL     1       9.012  29.573  56.115  1.00  0.00    -0.267 OA
HETATM    7  H   UNL     1       7.442  28.567  58.660  1.00  0.00     0.183 HD
BRANCH   5   8
HETATM    8  C   UNL     1       7.395  27.847  56.202  1.00  0.00     0.067 A 
HETATM    9  C   UNL     1       6.234  28.005  55.440  1.00  0.00     0.022 A 
HETATM   10  C   UNL     1       5.460  29.193  54.986  1.00  0.00     0.069 C 
HETATM   11  N   UNL     1       5.782  26.748  55.106  1.00  0.00    -0.358 N 
HETATM   12  H   UNL     1       4.957  26.555  54.552  1.00  0.00     0.166 HD
HETATM   13  C   UNL     1       6.580  25.775  55.644  1.00  0.00     0.043 A 
HETATM   14  C   UNL     1       7.599  26.422  56.339  1.00  0.00     0.008 A 
HETATM   15  C   UNL     1       6.474  24.380  55.568  1.00  0.00     0.030 A 
HETATM   16  C   UNL     1       8.566  25.622  56.989  1.00  0.00     0.015 A 
HETATM   17  C   UNL     1       8.476  24.227  56.927  1.00  0.00     0.001 A 
HETATM   18  C   UNL     1       7.443  23.617  56.225  1.00  0.00     0.002 A 
ENDBRANCH   5   8
ENDBRANCH   1   4
BRANCH   1  19
HETATM   19  N   UNL     1       8.354  30.067  60.537  1.00  0.00    -0.202 NA
HETATM   20  H   UNL     1       8.560  29.063  60.647  1.00  0.00     0.141 HD
BRANCH  19  21
HETATM   21  C   UNL     1       9.203  30.831  61.489  1.00  0.00     0.110 C 
BRANCH  21  22
HETATM   22  C   UNL     1       8.820  32.307  61.581  1.00  0.00     0.054 C 
BRANCH  22  23
HETATM   23  C   UNL     1       7.700  32.494  62.578  1.00  0.00    -0.054 A 
HETATM   24  C   UNL     1       6.370  32.260  62.189  1.00  0.00     0.046 A 
HETATM   25  C   UNL     1       5.310  32.495  63.072  1.00  0.00     0.102 A 
HETATM   26  C   UNL     1       5.582  32.981  64.365  1.00  0.00     0.101 A 
HETATM   27  C   UNL     1       6.907  33.196  64.759  1.00  0.00     0.040 A 
HETATM   28  C   UNL     1       7.959  32.959  63.869  1.00  0.00     0.010 A 
BRANCH  25  29
HETATM   29  O   UNL     1       3.986  32.305  62.763  1.00  0.00    -0.353 OA
HETATM   30  C   UNL     1       3.574  32.579  61.430  1.00  0.00     0.210 C 
ENDBRANCH  25  29
BRANCH  26  31
HETATM   31  O   UNL     1       4.494  33.195  65.175  1.00  0.00    -0.353 OA
HETATM   32  C   UNL     1       4.235  34.536  65.565  1.00  0.00     0.210 C 
ENDBRANCH  26  31
ENDBRANCH  22  23
ENDBRANCH  21  22
ENDBRANCH  19  21
ENDBRANCH   1  19
TORSDOF 8
ENDMDL
MODEL 7
REMARK VINA RESULT:      -8.6      2.764      8.041
REMARK  8 active torsions:
REMARK  status: ('A' for Active; 'I' for Inactive)
REMARK    1  A    between atoms: C_7  and  C_8 
REMARK       I    between atoms: C_8  and  N_9 
REMARK    2  A    between atoms: N_9  and  S_10 
REMARK    3  A    between atoms: S_10  and  N_11 
REMARK    4  A    between atoms: N_11  and  C_12 
REMARK    5  A    between atoms: C_12  and  C_13 
REMARK    6  A    between atoms: C_13  and  C_14 
REMARK    7  A    between atoms: C_16  and  O_17 
REMARK    8  A    between atoms: C_19  and  O_20 
ROOT
HETATM    1  S   UNL     1       5.052  28.246  56.349  1.00  0.00     0.303 S 
HETATM    2  O   UNL     1       5.097  26.816  56.517  1.00  0.00    -0.188 OA
HETATM    3  O   UNL     1       3.795  28.949  56.244  1.00  0.00    -0.188 OA
ENDROOT
BRANCH   1   4
HETATM    4  N   UNL     1       5.865  28.926  57.613  1.00  0.00    -0.237 N 
HETATM    5  C   UNL     1       6.410  30.212  57.521  1.00  0.00     0.268 C 
HETATM    6  O   UNL     1       5.942  31.042  56.749  1.00  0.00    -0.267 OA
HETATM    7  H   UNL     1       6.419  28.221  58.077  1.00  0.00     0.183 HD
BRANCH   5   8
HETATM    8  C   UNL     1       7.573  30.488  58.372  1.00  0.00     0.067 A 
HETATM    9  C   UNL     1       8.905  30.088  58.223  1.00  0.00     0.022 A 
HETATM   10  C   UNL     1       9.615  29.243  57.225  1.00  0.00     0.069 C 
HETATM   11  N   UNL     1       9.618  30.619  59.274  1.00  0.00    -0.358 N 
HETATM   12  H   UNL     1      10.611  30.497  59.424  1.00  0.00     0.166 HD
HETATM   13  C   UNL     1       8.804  31.324  60.120  1.00  0.00     0.043 A 
HETATM   14  C   UNL     1       7.517  31.263  59.591  1.00  0.00     0.008 A 
HETATM   15  C   UNL     1       9.111  32.003  61.306  1.00  0.00     0.030 A 
HETATM   16  C   UNL     1       6.483  31.925  60.292  1.00  0.00     0.015 A 
HETATM   17  C   UNL     1       6.769  32.607  61.480  1.00  0.00     0.001 A 
HETATM   18  C   UNL     1       8.067  32.644  61.978  1.00  0.00     0.002 A 
ENDBRANCH   5   8
ENDBRANCH   1   4
BRANCH   1  19
HETATM   19  N   UNL     1       6.020  28.664  55.044  1.00  0.00    -0.202 NA
HETATM   20  H   UNL     1       6.375  29.613  55.230  1.00  0.00     0.141 HD
BRANCH  19  21
HETATM   21  C   UNL     1       7.178  27.765  54.799  1.00  0.00     0.110 C 
BRANCH  21  22
HETATM   22  C   UNL     1       7.121  27.070  53.441  1.00  0.00     0.054 C 
BRANCH  22  23
HETATM   23  C   UNL     1       7.422  25.597  53.595  1.00  0.00    -0.054 A 
HETATM   24  C   UNL     1       7.651  25.060  54.873  1.00  0.00     0.046 A 
HETATM   25  C   UNL     1       8.003  23.715  55.035  1.00  0.00     0.102 A 
HETATM   26  C   UNL     1       8.137  22.893  53.900  1.00  0.00     0.101 A 
HETATM   27  C   UNL     1       7.891  23.423  52.629  1.00  0.00     0.040 A 
HETATM   28  C   UNL     1       7.541  24.768  52.477  1.00  0.00     0.010 A 
BRANCH  25  29
HETATM   29  O   UNL     1       8.256  23.120  56.247  1.00  0.00    -0.353 OA
HETATM   30  C   UNL     1       8.695  23.953  57.311  1.00  0.00     0.210 C 
ENDBRANCH  25  29
BRANCH  26  31
HETATM   31  O   UNL     1       8.491  21.587  54.133  1.00  0.00    -0.353 OA
HETATM   32  C   UNL     1       8.291  20.665  53.072  1.00  0.00     0.210 C 
ENDBRANCH  26  31
ENDBRANCH  22  23
ENDBRANCH  21  22
ENDBRANCH  19  21
ENDBRANCH   1  19
TORSDOF 8
ENDMDL
MODEL 8
REMARK VINA RESULT:      -8.6      3.250      9.398
REMARK  8 active torsions:
REMARK  status: ('A' for Active; 'I' for Inactive)
REMARK    1  A    between atoms: C_7  and  C_8 
REMARK       I    between atoms: C_8  and  N_9 
REMARK    2  A    between atoms: N_9  and  S_10 
REMARK    3  A    between atoms: S_10  and  N_11 
REMARK    4  A    between atoms: N_11  and  C_12 
REMARK    5  A    between atoms: C_12  and  C_13 
REMARK    6  A    between atoms: C_13  and  C_14 
REMARK    7  A    between atoms: C_16  and  O_17 
REMARK    8  A    between atoms: C_19  and  O_20 
ROOT
HETATM    1  S   UNL     1       8.750  29.366  57.241  1.00  0.00     0.303 S 
HETATM    2  O   UNL     1       8.170  29.433  55.923  1.00  0.00    -0.188 OA
HETATM    3  O   UNL     1      10.175  29.228  57.424  1.00  0.00    -0.188 OA
ENDROOT
BRANCH   1   4
HETATM    4  N   UNL     1       8.301  30.728  58.056  1.00  0.00    -0.237 N 
HETATM    5  C   UNL     1       8.182  30.734  59.451  1.00  0.00     0.268 C 
HETATM    6  O   UNL     1       8.820  29.948  60.143  1.00  0.00    -0.267 OA
HETATM    7  H   UNL     1       7.595  31.221  57.530  1.00  0.00     0.183 HD
BRANCH   5   8
HETATM    8  C   UNL     1       7.241  31.706  60.020  1.00  0.00     0.067 A 
HETATM    9  C   UNL     1       6.121  32.310  59.440  1.00  0.00     0.022 A 
HETATM   10  C   UNL     1       5.504  32.239  58.087  1.00  0.00     0.069 C 
HETATM   11  N   UNL     1       5.556  33.133  60.388  1.00  0.00    -0.358 N 
HETATM   12  H   UNL     1       4.727  33.696  60.248  1.00  0.00     0.166 HD
HETATM   13  C   UNL     1       6.276  33.116  61.552  1.00  0.00     0.043 A 
HETATM   14  C   UNL     1       7.339  32.237  61.361  1.00  0.00     0.008 A 
HETATM   15  C   UNL     1       6.065  33.811  62.750  1.00  0.00     0.030 A 
HETATM   16  C   UNL     1       8.237  32.044  62.434  1.00  0.00     0.015 A 
HETATM   17  C   UNL     1       8.046  32.731  63.639  1.00  0.00     0.001 A 
HETATM   18  C   UNL     1       6.973  33.602  63.792  1.00  0.00     0.002 A 
ENDBRANCH   5   8
ENDBRANCH   1   4
BRANCH   1  19
HETATM   19  N   UNL     1       7.970  28.162  58.110  1.00  0.00    -0.202 NA
HETATM   20  H   UNL     1       7.213  28.621  58.638  1.00  0.00     0.141 HD
BRANCH  19  21
HETATM   21  C   UNL     1       7.381  27.068  57.292  1.00  0.00     0.110 C 
BRANCH  21  22
HETATM   22  C   UNL     1       7.828  25.679  57.740  1.00  0.00     0.054 C 
BRANCH  22  23
HETATM   23  C   UNL     1       7.806  24.721  56.571  1.00  0.00    -0.054 A 
HETATM   24  C   UNL     1       7.072  25.043  55.417  1.00  0.00     0.046 A 
HETATM   25  C   UNL     1       6.977  24.142  54.350  1.00  0.00     0.102 A 
HETATM   26  C   UNL     1       7.620  22.893  54.441  1.00  0.00     0.101 A 
HETATM   27  C   UNL     1       8.366  22.580  55.582  1.00  0.00     0.040 A 
HETATM   28  C   UNL     1       8.454  23.487  56.643  1.00  0.00     0.010 A 
BRANCH  25  29
HETATM   29  O   UNL     1       6.269  24.376  53.198  1.00  0.00    -0.353 OA
HETATM   30  C   UNL     1       4.993  24.990  53.321  1.00  0.00     0.210 C 
ENDBRANCH  25  29
BRANCH  26  31
HETATM   31  O   UNL     1       7.479  22.057  53.361  1.00  0.00    -0.353 OA
HETATM   32  C   UNL     1       8.432  21.013  53.224  1.00  0.00     0.210 C 
ENDBRANCH  26  31
ENDBRANCH  22  23
ENDBRANCH  21  22
ENDBRANCH  19  21
ENDBRANCH   1  19
TORSDOF 8
ENDMDL
MODEL 9
REMARK VINA RESULT:      -8.5      4.565      7.309
REMARK  8 active torsions:
REMARK  status: ('A' for Active; 'I' for Inactive)
REMARK    1  A    between atoms: C_7  and  C_8 
REMARK       I    between atoms: C_8  and  N_9 
REMARK    2  A    between atoms: N_9  and  S_10 
REMARK    3  A    between atoms: S_10  and  N_11 
REMARK    4  A    between atoms: N_11  and  C_12 
REMARK    5  A    between atoms: C_12  and  C_13 
REMARK    6  A    between atoms: C_13  and  C_14 
REMARK    7  A    between atoms: C_16  and  O_17 
REMARK    8  A    between atoms: C_19  and  O_20 
ROOT
HETATM    1  S   UNL     1       5.751  27.469  53.304  1.00  0.00     0.303 S 
HETATM    2  O   UNL     1       4.935  27.743  54.460  1.00  0.00    -0.188 OA
HETATM    3  O   UNL     1       6.641  28.468  52.763  1.00  0.00    -0.188 OA
ENDROOT
BRANCH   1   4
HETATM    4  N   UNL     1       6.679  26.149  53.647  1.00  0.00    -0.237 N 
HETATM    5  C   UNL     1       6.099  24.921  53.988  1.00  0.00     0.268 C 
HETATM    6  O   UNL     1       4.970  24.629  53.609  1.00  0.00    -0.267 OA
HETATM    7  H   UNL     1       7.495  26.435  54.167  1.00  0.00     0.183 HD
BRANCH   5   8
HETATM    8  C   UNL     1       6.905  24.034  54.834  1.00  0.00     0.067 A 
HETATM    9  C   UNL     1       7.279  24.174  56.174  1.00  0.00     0.022 A 
HETATM   10  C   UNL     1       7.054  25.233  57.196  1.00  0.00     0.069 C 
HETATM   11  N   UNL     1       8.018  23.064  56.517  1.00  0.00    -0.358 N 
HETATM   12  H   UNL     1       8.419  22.892  57.430  1.00  0.00     0.166 HD
HETATM   13  C   UNL     1       8.170  22.220  55.450  1.00  0.00     0.043 A 
HETATM   14  C   UNL     1       7.489  22.793  54.378  1.00  0.00     0.008 A 
HETATM   15  C   UNL     1       8.855  21.002  55.357  1.00  0.00     0.030 A 
HETATM   16  C   UNL     1       7.496  22.100  53.146  1.00  0.00     0.015 A 
HETATM   17  C   UNL     1       8.178  20.883  53.032  1.00  0.00     0.001 A 
HETATM   18  C   UNL     1       8.847  20.343  54.124  1.00  0.00     0.002 A 
ENDBRANCH   5   8
ENDBRANCH   1   4
BRANCH   1  19
HETATM   19  N   UNL     1       4.764  26.896  52.075  1.00  0.00    -0.202 NA
HETATM   20  H   UNL     1       3.795  27.123  52.342  1.00  0.00     0.141 HD
BRANCH  19  21
HETATM   21  C   UNL     1       5.031  27.467  50.728  1.00  0.00     0.110 C 
BRANCH  21  22
HETATM   22  C   UNL     1       4.802  26.467  49.597  1.00  0.00     0.054 C 
BRANCH  22  23
HETATM   23  C   UNL     1       3.557  26.833  48.822  1.00  0.00    -0.054 A 
HETATM   24  C   UNL     1       2.885  28.034  49.103  1.00  0.00     0.046 A 
HETATM   25  C   UNL     1       1.692  28.361  48.450  1.00  0.00     0.102 A 
HETATM   26  C   UNL     1       1.154  27.467  47.504  1.00  0.00     0.101 A 
HETATM   27  C   UNL     1       1.833  26.279  47.210  1.00  0.00     0.040 A 
HETATM   28  C   UNL     1       3.025  25.962  47.869  1.00  0.00     0.010 A 
BRANCH  25  29
HETATM   29  O   UNL     1       0.970  29.506  48.678  1.00  0.00    -0.353 OA
HETATM   30  C   UNL     1       1.278  30.257  49.845  1.00  0.00     0.210 C 
ENDBRANCH  25  29
BRANCH  26  31
HETATM   31  O   UNL     1      -0.022  27.848  46.907  1.00  0.00    -0.353 OA
HETATM   32  C   UNL     1      -0.225  27.439  45.562  1.00  0.00     0.210 C 
ENDBRANCH  26  31
ENDBRANCH  22  23
ENDBRANCH  21  22
ENDBRANCH  19  21
ENDBRANCH   1  19
TORSDOF 8
ENDMDL
MODEL 10
REMARK VINA RESULT:      -8.4      3.983      6.658
REMARK  8 active torsions:
REMARK  status: ('A' for Active; 'I' for Inactive)
REMARK    1  A    between atoms: C_7  and  C_8 
REMARK       I    between atoms: C_8  and  N_9 
REMARK    2  A    between atoms: N_9  and  S_10 
REMARK    3  A    between atoms: S_10  and  N_11 
REMARK    4  A    between atoms: N_11  and  C_12 
REMARK    5  A    between atoms: C_12  and  C_13 
REMARK    6  A    between atoms: C_13  and  C_14 
REMARK    7  A    between atoms: C_16  and  O_17 
REMARK    8  A    between atoms: C_19  and  O_20 
ROOT
HETATM    1  S   UNL     1       6.728  27.762  55.529  1.00  0.00     0.303 S 
HETATM    2  O   UNL     1       6.054  27.864  56.798  1.00  0.00    -0.188 OA
HETATM    3  O   UNL     1       8.108  28.162  55.380  1.00  0.00    -0.188 OA
ENDROOT
BRANCH   1   4
HETATM    4  N   UNL     1       6.640  26.190  55.038  1.00  0.00    -0.237 N 
HETATM    5  C   UNL     1       7.574  25.240  55.469  1.00  0.00     0.268 C 
HETATM    6  O   UNL     1       8.173  25.379  56.530  1.00  0.00    -0.267 OA
HETATM    7  H   UNL     1       6.355  26.152  54.071  1.00  0.00     0.183 HD
BRANCH   5   8
HETATM    8  C   UNL     1       7.805  24.102  54.572  1.00  0.00     0.067 A 
HETATM    9  C   UNL     1       7.890  24.066  53.177  1.00  0.00     0.022 A 
HETATM   10  C   UNL     1       7.748  25.099  52.115  1.00  0.00     0.069 C 
HETATM   11  N   UNL     1       8.138  22.763  52.809  1.00  0.00    -0.358 N 
HETATM   12  H   UNL     1       8.251  22.438  51.858  1.00  0.00     0.166 HD
HETATM   13  C   UNL     1       8.188  21.939  53.903  1.00  0.00     0.043 A 
HETATM   14  C   UNL     1       7.982  22.739  55.024  1.00  0.00     0.008 A 
HETATM   15  C   UNL     1       8.397  20.556  53.978  1.00  0.00     0.030 A 
HETATM   16  C   UNL     1       7.990  22.114  56.291  1.00  0.00     0.015 A 
HETATM   17  C   UNL     1       8.195  20.733  56.388  1.00  0.00     0.001 A 
HETATM   18  C   UNL     1       8.395  19.967  55.246  1.00  0.00     0.002 A 
ENDBRANCH   5   8
ENDBRANCH   1   4
BRANCH   1  19
HETATM   19  N   UNL     1       5.807  28.545  54.367  1.00  0.00    -0.202 NA
HETATM   20  H   UNL     1       6.195  29.495  54.271  1.00  0.00     0.141 HD
BRANCH  19  21
HETATM   21  C   UNL     1       5.795  27.901  53.026  1.00  0.00     0.110 C 
BRANCH  21  22
HETATM   22  C   UNL     1       5.693  28.905  51.880  1.00  0.00     0.054 C 
BRANCH  22  23
HETATM   23  C   UNL     1       5.307  28.199  50.601  1.00  0.00    -0.054 A 
HETATM   24  C   UNL     1       5.343  28.894  49.380  1.00  0.00     0.046 A 
HETATM   25  C   UNL     1       4.921  28.284  48.193  1.00  0.00     0.102 A 
HETATM   26  C   UNL     1       4.448  26.959  48.227  1.00  0.00     0.101 A 
HETATM   27  C   UNL     1       4.429  26.261  49.439  1.00  0.00     0.040 A 
HETATM   28  C   UNL     1       4.852  26.879  50.620  1.00  0.00     0.010 A 
BRANCH  25  29
HETATM   29  O   UNL     1       4.912  28.899  46.966  1.00  0.00    -0.353 OA
HETATM   30  C   UNL     1       4.302  30.179  46.874  1.00  0.00     0.210 C 
ENDBRANCH  25  29
BRANCH  26  31
HETATM   31  O   UNL     1       4.044  26.426  47.027  1.00  0.00    -0.353 OA
HETATM   32  C   UNL     1       2.817  25.712  47.018  1.00  0.00     0.210 C 
ENDBRANCH  26  31
ENDBRANCH  22  23
ENDBRANCH  21  22
ENDBRANCH  19  21
ENDBRANCH   1  19
TORSDOF 8
ENDMDL
