MODEL 1
REMARK VINA RESULT:      -8.1      0.000      0.000
REMARK  2 active torsions:
REMARK  status: ('A' for Active; 'I' for Inactive)
REMARK    1  A    between atoms: C_6  and  N_7 
REMARK       I    between atoms: N_7  and  C_8 
REMARK       I    between atoms: C_8  and  N_9 
REMARK    2  A    between atoms: N_9  and  C_10 
ROOT
HETATM    1  N   UNL     1       7.400  28.787  54.823  1.00  0.00    -0.306 N 
HETATM    2  C   UNL     1       7.044  27.559  54.368  1.00  0.00     0.321 C 
HETATM    3  N   UNL     1       7.601  26.461  54.943  1.00  0.00    -0.338 N 
HETATM    4  O   UNL     1       6.336  27.480  53.367  1.00  0.00    -0.247 OA
HETATM    5  H   UNL     1       7.134  29.492  54.142  1.00  0.00     0.171 HD
HETATM    6  H   UNL     1       7.837  26.550  55.922  1.00  0.00     0.164 HD
ENDROOT
BRANCH   3   7
HETATM    7  C   UNL     1       7.384  25.105  54.458  1.00  0.00     0.092 C 
HETATM    8  C   UNL     1       7.766  24.041  55.526  1.00  0.00     0.084 C 
HETATM    9  C   UNL     1       7.767  22.705  54.906  1.00  0.00     0.034 A 
HETATM   10  C   UNL     1       7.756  22.446  53.553  1.00  0.00     0.033 A 
HETATM   11  N   UNL     1       7.814  21.476  55.532  1.00  0.00    -0.354 N 
HETATM   12  N   UNL     1       7.785  21.074  53.424  1.00  0.00    -0.354 N 
HETATM   13  C   UNL     1       7.691  23.463  52.488  1.00  0.00     0.061 C 
HETATM   14  H   UNL     1       7.787  20.567  52.541  1.00  0.00     0.166 HD
HETATM   15  C   UNL     1       7.831  20.492  54.628  1.00  0.00     0.180 A 
HETATM   16  C   UNL     1       8.050  24.845  53.074  1.00  0.00     0.031 C 
HETATM   17  H   UNL     1       7.851  21.334  56.540  1.00  0.00     0.166 HD
ENDBRANCH   3   7
BRANCH   1  18
HETATM   18  C   UNL     1       8.267  29.220  55.852  1.00  0.00     0.077 A 
HETATM   19  C   UNL     1       7.953  29.536  57.177  1.00  0.00     0.152 A 
HETATM   20  N   UNL     1       8.860  29.886  58.120  1.00  0.00    -0.247 NA
HETATM   21 CL   UNL     1       6.345  29.708  57.775  1.00  0.00    -0.060 Cl
HETATM   22  C   UNL     1      10.147  29.975  57.731  1.00  0.00     0.118 A 
HETATM   23  C   UNL     1      10.564  29.750  56.433  1.00  0.00     0.022 A 
HETATM   24  C   UNL     1       9.610  29.380  55.485  1.00  0.00     0.034 A 
ENDBRANCH   1  18
TORSDOF 2
ENDMDL
MODEL 2
REMARK VINA RESULT:      -8.1      1.831      2.106
REMARK  2 active torsions:
REMARK  status: ('A' for Active; 'I' for Inactive)
REMARK    1  A    between atoms: C_6  and  N_7 
REMARK       I    between atoms: N_7  and  C_8 
REMARK       I    between atoms: C_8  and  N_9 
REMARK    2  A    between atoms: N_9  and  C_10 
ROOT
HETATM    1  N   UNL     1       6.867  28.133  56.957  1.00  0.00    -0.306 N 
HETATM    2  C   UNL     1       6.599  26.828  56.698  1.00  0.00     0.321 C 
HETATM    3  N   UNL     1       7.618  26.013  56.320  1.00  0.00    -0.338 N 
HETATM    4  O   UNL     1       5.427  26.455  56.679  1.00  0.00    -0.247 OA
HETATM    5  H   UNL     1       6.002  28.665  56.952  1.00  0.00     0.171 HD
HETATM    6  H   UNL     1       8.526  26.239  56.703  1.00  0.00     0.164 HD
ENDROOT
BRANCH   3   7
HETATM    7  C   UNL     1       7.426  24.631  55.902  1.00  0.00     0.092 C 
HETATM    8  C   UNL     1       8.180  23.637  56.831  1.00  0.00     0.084 C 
HETATM    9  C   UNL     1       8.161  22.293  56.227  1.00  0.00     0.034 A 
HETATM   10  C   UNL     1       7.828  22.003  54.922  1.00  0.00     0.033 A 
HETATM   11  N   UNL     1       8.496  21.091  56.814  1.00  0.00    -0.354 N 
HETATM   12  N   UNL     1       7.967  20.639  54.785  1.00  0.00    -0.354 N 
HETATM   13  C   UNL     1       7.384  22.984  53.913  1.00  0.00     0.061 C 
HETATM   14  H   UNL     1       7.794  20.114  53.929  1.00  0.00     0.166 HD
HETATM   15  C   UNL     1       8.382  20.093  55.933  1.00  0.00     0.180 A 
HETATM   16  C   UNL     1       7.736  24.408  54.392  1.00  0.00     0.031 C 
HETATM   17  H   UNL     1       8.807  20.977  57.777  1.00  0.00     0.166 HD
ENDBRANCH   3   7
BRANCH   1  18
HETATM   18  C   UNL     1       8.058  28.893  56.948  1.00  0.00     0.077 A 
HETATM   19  C   UNL     1       8.871  29.223  55.860  1.00  0.00     0.152 A 
HETATM   20  N   UNL     1       9.969  30.013  55.931  1.00  0.00    -0.247 NA
HETATM   21 CL   UNL     1       8.709  28.532  54.289  1.00  0.00    -0.060 Cl
HETATM   22  C   UNL     1      10.319  30.469  57.149  1.00  0.00     0.118 A 
HETATM   23  C   UNL     1       9.628  30.154  58.304  1.00  0.00     0.022 A 
HETATM   24  C   UNL     1       8.495  29.348  58.200  1.00  0.00     0.034 A 
ENDBRANCH   1  18
TORSDOF 2
ENDMDL
MODEL 3
REMARK VINA RESULT:      -8.0      2.606      7.405
REMARK  2 active torsions:
REMARK  status: ('A' for Active; 'I' for Inactive)
REMARK    1  A    between atoms: C_6  and  N_7 
REMARK       I    between atoms: N_7  and  C_8 
REMARK       I    between atoms: C_8  and  N_9 
REMARK    2  A    between atoms: N_9  and  C_10 
ROOT
HETATM    1  N   UNL     1       7.405  25.200  56.051  1.00  0.00    -0.306 N 
HETATM    2  C   UNL     1       7.801  26.120  56.968  1.00  0.00     0.321 C 
HETATM    3  N   UNL     1       8.145  27.363  56.541  1.00  0.00    -0.338 N 
HETATM    4  O   UNL     1       7.965  25.764  58.133  1.00  0.00    -0.247 OA
HETATM    5  H   UNL     1       7.449  24.272  56.461  1.00  0.00     0.171 HD
HETATM    6  H   UNL     1       7.657  27.696  55.720  1.00  0.00     0.164 HD
ENDROOT
BRANCH   3   7
HETATM    7  C   UNL     1       8.696  28.388  57.417  1.00  0.00     0.092 C 
HETATM    8  C   UNL     1       7.582  29.138  58.201  1.00  0.00     0.084 C 
HETATM    9  C   UNL     1       8.163  30.314  58.871  1.00  0.00     0.034 A 
HETATM   10  C   UNL     1       9.400  30.860  58.607  1.00  0.00     0.033 A 
HETATM   11  N   UNL     1       7.594  31.106  59.847  1.00  0.00    -0.354 N 
HETATM   12  N   UNL     1       9.524  31.950  59.442  1.00  0.00    -0.354 N 
HETATM   13  C   UNL     1      10.380  30.334  57.639  1.00  0.00     0.061 C 
HETATM   14  H   UNL     1      10.332  32.569  59.484  1.00  0.00     0.166 HD
HETATM   15  C   UNL     1       8.421  32.100  60.184  1.00  0.00     0.180 A 
HETATM   16  C   UNL     1       9.677  29.348  56.681  1.00  0.00     0.031 C 
HETATM   17  H   UNL     1       6.665  30.970  60.243  1.00  0.00     0.166 HD
ENDBRANCH   3   7
BRANCH   1  18
HETATM   18  C   UNL     1       7.233  25.248  54.649  1.00  0.00     0.077 A 
HETATM   19  C   UNL     1       6.385  26.074  53.905  1.00  0.00     0.152 A 
HETATM   20  N   UNL     1       6.327  26.097  52.552  1.00  0.00    -0.247 NA
HETATM   21 CL   UNL     1       5.150  27.061  54.593  1.00  0.00    -0.060 Cl
HETATM   22  C   UNL     1       7.114  25.229  51.889  1.00  0.00     0.118 A 
HETATM   23  C   UNL     1       7.943  24.321  52.521  1.00  0.00     0.022 A 
HETATM   24  C   UNL     1       7.991  24.327  53.915  1.00  0.00     0.034 A 
ENDBRANCH   1  18
TORSDOF 2
ENDMDL
MODEL 4
REMARK VINA RESULT:      -8.0      2.348      2.913
REMARK  2 active torsions:
REMARK  status: ('A' for Active; 'I' for Inactive)
REMARK    1  A    between atoms: C_6  and  N_7 
REMARK       I    between atoms: N_7  and  C_8 
REMARK       I    between atoms: C_8  and  N_9 
REMARK    2  A    between atoms: N_9  and  C_10 
ROOT
HETATM    1  N   UNL     1       4.848  27.021  54.153  1.00  0.00    -0.306 N 
HETATM    2  C   UNL     1       5.154  25.714  53.944  1.00  0.00     0.321 C 
HETATM    3  N   UNL     1       6.129  25.142  54.697  1.00  0.00    -0.338 N 
HETATM    4  O   UNL     1       4.639  25.130  52.993  1.00  0.00    -0.247 OA
HETATM    5  H   UNL     1       4.323  27.377  53.361  1.00  0.00     0.171 HD
HETATM    6  H   UNL     1       6.227  25.503  55.636  1.00  0.00     0.164 HD
ENDROOT
BRANCH   3   7
HETATM    7  C   UNL     1       6.620  23.788  54.478  1.00  0.00     0.092 C 
HETATM    8  C   UNL     1       7.223  23.175  55.774  1.00  0.00     0.084 C 
HETATM    9  C   UNL     1       7.923  21.922  55.443  1.00  0.00     0.034 A 
HETATM   10  C   UNL     1       8.276  21.510  54.177  1.00  0.00     0.033 A 
HETATM   11  N   UNL     1       8.384  20.951  56.306  1.00  0.00    -0.354 N 
HETATM   12  N   UNL     1       8.926  20.304  54.333  1.00  0.00    -0.354 N 
HETATM   13  C   UNL     1       7.973  22.229  52.926  1.00  0.00     0.061 C 
HETATM   14  H   UNL     1       9.313  19.743  53.577  1.00  0.00     0.166 HD
HETATM   15  C   UNL     1       8.997  19.976  55.628  1.00  0.00     0.180 A 
HETATM   16  C   UNL     1       7.576  23.685  53.253  1.00  0.00     0.031 C 
HETATM   17  H   UNL     1       8.293  20.978  57.320  1.00  0.00     0.166 HD
ENDBRANCH   3   7
BRANCH   1  18
HETATM   18  C   UNL     1       5.330  27.990  55.060  1.00  0.00     0.077 A 
HETATM   19  C   UNL     1       6.573  28.631  55.070  1.00  0.00     0.152 A 
HETATM   20  N   UNL     1       6.933  29.599  55.946  1.00  0.00    -0.247 NA
HETATM   21 CL   UNL     1       7.908  28.162  54.085  1.00  0.00    -0.060 Cl
HETATM   22  C   UNL     1       6.039  29.929  56.898  1.00  0.00     0.118 A 
HETATM   23  C   UNL     1       4.806  29.317  57.025  1.00  0.00     0.022 A 
HETATM   24  C   UNL     1       4.458  28.331  56.102  1.00  0.00     0.034 A 
ENDBRANCH   1  18
TORSDOF 2
ENDMDL
MODEL 5
REMARK VINA RESULT:      -7.8      5.648     10.181
REMARK  2 active torsions:
REMARK  status: ('A' for Active; 'I' for Inactive)
REMARK    1  A    between atoms: C_6  and  N_7 
REMARK       I    between atoms: N_7  and  C_8 
REMARK       I    between atoms: C_8  and  N_9 
REMARK    2  A    between atoms: N_9  and  C_10 
ROOT
HETATM    1  N   UNL     1       7.078  31.136  58.324  1.00  0.00    -0.306 N 
HETATM    2  C   UNL     1       7.000  31.725  59.545  1.00  0.00     0.321 C 
HETATM    3  N   UNL     1       7.204  30.964  60.652  1.00  0.00    -0.338 N 
HETATM    4  O   UNL     1       6.614  32.889  59.619  1.00  0.00    -0.247 OA
HETATM    5  H   UNL     1       6.641  31.735  57.630  1.00  0.00     0.171 HD
HETATM    6  H   UNL     1       7.849  30.193  60.542  1.00  0.00     0.164 HD
ENDROOT
BRANCH   3   7
HETATM    7  C   UNL     1       7.027  31.462  62.010  1.00  0.00     0.092 C 
HETATM    8  C   UNL     1       5.574  31.958  62.258  1.00  0.00     0.084 C 
HETATM    9  C   UNL     1       5.516  32.672  63.545  1.00  0.00     0.034 A 
HETATM   10  C   UNL     1       6.601  33.119  64.267  1.00  0.00     0.033 A 
HETATM   11  N   UNL     1       4.397  33.059  64.254  1.00  0.00    -0.354 N 
HETATM   12  N   UNL     1       6.088  33.746  65.382  1.00  0.00    -0.354 N 
HETATM   13  C   UNL     1       8.015  32.918  63.900  1.00  0.00     0.061 C 
HETATM   14  H   UNL     1       6.641  34.186  66.115  1.00  0.00     0.166 HD
HETATM   15  C   UNL     1       4.750  33.715  65.363  1.00  0.00     0.180 A 
HETATM   16  C   UNL     1       8.107  32.508  62.415  1.00  0.00     0.031 C 
HETATM   17  H   UNL     1       3.435  32.890  63.966  1.00  0.00     0.166 HD
ENDBRANCH   3   7
BRANCH   1  18
HETATM   18  C   UNL     1       7.370  29.818  57.906  1.00  0.00     0.077 A 
HETATM   19  C   UNL     1       8.619  29.208  57.764  1.00  0.00     0.152 A 
HETATM   20  N   UNL     1       8.808  27.913  57.415  1.00  0.00    -0.247 NA
HETATM   21 CL   UNL     1      10.121  30.053  57.832  1.00  0.00    -0.060 Cl
HETATM   22  C   UNL     1       7.708  27.184  57.145  1.00  0.00     0.118 A 
HETATM   23  C   UNL     1       6.426  27.700  57.188  1.00  0.00     0.022 A 
HETATM   24  C   UNL     1       6.261  29.033  57.562  1.00  0.00     0.034 A 
ENDBRANCH   1  18
TORSDOF 2
ENDMDL
MODEL 6
REMARK VINA RESULT:      -7.8      3.341      7.493
REMARK  2 active torsions:
REMARK  status: ('A' for Active; 'I' for Inactive)
REMARK    1  A    between atoms: C_6  and  N_7 
REMARK       I    between atoms: N_7  and  C_8 
REMARK       I    between atoms: C_8  and  N_9 
REMARK    2  A    between atoms: N_9  and  C_10 
ROOT
HETATM    1  N   UNL     1       8.774  23.284  56.743  1.00  0.00    -0.306 N 
HETATM    2  C   UNL     1       8.455  24.418  57.419  1.00  0.00     0.321 C 
HETATM    3  N   UNL     1       7.666  25.341  56.811  1.00  0.00    -0.338 N 
HETATM    4  O   UNL     1       8.998  24.637  58.500  1.00  0.00    -0.247 OA
HETATM    5  H   UNL     1       9.567  22.834  57.190  1.00  0.00     0.171 HD
HETATM    6  H   UNL     1       6.986  24.976  56.158  1.00  0.00     0.164 HD
ENDROOT
BRANCH   3   7
HETATM    7  C   UNL     1       7.360  26.642  57.392  1.00  0.00     0.092 C 
HETATM    8  C   UNL     1       5.920  27.110  57.035  1.00  0.00     0.084 C 
HETATM    9  C   UNL     1       5.753  28.520  57.429  1.00  0.00     0.034 A 
HETATM   10  C   UNL     1       6.771  29.388  57.758  1.00  0.00     0.033 A 
HETATM   11  N   UNL     1       4.584  29.247  57.514  1.00  0.00    -0.354 N 
HETATM   12  N   UNL     1       6.169  30.596  58.037  1.00  0.00    -0.354 N 
HETATM   13  C   UNL     1       8.204  29.044  57.821  1.00  0.00     0.061 C 
HETATM   14  H   UNL     1       6.657  31.447  58.312  1.00  0.00     0.166 HD
HETATM   15  C   UNL     1       4.843  30.507  57.876  1.00  0.00     0.180 A 
HETATM   16  C   UNL     1       8.446  27.713  57.078  1.00  0.00     0.031 C 
HETATM   17  H   UNL     1       3.654  28.886  57.309  1.00  0.00     0.166 HD
ENDBRANCH   3   7
BRANCH   1  18
HETATM   18  C   UNL     1       8.428  22.794  55.464  1.00  0.00     0.077 A 
HETATM   19  C   UNL     1       8.080  21.491  55.096  1.00  0.00     0.152 A 
HETATM   20  N   UNL     1       7.699  21.118  53.851  1.00  0.00    -0.247 NA
HETATM   21 CL   UNL     1       8.256  20.118  56.124  1.00  0.00    -0.060 Cl
HETATM   22  C   UNL     1       7.702  22.070  52.898  1.00  0.00     0.118 A 
HETATM   23  C   UNL     1       8.090  23.376  53.131  1.00  0.00     0.022 A 
HETATM   24  C   UNL     1       8.466  23.734  54.425  1.00  0.00     0.034 A 
ENDBRANCH   1  18
TORSDOF 2
ENDMDL
MODEL 7
REMARK VINA RESULT:      -7.7      3.121      7.328
REMARK  2 active torsions:
REMARK  status: ('A' for Active; 'I' for Inactive)
REMARK    1  A    between atoms: C_6  and  N_7 
REMARK       I    between atoms: N_7  and  C_8 
REMARK       I    between atoms: C_8  and  N_9 
REMARK    2  A    between atoms: N_9  and  C_10 
ROOT
HETATM    1  N   UNL     1       7.198  23.239  53.923  1.00  0.00    -0.306 N 
HETATM    2  C   UNL     1       6.956  24.547  54.194  1.00  0.00     0.321 C 
HETATM    3  N   UNL     1       7.308  25.039  55.410  1.00  0.00    -0.338 N 
HETATM    4  O   UNL     1       6.307  25.210  53.388  1.00  0.00    -0.247 OA
HETATM    5  H   UNL     1       6.649  22.952  53.119  1.00  0.00     0.171 HD
HETATM    6  H   UNL     1       8.118  24.612  55.839  1.00  0.00     0.164 HD
ENDROOT
BRANCH   3   7
HETATM    7  C   UNL     1       6.989  26.391  55.851  1.00  0.00     0.092 C 
HETATM    8  C   UNL     1       8.097  26.974  56.774  1.00  0.00     0.084 C 
HETATM    9  C   UNL     1       7.614  28.225  57.386  1.00  0.00     0.034 A 
HETATM   10  C   UNL     1       6.305  28.654  57.411  1.00  0.00     0.033 A 
HETATM   11  N   UNL     1       8.344  29.175  58.067  1.00  0.00    -0.354 N 
HETATM   12  N   UNL     1       6.307  29.849  58.098  1.00  0.00    -0.354 N 
HETATM   13  C   UNL     1       5.164  27.960  56.787  1.00  0.00     0.061 C 
HETATM   14  H   UNL     1       5.484  30.419  58.288  1.00  0.00     0.166 HD
HETATM   15  C   UNL     1       7.545  30.155  58.502  1.00  0.00     0.180 A 
HETATM   16  C   UNL     1       5.562  26.504  56.464  1.00  0.00     0.031 C 
HETATM   17  H   UNL     1       9.347  29.132  58.237  1.00  0.00     0.166 HD
ENDBRANCH   3   7
BRANCH   1  18
HETATM   18  C   UNL     1       7.800  22.196  54.663  1.00  0.00     0.077 A 
HETATM   19  C   UNL     1       8.379  21.015  54.190  1.00  0.00     0.152 A 
HETATM   20  N   UNL     1       8.992  20.093  54.969  1.00  0.00    -0.247 NA
HETATM   21 CL   UNL     1       8.244  20.458  52.564  1.00  0.00    -0.060 Cl
HETATM   22  C   UNL     1       9.000  20.319  56.297  1.00  0.00     0.118 A 
HETATM   23  C   UNL     1       8.402  21.418  56.883  1.00  0.00     0.022 A 
HETATM   24  C   UNL     1       7.787  22.358  56.055  1.00  0.00     0.034 A 
ENDBRANCH   1  18
TORSDOF 2
ENDMDL
MODEL 8
REMARK VINA RESULT:      -7.6      1.690      7.138
REMARK  2 active torsions:
REMARK  status: ('A' for Active; 'I' for Inactive)
REMARK    1  A    between atoms: C_6  and  N_7 
REMARK       I    between atoms: N_7  and  C_8 
REMARK       I    between atoms: C_8  and  N_9 
REMARK    2  A    between atoms: N_9  and  C_10 
ROOT
HETATM    1  N   UNL     1       6.520  26.113  53.711  1.00  0.00    -0.306 N 
HETATM    2  C   UNL     1       6.723  27.336  54.265  1.00  0.00     0.321 C 
HETATM    3  N   UNL     1       7.507  27.431  55.369  1.00  0.00    -0.338 N 
HETATM    4  O   UNL     1       6.084  28.294  53.836  1.00  0.00    -0.247 OA
HETATM    5  H   UNL     1       5.720  26.150  53.088  1.00  0.00     0.171 HD
HETATM    6  H   UNL     1       8.257  26.756  55.436  1.00  0.00     0.164 HD
ENDROOT
BRANCH   3   7
HETATM    7  C   UNL     1       7.695  28.669  56.115  1.00  0.00     0.092 C 
HETATM    8  C   UNL     1       9.191  28.912  56.465  1.00  0.00     0.084 C 
HETATM    9  C   UNL     1       9.294  30.029  57.420  1.00  0.00     0.034 A 
HETATM   10  C   UNL     1       8.252  30.567  58.142  1.00  0.00     0.033 A 
HETATM   11  N   UNL     1      10.425  30.720  57.802  1.00  0.00    -0.354 N 
HETATM   12  N   UNL     1       8.800  31.565  58.919  1.00  0.00    -0.354 N 
HETATM   13  C   UNL     1       6.840  30.152  58.049  1.00  0.00     0.061 C 
HETATM   14  H   UNL     1       8.282  32.154  59.570  1.00  0.00     0.166 HD
HETATM   15  C   UNL     1      10.119  31.646  58.716  1.00  0.00     0.180 A 
HETATM   16  C   UNL     1       6.754  28.778  57.351  1.00  0.00     0.031 C 
HETATM   17  H   UNL     1      11.366  30.540  57.457  1.00  0.00     0.166 HD
ENDBRANCH   3   7
BRANCH   1  18
HETATM   18  C   UNL     1       6.995  24.820  54.028  1.00  0.00     0.077 A 
HETATM   19  C   UNL     1       6.824  24.098  55.213  1.00  0.00     0.152 A 
HETATM   20  N   UNL     1       7.262  22.832  55.412  1.00  0.00    -0.247 NA
HETATM   21 CL   UNL     1       6.190  24.768  56.670  1.00  0.00    -0.060 Cl
HETATM   22  C   UNL     1       7.948  22.255  54.407  1.00  0.00     0.118 A 
HETATM   23  C   UNL     1       8.233  22.896  53.217  1.00  0.00     0.022 A 
HETATM   24  C   UNL     1       7.760  24.195  53.034  1.00  0.00     0.034 A 
ENDBRANCH   1  18
TORSDOF 2
ENDMDL
MODEL 9
REMARK VINA RESULT:      -7.5      5.451      7.291
REMARK  2 active torsions:
REMARK  status: ('A' for Active; 'I' for Inactive)
REMARK    1  A    between atoms: C_6  and  N_7 
REMARK       I    between atoms: N_7  and  C_8 
REMARK       I    between atoms: C_8  and  N_9 
REMARK    2  A    between atoms: N_9  and  C_10 
ROOT
HETATM    1  N   UNL     1       4.393  28.592  49.957  1.00  0.00    -0.306 N 
HETATM    2  C   UNL     1       5.146  28.095  50.971  1.00  0.00     0.321 C 
HETATM    3  N   UNL     1       5.205  26.749  51.144  1.00  0.00    -0.338 N 
HETATM    4  O   UNL     1       5.640  28.877  51.781  1.00  0.00    -0.247 OA
HETATM    5  H   UNL     1       4.220  29.580  50.115  1.00  0.00     0.171 HD
HETATM    6  H   UNL     1       5.125  26.194  50.302  1.00  0.00     0.164 HD
ENDROOT
BRANCH   3   7
HETATM    7  C   UNL     1       5.882  26.114  52.267  1.00  0.00     0.092 C 
HETATM    8  C   UNL     1       6.844  24.985  51.797  1.00  0.00     0.084 C 
HETATM    9  C   UNL     1       7.304  24.218  52.968  1.00  0.00     0.034 A 
HETATM   10  C   UNL     1       6.748  24.262  54.227  1.00  0.00     0.033 A 
HETATM   11  N   UNL     1       8.333  23.302  53.033  1.00  0.00    -0.354 N 
HETATM   12  N   UNL     1       7.473  23.378  54.998  1.00  0.00    -0.354 N 
HETATM   13  C   UNL     1       5.622  25.122  54.637  1.00  0.00     0.061 C 
HETATM   14  H   UNL     1       7.304  23.182  55.983  1.00  0.00     0.166 HD
HETATM   15  C   UNL     1       8.426  22.791  54.265  1.00  0.00     0.180 A 
HETATM   16  C   UNL     1       4.897  25.652  53.382  1.00  0.00     0.031 C 
HETATM   17  H   UNL     1       8.928  23.032  52.252  1.00  0.00     0.166 HD
ENDBRANCH   3   7
BRANCH   1  18
HETATM   18  C   UNL     1       3.614  27.984  48.947  1.00  0.00     0.077 A 
HETATM   19  C   UNL     1       4.047  27.358  47.774  1.00  0.00     0.152 A 
HETATM   20  N   UNL     1       3.232  26.742  46.884  1.00  0.00    -0.247 NA
HETATM   21 CL   UNL     1       5.665  27.428  47.182  1.00  0.00    -0.060 Cl
HETATM   22  C   UNL     1       1.910  26.781  47.135  1.00  0.00     0.118 A 
HETATM   23  C   UNL     1       1.363  27.427  48.228  1.00  0.00     0.022 A 
HETATM   24  C   UNL     1       2.227  28.043  49.133  1.00  0.00     0.034 A 
ENDBRANCH   1  18
TORSDOF 2
ENDMDL
MODEL 10
REMARK VINA RESULT:      -7.4      4.030      7.162
REMARK  2 active torsions:
REMARK  status: ('A' for Active; 'I' for Inactive)
REMARK    1  A    between atoms: C_6  and  N_7 
REMARK       I    between atoms: N_7  and  C_8 
REMARK       I    between atoms: C_8  and  N_9 
REMARK    2  A    between atoms: N_9  and  C_10 
ROOT
HETATM    1  N   UNL     1       7.209  23.537  55.513  1.00  0.00    -0.306 N 
HETATM    2  C   UNL     1       6.539  24.609  55.016  1.00  0.00     0.321 C 
HETATM    3  N   UNL     1       6.293  24.666  53.682  1.00  0.00    -0.338 N 
HETATM    4  O   UNL     1       6.298  25.555  55.763  1.00  0.00    -0.247 OA
HETATM    5  H   UNL     1       7.557  23.754  56.441  1.00  0.00     0.171 HD
HETATM    6  H   UNL     1       6.162  23.776  53.221  1.00  0.00     0.164 HD
ENDROOT
BRANCH   3   7
HETATM    7  C   UNL     1       5.692  25.821  53.026  1.00  0.00     0.092 C 
HETATM    8  C   UNL     1       5.169  25.470  51.604  1.00  0.00     0.084 C 
HETATM    9  C   UNL     1       4.805  26.711  50.898  1.00  0.00     0.034 A 
HETATM   10  C   UNL     1       5.158  27.986  51.280  1.00  0.00     0.033 A 
HETATM   11  N   UNL     1       4.089  26.844  49.727  1.00  0.00    -0.354 N 
HETATM   12  N   UNL     1       4.629  28.832  50.329  1.00  0.00    -0.354 N 
HETATM   13  C   UNL     1       5.922  28.337  52.492  1.00  0.00     0.061 C 
HETATM   14  H   UNL     1       4.720  29.846  50.329  1.00  0.00     0.166 HD
HETATM   15  C   UNL     1       3.991  28.132  49.384  1.00  0.00     0.180 A 
HETATM   16  C   UNL     1       6.616  27.074  53.045  1.00  0.00     0.031 C 
HETATM   17  H   UNL     1       3.704  26.072  49.185  1.00  0.00     0.166 HD
ENDBRANCH   3   7
BRANCH   1  18
HETATM   18  C   UNL     1       7.727  22.365  54.918  1.00  0.00     0.077 A 
HETATM   19  C   UNL     1       8.138  21.183  55.540  1.00  0.00     0.152 A 
HETATM   20  N   UNL     1       8.568  20.077  54.885  1.00  0.00    -0.247 NA
HETATM   21 CL   UNL     1       8.337  21.006  57.244  1.00  0.00    -0.060 Cl
HETATM   22  C   UNL     1       8.642  20.150  53.542  1.00  0.00     0.118 A 
HETATM   23  C   UNL     1       8.324  21.288  52.826  1.00  0.00     0.022 A 
HETATM   24  C   UNL     1       7.874  22.407  53.525  1.00  0.00     0.034 A 
ENDBRANCH   1  18
TORSDOF 2
ENDMDL
