MODEL 1
REMARK VINA RESULT:      -9.5      0.000      0.000
REMARK  7 active torsions:
REMARK  status: ('A' for Active; 'I' for Inactive)
REMARK       I    between atoms: C_2  and  N_3 
REMARK    1  A    between atoms: N_3  and  C_4 
REMARK    2  A    between atoms: C_6  and  N_7 
REMARK       I    between atoms: N_7  and  C_8 
REMARK       I    between atoms: C_8  and  N_9 
REMARK    3  A    between atoms: N_9  and  C_10 
REMARK    4  A    between atoms: C_10  and  C_11 
REMARK    5  A    between atoms: C_11  and  C_12 
REMARK    6  A    between atoms: N_14  and  C_16 
REMARK    7  A    between atoms: C_16  and  C_17 
ROOT
HETATM    1  N   UNL     1       9.401  31.975  59.911  1.00  0.00    -0.309 N 
HETATM    2  C   UNL     1       9.338  31.126  58.849  1.00  0.00     0.320 C 
HETATM    3  N   UNL     1       8.372  30.170  58.861  1.00  0.00    -0.343 N 
HETATM    4  O   UNL     1      10.151  31.233  57.929  1.00  0.00    -0.247 OA
HETATM    5  H   UNL     1      10.282  32.474  59.936  1.00  0.00     0.170 HD
HETATM    6  H   UNL     1       8.011  29.947  59.781  1.00  0.00     0.164 HD
ENDROOT
BRANCH   3   7
HETATM    7  C   UNL     1       8.310  29.093  57.897  1.00  0.00     0.125 C 
BRANCH   7   8
HETATM    8  C   UNL     1       6.903  28.524  57.686  1.00  0.00     0.026 C 
BRANCH   8   9
HETATM    9  C   UNL     1       6.745  27.030  57.374  1.00  0.00     0.014 C 
HETATM   10  C   UNL     1       7.887  26.379  56.603  1.00  0.00     0.240 C 
HETATM   11  N   UNL     1       7.271  25.146  55.969  1.00  0.00    -0.067 N 
HETATM   12  H   UNL     1       7.428  25.256  54.956  1.00  0.00     0.280 HD
HETATM   13  C   UNL     1       5.778  25.203  56.200  1.00  0.00     0.235 C 
HETATM   14  C   UNL     1       5.497  26.636  56.600  1.00  0.00     0.034 C 
BRANCH  11  15
HETATM   15  C   UNL     1       7.875  23.836  56.385  1.00  0.00     0.273 C 
BRANCH  15  16
HETATM   16  C   UNL     1       7.875  22.788  55.306  1.00  0.00    -0.033 A 
HETATM   17  C   UNL     1       7.887  23.156  53.951  1.00  0.00     0.009 A 
HETATM   18  C   UNL     1       7.912  22.181  52.952  1.00  0.00     0.001 A 
HETATM   19  C   UNL     1       7.925  20.833  53.294  1.00  0.00     0.000 A 
HETATM   20  C   UNL     1       7.911  20.454  54.635  1.00  0.00     0.001 A 
HETATM   21  C   UNL     1       7.883  21.425  55.638  1.00  0.00     0.009 A 
ENDBRANCH  15  16
ENDBRANCH  11  15
ENDBRANCH   8   9
ENDBRANCH   7   8
ENDBRANCH   3   7
BRANCH   1  22
HETATM   22  C   UNL     1       8.495  32.274  60.951  1.00  0.00     0.038 A 
HETATM   23  C   UNL     1       7.236  32.858  60.759  1.00  0.00     0.059 A 
HETATM   24  C   UNL     1       6.382  33.107  61.841  1.00  0.00     0.036 A 
HETATM   25  C   UNL     1       6.822  32.807  63.136  1.00  0.00     0.029 A 
HETATM   26  C   UNL     1       8.091  32.269  63.343  1.00  0.00     0.004 A 
HETATM   27  C   UNL     1       8.924  32.008  62.255  1.00  0.00     0.029 A 
BRANCH  24  28
HETATM   28  N   UNL     1       5.087  33.654  61.717  1.00  0.00    -0.327 N 
HETATM   29  C   UNL     1       3.880  33.035  61.986  1.00  0.00     0.218 C 
HETATM   30  C   UNL     1       2.692  33.941  61.759  1.00  0.00     0.117 C 
HETATM   31  O   UNL     1       3.722  31.889  62.395  1.00  0.00    -0.274 OA
HETATM   32  H   UNL     1       5.047  34.628  61.437  1.00  0.00     0.169 HD
ENDBRANCH  24  28
ENDBRANCH   1  22
TORSDOF 7
ENDMDL
MODEL 2
REMARK VINA RESULT:      -9.4      3.127     10.427
REMARK  7 active torsions:
REMARK  status: ('A' for Active; 'I' for Inactive)
REMARK       I    between atoms: C_2  and  N_3 
REMARK    1  A    between atoms: N_3  and  C_4 
REMARK    2  A    between atoms: C_6  and  N_7 
REMARK       I    between atoms: N_7  and  C_8 
REMARK       I    between atoms: C_8  and  N_9 
REMARK    3  A    between atoms: N_9  and  C_10 
REMARK    4  A    between atoms: C_10  and  C_11 
REMARK    5  A    between atoms: C_11  and  C_12 
REMARK    6  A    between atoms: N_14  and  C_16 
REMARK    7  A    between atoms: C_16  and  C_17 
ROOT
HETATM    1  N   UNL     1       5.092  26.358  53.599  1.00  0.00    -0.309 N 
HETATM    2  C   UNL     1       5.070  27.475  54.377  1.00  0.00     0.320 C 
HETATM    3  N   UNL     1       6.031  27.600  55.329  1.00  0.00    -0.343 N 
HETATM    4  O   UNL     1       4.189  28.320  54.212  1.00  0.00    -0.247 OA
HETATM    5  H   UNL     1       4.217  26.233  53.104  1.00  0.00     0.170 HD
HETATM    6  H   UNL     1       6.462  26.728  55.611  1.00  0.00     0.164 HD
ENDROOT
BRANCH   3   7
HETATM    7  C   UNL     1       6.015  28.634  56.341  1.00  0.00     0.125 C 
BRANCH   7   8
HETATM    8  C   UNL     1       6.767  28.266  57.624  1.00  0.00     0.026 C 
BRANCH   8   9
HETATM    9  C   UNL     1       8.082  28.988  57.948  1.00  0.00     0.014 C 
HETATM   10  C   UNL     1       7.974  30.478  58.247  1.00  0.00     0.240 C 
HETATM   11  N   UNL     1       9.364  31.025  57.985  1.00  0.00    -0.067 N 
HETATM   12  H   UNL     1       9.237  31.756  57.269  1.00  0.00     0.280 HD
HETATM   13  C   UNL     1      10.186  29.922  57.358  1.00  0.00     0.235 C 
HETATM   14  C   UNL     1       9.175  28.894  56.896  1.00  0.00     0.034 C 
BRANCH  11  15
HETATM   15  C   UNL     1      10.043  31.657  59.166  1.00  0.00     0.273 C 
BRANCH  15  16
HETATM   16  C   UNL     1       9.210  31.674  60.418  1.00  0.00    -0.033 A 
HETATM   17  C   UNL     1       9.329  30.649  61.370  1.00  0.00     0.009 A 
HETATM   18  C   UNL     1       8.574  30.679  62.543  1.00  0.00     0.001 A 
HETATM   19  C   UNL     1       7.693  31.731  62.778  1.00  0.00     0.000 A 
HETATM   20  C   UNL     1       7.564  32.754  61.842  1.00  0.00     0.001 A 
HETATM   21  C   UNL     1       8.315  32.726  60.665  1.00  0.00     0.009 A 
ENDBRANCH  15  16
ENDBRANCH  11  15
ENDBRANCH   8   9
ENDBRANCH   7   8
ENDBRANCH   3   7
BRANCH   1  22
HETATM   22  C   UNL     1       6.077  25.375  53.366  1.00  0.00     0.038 A 
HETATM   23  C   UNL     1       6.269  24.242  54.168  1.00  0.00     0.059 A 
HETATM   24  C   UNL     1       7.257  23.298  53.860  1.00  0.00     0.036 A 
HETATM   25  C   UNL     1       8.091  23.522  52.759  1.00  0.00     0.029 A 
HETATM   26  C   UNL     1       7.940  24.669  51.981  1.00  0.00     0.004 A 
HETATM   27  C   UNL     1       6.940  25.592  52.287  1.00  0.00     0.029 A 
BRANCH  24  28
HETATM   28  N   UNL     1       7.478  22.116  54.600  1.00  0.00    -0.327 N 
HETATM   29  C   UNL     1       8.056  21.999  55.851  1.00  0.00     0.218 C 
HETATM   30  C   UNL     1       8.108  20.571  56.343  1.00  0.00     0.117 C 
HETATM   31  O   UNL     1       8.475  22.916  56.551  1.00  0.00    -0.274 OA
HETATM   32  H   UNL     1       7.132  21.262  54.176  1.00  0.00     0.169 HD
ENDBRANCH  24  28
ENDBRANCH   1  22
TORSDOF 7
ENDMDL
MODEL 3
REMARK VINA RESULT:      -9.2      1.425      1.865
REMARK  7 active torsions:
REMARK  status: ('A' for Active; 'I' for Inactive)
REMARK       I    between atoms: C_2  and  N_3 
REMARK    1  A    between atoms: N_3  and  C_4 
REMARK    2  A    between atoms: C_6  and  N_7 
REMARK       I    between atoms: N_7  and  C_8 
REMARK       I    between atoms: C_8  and  N_9 
REMARK    3  A    between atoms: N_9  and  C_10 
REMARK    4  A    between atoms: C_10  and  C_11 
REMARK    5  A    between atoms: C_11  and  C_12 
REMARK    6  A    between atoms: N_14  and  C_16 
REMARK    7  A    between atoms: C_16  and  C_17 
ROOT
HETATM    1  N   UNL     1       8.547  32.702  60.880  1.00  0.00    -0.309 N 
HETATM    2  C   UNL     1       8.645  31.912  59.775  1.00  0.00     0.320 C 
HETATM    3  N   UNL     1       7.870  30.797  59.727  1.00  0.00    -0.343 N 
HETATM    4  O   UNL     1       9.427  32.214  58.873  1.00  0.00    -0.247 OA
HETATM    5  H   UNL     1       9.322  33.351  60.942  1.00  0.00     0.170 HD
HETATM    6  H   UNL     1       7.552  30.463  60.629  1.00  0.00     0.164 HD
ENDROOT
BRANCH   3   7
HETATM    7  C   UNL     1       8.009  29.778  58.708  1.00  0.00     0.125 C 
BRANCH   7   8
HETATM    8  C   UNL     1       6.790  29.640  57.792  1.00  0.00     0.026 C 
BRANCH   8   9
HETATM    9  C   UNL     1       6.711  28.443  56.834  1.00  0.00     0.014 C 
HETATM   10  C   UNL     1       7.220  27.113  57.377  1.00  0.00     0.240 C 
HETATM   11  N   UNL     1       7.546  26.292  56.143  1.00  0.00    -0.067 N 
HETATM   12  H   UNL     1       8.542  26.044  56.239  1.00  0.00     0.280 HD
HETATM   13  C   UNL     1       7.423  27.198  54.939  1.00  0.00     0.235 C 
HETATM   14  C   UNL     1       7.426  28.603  55.502  1.00  0.00     0.034 C 
BRANCH  11  15
HETATM   15  C   UNL     1       6.770  25.016  55.994  1.00  0.00     0.273 C 
BRANCH  15  16
HETATM   16  C   UNL     1       7.468  23.964  55.177  1.00  0.00    -0.033 A 
HETATM   17  C   UNL     1       8.489  23.181  55.740  1.00  0.00     0.009 A 
HETATM   18  C   UNL     1       9.119  22.189  54.987  1.00  0.00     0.001 A 
HETATM   19  C   UNL     1       8.736  21.966  53.667  1.00  0.00     0.000 A 
HETATM   20  C   UNL     1       7.726  22.736  53.096  1.00  0.00     0.001 A 
HETATM   21  C   UNL     1       7.095  23.733  53.844  1.00  0.00     0.009 A 
ENDBRANCH  15  16
ENDBRANCH  11  15
ENDBRANCH   8   9
ENDBRANCH   7   8
ENDBRANCH   3   7
BRANCH   1  22
HETATM   22  C   UNL     1       7.598  32.776  61.921  1.00  0.00     0.038 A 
HETATM   23  C   UNL     1       6.227  32.994  61.728  1.00  0.00     0.059 A 
HETATM   24  C   UNL     1       5.342  33.035  62.813  1.00  0.00     0.036 A 
HETATM   25  C   UNL     1       5.851  32.901  64.110  1.00  0.00     0.029 A 
HETATM   26  C   UNL     1       7.219  32.730  64.318  1.00  0.00     0.004 A 
HETATM   27  C   UNL     1       8.087  32.672  63.227  1.00  0.00     0.029 A 
BRANCH  24  28
HETATM   28  N   UNL     1       3.947  33.210  62.689  1.00  0.00    -0.327 N 
HETATM   29  C   UNL     1       3.235  34.393  62.766  1.00  0.00     0.218 C 
HETATM   30  C   UNL     1       1.751  34.199  62.561  1.00  0.00     0.117 C 
HETATM   31  O   UNL     1       3.699  35.514  62.948  1.00  0.00    -0.274 OA
HETATM   32  H   UNL     1       3.416  32.372  62.477  1.00  0.00     0.169 HD
ENDBRANCH  24  28
ENDBRANCH   1  22
TORSDOF 7
ENDMDL
MODEL 4
REMARK VINA RESULT:      -9.1      2.828     10.776
REMARK  7 active torsions:
REMARK  status: ('A' for Active; 'I' for Inactive)
REMARK       I    between atoms: C_2  and  N_3 
REMARK    1  A    between atoms: N_3  and  C_4 
REMARK    2  A    between atoms: C_6  and  N_7 
REMARK       I    between atoms: N_7  and  C_8 
REMARK       I    between atoms: C_8  and  N_9 
REMARK    3  A    between atoms: N_9  and  C_10 
REMARK    4  A    between atoms: C_10  and  C_11 
REMARK    5  A    between atoms: C_11  and  C_12 
REMARK    6  A    between atoms: N_14  and  C_16 
REMARK    7  A    between atoms: C_16  and  C_17 
ROOT
HETATM    1  N   UNL     1       8.975  23.884  56.522  1.00  0.00    -0.309 N 
HETATM    2  C   UNL     1       8.609  24.875  57.380  1.00  0.00     0.320 C 
HETATM    3  N   UNL     1       7.891  25.913  56.876  1.00  0.00    -0.343 N 
HETATM    4  O   UNL     1       8.943  24.816  58.564  1.00  0.00    -0.247 OA
HETATM    5  H   UNL     1       9.702  23.300  56.918  1.00  0.00     0.170 HD
HETATM    6  H   UNL     1       7.979  26.041  55.875  1.00  0.00     0.164 HD
ENDROOT
BRANCH   3   7
HETATM    7  C   UNL     1       7.599  27.115  57.628  1.00  0.00     0.125 C 
BRANCH   7   8
HETATM    8  C   UNL     1       8.236  28.383  57.050  1.00  0.00     0.026 C 
BRANCH   8   9
HETATM    9  C   UNL     1       8.953  29.353  57.998  1.00  0.00     0.014 C 
HETATM   10  C   UNL     1       8.074  30.078  59.009  1.00  0.00     0.240 C 
HETATM   11  N   UNL     1       8.871  31.307  59.403  1.00  0.00    -0.067 N 
HETATM   12  H   UNL     1       8.262  32.108  59.177  1.00  0.00     0.280 HD
HETATM   13  C   UNL     1      10.075  31.389  58.492  1.00  0.00     0.235 C 
HETATM   14  C   UNL     1       9.759  30.461  57.338  1.00  0.00     0.034 C 
BRANCH  11  15
HETATM   15  C   UNL     1       9.232  31.404  60.856  1.00  0.00     0.273 C 
BRANCH  15  16
HETATM   16  C   UNL     1       8.251  32.188  61.684  1.00  0.00    -0.033 A 
HETATM   17  C   UNL     1       8.404  32.281  63.077  1.00  0.00     0.009 A 
HETATM   18  C   UNL     1       7.506  33.029  63.840  1.00  0.00     0.001 A 
HETATM   19  C   UNL     1       6.448  33.691  63.222  1.00  0.00     0.000 A 
HETATM   20  C   UNL     1       6.284  33.605  61.842  1.00  0.00     0.001 A 
HETATM   21  C   UNL     1       7.178  32.855  61.074  1.00  0.00     0.009 A 
ENDBRANCH  15  16
ENDBRANCH  11  15
ENDBRANCH   8   9
ENDBRANCH   7   8
ENDBRANCH   3   7
BRANCH   1  22
HETATM   22  C   UNL     1       8.545  23.536  55.224  1.00  0.00     0.038 A 
HETATM   23  C   UNL     1       7.875  24.405  54.353  1.00  0.00     0.059 A 
HETATM   24  C   UNL     1       7.497  23.992  53.069  1.00  0.00     0.036 A 
HETATM   25  C   UNL     1       7.755  22.673  52.677  1.00  0.00     0.029 A 
HETATM   26  C   UNL     1       8.379  21.786  53.551  1.00  0.00     0.004 A 
HETATM   27  C   UNL     1       8.768  22.215  54.820  1.00  0.00     0.029 A 
BRANCH  24  28
HETATM   28  N   UNL     1       6.857  24.826  52.127  1.00  0.00    -0.327 N 
HETATM   29  C   UNL     1       5.515  25.159  52.069  1.00  0.00     0.218 C 
HETATM   30  C   UNL     1       5.192  26.098  50.931  1.00  0.00     0.117 C 
HETATM   31  O   UNL     1       4.637  24.791  52.843  1.00  0.00    -0.274 OA
HETATM   32  H   UNL     1       7.464  25.261  51.441  1.00  0.00     0.169 HD
ENDBRANCH  24  28
ENDBRANCH   1  22
TORSDOF 7
ENDMDL
MODEL 5
REMARK VINA RESULT:      -9.1      1.633      2.060
REMARK  7 active torsions:
REMARK  status: ('A' for Active; 'I' for Inactive)
REMARK       I    between atoms: C_2  and  N_3 
REMARK    1  A    between atoms: N_3  and  C_4 
REMARK    2  A    between atoms: C_6  and  N_7 
REMARK       I    between atoms: N_7  and  C_8 
REMARK       I    between atoms: C_8  and  N_9 
REMARK    3  A    between atoms: N_9  and  C_10 
REMARK    4  A    between atoms: C_10  and  C_11 
REMARK    5  A    between atoms: C_11  and  C_12 
REMARK    6  A    between atoms: N_14  and  C_16 
REMARK    7  A    between atoms: C_16  and  C_17 
ROOT
HETATM    1  N   UNL     1       6.975  31.536  58.722  1.00  0.00    -0.309 N 
HETATM    2  C   UNL     1       7.106  30.428  57.942  1.00  0.00     0.320 C 
HETATM    3  N   UNL     1       7.981  29.471  58.349  1.00  0.00    -0.343 N 
HETATM    4  O   UNL     1       6.455  30.329  56.901  1.00  0.00    -0.247 OA
HETATM    5  H   UNL     1       6.508  32.286  58.225  1.00  0.00     0.170 HD
HETATM    6  H   UNL     1       8.697  29.796  58.987  1.00  0.00     0.164 HD
ENDROOT
BRANCH   3   7
HETATM    7  C   UNL     1       8.356  28.339  57.528  1.00  0.00     0.125 C 
BRANCH   7   8
HETATM    8  C   UNL     1       7.528  27.077  57.788  1.00  0.00     0.026 C 
BRANCH   8   9
HETATM    9  C   UNL     1       7.465  25.993  56.704  1.00  0.00     0.014 C 
HETATM   10  C   UNL     1       7.633  26.468  55.267  1.00  0.00     0.240 C 
HETATM   11  N   UNL     1       7.002  25.378  54.422  1.00  0.00    -0.067 N 
HETATM   12  H   UNL     1       6.267  25.850  53.876  1.00  0.00     0.280 HD
HETATM   13  C   UNL     1       6.311  24.410  55.357  1.00  0.00     0.235 C 
HETATM   14  C   UNL     1       6.202  25.148  56.675  1.00  0.00     0.034 C 
BRANCH  11  15
HETATM   15  C   UNL     1       7.924  24.695  53.454  1.00  0.00     0.273 C 
BRANCH  15  16
HETATM   16  C   UNL     1       8.194  23.251  53.776  1.00  0.00    -0.033 A 
HETATM   17  C   UNL     1       8.958  22.899  54.901  1.00  0.00     0.009 A 
HETATM   18  C   UNL     1       9.187  21.558  55.211  1.00  0.00     0.001 A 
HETATM   19  C   UNL     1       8.657  20.555  54.404  1.00  0.00     0.000 A 
HETATM   20  C   UNL     1       7.900  20.890  53.285  1.00  0.00     0.001 A 
HETATM   21  C   UNL     1       7.671  22.231  52.968  1.00  0.00     0.009 A 
ENDBRANCH  15  16
ENDBRANCH  11  15
ENDBRANCH   8   9
ENDBRANCH   7   8
ENDBRANCH   3   7
BRANCH   1  22
HETATM   22  C   UNL     1       7.360  31.823  60.048  1.00  0.00     0.038 A 
HETATM   23  C   UNL     1       6.631  32.637  60.925  1.00  0.00     0.059 A 
HETATM   24  C   UNL     1       7.069  32.859  62.237  1.00  0.00     0.036 A 
HETATM   25  C   UNL     1       8.279  32.292  62.655  1.00  0.00     0.029 A 
HETATM   26  C   UNL     1       9.036  31.518  61.777  1.00  0.00     0.004 A 
HETATM   27  C   UNL     1       8.579  31.289  60.479  1.00  0.00     0.029 A 
BRANCH  24  28
HETATM   28  N   UNL     1       6.366  33.633  63.185  1.00  0.00    -0.327 N 
HETATM   29  C   UNL     1       5.299  33.238  63.972  1.00  0.00     0.218 C 
HETATM   30  C   UNL     1       4.812  34.333  64.892  1.00  0.00     0.117 C 
HETATM   31  O   UNL     1       4.777  32.128  63.992  1.00  0.00    -0.274 OA
HETATM   32  H   UNL     1       6.715  34.574  63.330  1.00  0.00     0.169 HD
ENDBRANCH  24  28
ENDBRANCH   1  22
TORSDOF 7
ENDMDL
MODEL 6
REMARK VINA RESULT:      -9.0      1.967      2.901
REMARK  7 active torsions:
REMARK  status: ('A' for Active; 'I' for Inactive)
REMARK       I    between atoms: C_2  and  N_3 
REMARK    1  A    between atoms: N_3  and  C_4 
REMARK    2  A    between atoms: C_6  and  N_7 
REMARK       I    between atoms: N_7  and  C_8 
REMARK       I    between atoms: C_8  and  N_9 
REMARK    3  A    between atoms: N_9  and  C_10 
REMARK    4  A    between atoms: C_10  and  C_11 
REMARK    5  A    between atoms: C_11  and  C_12 
REMARK    6  A    between atoms: N_14  and  C_16 
REMARK    7  A    between atoms: C_16  and  C_17 
ROOT
HETATM    1  N   UNL     1       8.890  29.589  56.984  1.00  0.00    -0.309 N 
HETATM    2  C   UNL     1       7.916  29.378  56.056  1.00  0.00     0.320 C 
HETATM    3  N   UNL     1       6.648  29.745  56.377  1.00  0.00    -0.343 N 
HETATM    4  O   UNL     1       8.201  28.857  54.976  1.00  0.00    -0.247 OA
HETATM    5  H   UNL     1       9.730  29.068  56.765  1.00  0.00     0.170 HD
HETATM    6  H   UNL     1       6.469  29.821  57.371  1.00  0.00     0.164 HD
ENDROOT
BRANCH   3   7
HETATM    7  C   UNL     1       5.497  29.410  55.568  1.00  0.00     0.125 C 
BRANCH   7   8
HETATM    8  C   UNL     1       4.870  28.053  55.905  1.00  0.00     0.026 C 
BRANCH   8   9
HETATM    9  C   UNL     1       5.780  26.823  56.024  1.00  0.00     0.014 C 
HETATM   10  C   UNL     1       6.138  26.122  54.720  1.00  0.00     0.240 C 
HETATM   11  N   UNL     1       6.534  24.717  55.133  1.00  0.00    -0.067 N 
HETATM   12  H   UNL     1       5.898  24.093  54.614  1.00  0.00     0.280 HD
HETATM   13  C   UNL     1       6.214  24.559  56.603  1.00  0.00     0.235 C 
HETATM   14  C   UNL     1       5.280  25.706  56.927  1.00  0.00     0.034 C 
BRANCH  11  15
HETATM   15  C   UNL     1       7.941  24.317  54.797  1.00  0.00     0.273 C 
BRANCH  15  16
HETATM   16  C   UNL     1       8.113  22.851  54.509  1.00  0.00    -0.033 A 
HETATM   17  C   UNL     1       8.441  21.953  55.538  1.00  0.00     0.009 A 
HETATM   18  C   UNL     1       8.575  20.590  55.273  1.00  0.00     0.001 A 
HETATM   19  C   UNL     1       8.384  20.108  53.981  1.00  0.00     0.000 A 
HETATM   20  C   UNL     1       8.060  20.988  52.951  1.00  0.00     0.001 A 
HETATM   21  C   UNL     1       7.928  22.354  53.210  1.00  0.00     0.009 A 
ENDBRANCH  15  16
ENDBRANCH  11  15
ENDBRANCH   8   9
ENDBRANCH   7   8
ENDBRANCH   3   7
BRANCH   1  22
HETATM   22  C   UNL     1       8.939  30.372  58.156  1.00  0.00     0.038 A 
HETATM   23  C   UNL     1       7.968  30.346  59.166  1.00  0.00     0.059 A 
HETATM   24  C   UNL     1       8.097  31.140  60.313  1.00  0.00     0.036 A 
HETATM   25  C   UNL     1       9.192  32.004  60.421  1.00  0.00     0.029 A 
HETATM   26  C   UNL     1      10.141  32.073  59.403  1.00  0.00     0.004 A 
HETATM   27  C   UNL     1      10.011  31.263  58.274  1.00  0.00     0.029 A 
BRANCH  24  28
HETATM   28  N   UNL     1       7.179  31.133  61.385  1.00  0.00    -0.327 N 
HETATM   29  C   UNL     1       6.181  32.054  61.647  1.00  0.00     0.218 C 
HETATM   30  C   UNL     1       5.373  31.711  62.878  1.00  0.00     0.117 C 
HETATM   31  O   UNL     1       5.908  33.046  60.979  1.00  0.00    -0.274 OA
HETATM   32  H   UNL     1       7.237  30.335  62.009  1.00  0.00     0.169 HD
ENDBRANCH  24  28
ENDBRANCH   1  22
TORSDOF 7
ENDMDL
MODEL 7
REMARK VINA RESULT:      -9.0      4.547      8.177
REMARK  7 active torsions:
REMARK  status: ('A' for Active; 'I' for Inactive)
REMARK       I    between atoms: C_2  and  N_3 
REMARK    1  A    between atoms: N_3  and  C_4 
REMARK    2  A    between atoms: C_6  and  N_7 
REMARK       I    between atoms: N_7  and  C_8 
REMARK       I    between atoms: C_8  and  N_9 
REMARK    3  A    between atoms: N_9  and  C_10 
REMARK    4  A    between atoms: C_10  and  C_11 
REMARK    5  A    between atoms: C_11  and  C_12 
REMARK    6  A    between atoms: N_14  and  C_16 
REMARK    7  A    between atoms: C_16  and  C_17 
ROOT
HETATM    1  N   UNL     1       4.552  28.669  54.096  1.00  0.00    -0.309 N 
HETATM    2  C   UNL     1       5.357  29.352  54.955  1.00  0.00     0.320 C 
HETATM    3  N   UNL     1       6.604  28.860  55.177  1.00  0.00    -0.343 N 
HETATM    4  O   UNL     1       4.939  30.370  55.510  1.00  0.00    -0.247 OA
HETATM    5  H   UNL     1       3.584  28.957  54.186  1.00  0.00     0.170 HD
HETATM    6  H   UNL     1       6.712  27.875  54.970  1.00  0.00     0.164 HD
ENDROOT
BRANCH   3   7
HETATM    7  C   UNL     1       7.489  29.375  56.200  1.00  0.00     0.125 C 
BRANCH   7   8
HETATM    8  C   UNL     1       7.462  28.579  57.509  1.00  0.00     0.026 C 
BRANCH   8   9
HETATM    9  C   UNL     1       7.182  27.071  57.455  1.00  0.00     0.014 C 
HETATM   10  C   UNL     1       7.926  26.286  56.382  1.00  0.00     0.240 C 
HETATM   11  N   UNL     1       7.101  25.028  56.182  1.00  0.00    -0.067 N 
HETATM   12  H   UNL     1       6.850  25.026  55.182  1.00  0.00     0.280 HD
HETATM   13  C   UNL     1       5.818  25.187  56.966  1.00  0.00     0.235 C 
HETATM   14  C   UNL     1       5.727  26.666  57.276  1.00  0.00     0.034 C 
BRANCH  11  15
HETATM   15  C   UNL     1       7.809  23.738  56.478  1.00  0.00     0.273 C 
BRANCH  15  16
HETATM   16  C   UNL     1       7.865  22.786  55.315  1.00  0.00    -0.033 A 
HETATM   17  C   UNL     1       7.896  21.398  55.527  1.00  0.00     0.009 A 
HETATM   18  C   UNL     1       7.923  20.516  54.446  1.00  0.00     0.001 A 
HETATM   19  C   UNL     1       7.918  21.009  53.144  1.00  0.00     0.000 A 
HETATM   20  C   UNL     1       7.889  22.383  52.919  1.00  0.00     0.001 A 
HETATM   21  C   UNL     1       7.866  23.270  53.998  1.00  0.00     0.009 A 
ENDBRANCH  15  16
ENDBRANCH  11  15
ENDBRANCH   8   9
ENDBRANCH   7   8
ENDBRANCH   3   7
BRANCH   1  22
HETATM   22  C   UNL     1       4.809  27.665  53.139  1.00  0.00     0.038 A 
HETATM   23  C   UNL     1       4.969  27.902  51.767  1.00  0.00     0.059 A 
HETATM   24  C   UNL     1       5.243  26.853  50.880  1.00  0.00     0.036 A 
HETATM   25  C   UNL     1       5.309  25.545  51.374  1.00  0.00     0.029 A 
HETATM   26  C   UNL     1       5.106  25.292  52.729  1.00  0.00     0.004 A 
HETATM   27  C   UNL     1       4.853  26.347  53.606  1.00  0.00     0.029 A 
BRANCH  24  28
HETATM   28  N   UNL     1       5.456  27.025  49.495  1.00  0.00    -0.327 N 
HETATM   29  C   UNL     1       5.079  28.100  48.711  1.00  0.00     0.218 C 
HETATM   30  C   UNL     1       5.496  27.948  47.266  1.00  0.00     0.117 C 
HETATM   31  O   UNL     1       4.493  29.111  49.087  1.00  0.00    -0.274 OA
HETATM   32  H   UNL     1       5.984  26.290  49.037  1.00  0.00     0.169 HD
ENDBRANCH  24  28
ENDBRANCH   1  22
TORSDOF 7
ENDMDL
MODEL 8
REMARK VINA RESULT:      -8.7      1.883      2.535
REMARK  7 active torsions:
REMARK  status: ('A' for Active; 'I' for Inactive)
REMARK       I    between atoms: C_2  and  N_3 
REMARK    1  A    between atoms: N_3  and  C_4 
REMARK    2  A    between atoms: C_6  and  N_7 
REMARK       I    between atoms: N_7  and  C_8 
REMARK       I    between atoms: C_8  and  N_9 
REMARK    3  A    between atoms: N_9  and  C_10 
REMARK    4  A    between atoms: C_10  and  C_11 
REMARK    5  A    between atoms: C_11  and  C_12 
REMARK    6  A    between atoms: N_14  and  C_16 
REMARK    7  A    between atoms: C_16  and  C_17 
ROOT
HETATM    1  N   UNL     1       7.920  30.977  60.771  1.00  0.00    -0.309 N 
HETATM    2  C   UNL     1       8.262  30.361  59.606  1.00  0.00     0.320 C 
HETATM    3  N   UNL     1       7.280  30.157  58.689  1.00  0.00    -0.343 N 
HETATM    4  O   UNL     1       9.425  30.000  59.421  1.00  0.00    -0.247 OA
HETATM    5  H   UNL     1       8.638  30.860  61.477  1.00  0.00     0.170 HD
HETATM    6  H   UNL     1       6.341  30.159  59.069  1.00  0.00     0.164 HD
ENDROOT
BRANCH   3   7
HETATM    7  C   UNL     1       7.461  29.355  57.499  1.00  0.00     0.125 C 
BRANCH   7   8
HETATM    8  C   UNL     1       6.248  28.492  57.136  1.00  0.00     0.026 C 
BRANCH   8   9
HETATM    9  C   UNL     1       6.332  27.568  55.914  1.00  0.00     0.014 C 
HETATM   10  C   UNL     1       6.670  26.110  56.195  1.00  0.00     0.240 C 
HETATM   11  N   UNL     1       7.220  25.580  54.884  1.00  0.00    -0.067 N 
HETATM   12  H   UNL     1       8.165  25.234  55.107  1.00  0.00     0.280 HD
HETATM   13  C   UNL     1       7.383  26.753  53.944  1.00  0.00     0.235 C 
HETATM   14  C   UNL     1       7.315  27.979  54.830  1.00  0.00     0.034 C 
BRANCH  11  15
HETATM   15  C   UNL     1       6.451  24.446  54.272  1.00  0.00     0.273 C 
BRANCH  15  16
HETATM   16  C   UNL     1       7.195  23.139  54.249  1.00  0.00    -0.033 A 
HETATM   17  C   UNL     1       7.470  22.452  55.443  1.00  0.00     0.009 A 
HETATM   18  C   UNL     1       8.140  21.227  55.417  1.00  0.00     0.001 A 
HETATM   19  C   UNL     1       8.539  20.676  54.203  1.00  0.00     0.000 A 
HETATM   20  C   UNL     1       8.274  21.349  53.012  1.00  0.00     0.001 A 
HETATM   21  C   UNL     1       7.608  22.576  53.033  1.00  0.00     0.009 A 
ENDBRANCH  15  16
ENDBRANCH  11  15
ENDBRANCH   8   9
ENDBRANCH   7   8
ENDBRANCH   3   7
BRANCH   1  22
HETATM   22  C   UNL     1       6.786  31.718  61.165  1.00  0.00     0.038 A 
HETATM   23  C   UNL     1       6.373  31.886  62.493  1.00  0.00     0.059 A 
HETATM   24  C   UNL     1       5.244  32.655  62.806  1.00  0.00     0.036 A 
HETATM   25  C   UNL     1       4.497  33.220  61.766  1.00  0.00     0.029 A 
HETATM   26  C   UNL     1       4.872  33.021  60.439  1.00  0.00     0.004 A 
HETATM   27  C   UNL     1       6.009  32.270  60.141  1.00  0.00     0.029 A 
BRANCH  24  28
HETATM   28  N   UNL     1       4.796  32.900  64.122  1.00  0.00    -0.327 N 
HETATM   29  C   UNL     1       5.189  33.917  64.972  1.00  0.00     0.218 C 
HETATM   30  C   UNL     1       4.476  33.878  66.304  1.00  0.00     0.117 C 
HETATM   31  O   UNL     1       6.002  34.803  64.725  1.00  0.00    -0.274 OA
HETATM   32  H   UNL     1       4.069  32.278  64.461  1.00  0.00     0.169 HD
ENDBRANCH  24  28
ENDBRANCH   1  22
TORSDOF 7
ENDMDL
MODEL 9
REMARK VINA RESULT:      -8.6      6.224     10.233
REMARK  7 active torsions:
REMARK  status: ('A' for Active; 'I' for Inactive)
REMARK       I    between atoms: C_2  and  N_3 
REMARK    1  A    between atoms: N_3  and  C_4 
REMARK    2  A    between atoms: C_6  and  N_7 
REMARK       I    between atoms: N_7  and  C_8 
REMARK       I    between atoms: C_8  and  N_9 
REMARK    3  A    between atoms: N_9  and  C_10 
REMARK    4  A    between atoms: C_10  and  C_11 
REMARK    5  A    between atoms: C_11  and  C_12 
REMARK    6  A    between atoms: N_14  and  C_16 
REMARK    7  A    between atoms: C_16  and  C_17 
ROOT
HETATM    1  N   UNL     1       7.287  27.265  54.679  1.00  0.00    -0.309 N 
HETATM    2  C   UNL     1       6.269  28.169  54.682  1.00  0.00     0.320 C 
HETATM    3  N   UNL     1       5.250  27.974  53.804  1.00  0.00    -0.343 N 
HETATM    4  O   UNL     1       6.304  29.129  55.452  1.00  0.00    -0.247 OA
HETATM    5  H   UNL     1       8.099  27.619  55.170  1.00  0.00     0.170 HD
HETATM    6  H   UNL     1       5.484  27.395  53.007  1.00  0.00     0.164 HD
ENDROOT
BRANCH   3   7
HETATM    7  C   UNL     1       4.207  28.950  53.571  1.00  0.00     0.125 C 
BRANCH   7   8
HETATM    8  C   UNL     1       3.383  28.693  52.305  1.00  0.00     0.026 C 
BRANCH   8   9
HETATM    9  C   UNL     1       4.026  28.946  50.935  1.00  0.00     0.014 C 
HETATM   10  C   UNL     1       4.649  27.736  50.252  1.00  0.00     0.240 C 
HETATM   11  N   UNL     1       5.644  28.319  49.266  1.00  0.00    -0.067 N 
HETATM   12  H   UNL     1       6.553  27.907  49.524  1.00  0.00     0.280 HD
HETATM   13  C   UNL     1       5.736  29.806  49.525  1.00  0.00     0.235 C 
HETATM   14  C   UNL     1       5.117  30.004  50.893  1.00  0.00     0.034 C 
BRANCH  11  15
HETATM   15  C   UNL     1       5.390  27.994  47.823  1.00  0.00     0.273 C 
BRANCH  15  16
HETATM   16  C   UNL     1       3.948  27.706  47.501  1.00  0.00    -0.033 A 
HETATM   17  C   UNL     1       3.038  28.756  47.299  1.00  0.00     0.009 A 
HETATM   18  C   UNL     1       1.706  28.487  46.977  1.00  0.00     0.001 A 
HETATM   19  C   UNL     1       1.271  27.171  46.852  1.00  0.00     0.000 A 
HETATM   20  C   UNL     1       2.164  26.121  47.051  1.00  0.00     0.001 A 
HETATM   21  C   UNL     1       3.496  26.384  47.378  1.00  0.00     0.009 A 
ENDBRANCH  15  16
ENDBRANCH  11  15
ENDBRANCH   8   9
ENDBRANCH   7   8
ENDBRANCH   3   7
BRANCH   1  22
HETATM   22  C   UNL     1       7.414  25.970  54.132  1.00  0.00     0.038 A 
HETATM   23  C   UNL     1       7.354  24.787  54.879  1.00  0.00     0.059 A 
HETATM   24  C   UNL     1       7.469  23.535  54.261  1.00  0.00     0.036 A 
HETATM   25  C   UNL     1       7.695  23.478  52.880  1.00  0.00     0.029 A 
HETATM   26  C   UNL     1       7.803  24.650  52.133  1.00  0.00     0.004 A 
HETATM   27  C   UNL     1       7.667  25.890  52.759  1.00  0.00     0.029 A 
BRANCH  24  28
HETATM   28  N   UNL     1       7.378  22.304  54.945  1.00  0.00    -0.327 N 
HETATM   29  C   UNL     1       8.417  21.502  55.381  1.00  0.00     0.218 C 
HETATM   30  C   UNL     1       7.939  20.262  56.100  1.00  0.00     0.117 C 
HETATM   31  O   UNL     1       9.616  21.728  55.257  1.00  0.00    -0.274 OA
HETATM   32  H   UNL     1       6.439  21.999  55.177  1.00  0.00     0.169 HD
ENDBRANCH  24  28
ENDBRANCH   1  22
TORSDOF 7
ENDMDL
MODEL 10
REMARK VINA RESULT:      -8.6      3.345      5.664
REMARK  7 active torsions:
REMARK  status: ('A' for Active; 'I' for Inactive)
REMARK       I    between atoms: C_2  and  N_3 
REMARK    1  A    between atoms: N_3  and  C_4 
REMARK    2  A    between atoms: C_6  and  N_7 
REMARK       I    between atoms: N_7  and  C_8 
REMARK       I    between atoms: C_8  and  N_9 
REMARK    3  A    between atoms: N_9  and  C_10 
REMARK    4  A    between atoms: C_10  and  C_11 
REMARK    5  A    between atoms: C_11  and  C_12 
REMARK    6  A    between atoms: N_14  and  C_16 
REMARK    7  A    between atoms: C_16  and  C_17 
ROOT
HETATM    1  N   UNL     1       4.337  30.329  54.834  1.00  0.00    -0.309 N 
HETATM    2  C   UNL     1       4.181  30.019  53.518  1.00  0.00     0.320 C 
HETATM    3  N   UNL     1       5.167  29.303  52.917  1.00  0.00    -0.343 N 
HETATM    4  O   UNL     1       3.177  30.399  52.913  1.00  0.00    -0.247 OA
HETATM    5  H   UNL     1       3.695  31.058  55.123  1.00  0.00     0.170 HD
HETATM    6  H   UNL     1       6.067  29.355  53.379  1.00  0.00     0.164 HD
ENDROOT
BRANCH   3   7
HETATM    7  C   UNL     1       5.220  29.068  51.490  1.00  0.00     0.125 C 
BRANCH   7   8
HETATM    8  C   UNL     1       5.414  27.598  51.106  1.00  0.00     0.026 C 
BRANCH   8   9
HETATM    9  C   UNL     1       5.848  26.598  52.186  1.00  0.00     0.014 C 
HETATM   10  C   UNL     1       6.897  25.574  51.771  1.00  0.00     0.240 C 
HETATM   11  N   UNL     1       6.737  24.435  52.761  1.00  0.00    -0.067 N 
HETATM   12  H   UNL     1       6.542  23.602  52.186  1.00  0.00     0.280 HD
HETATM   13  C   UNL     1       5.499  24.709  53.585  1.00  0.00     0.235 C 
HETATM   14  C   UNL     1       4.740  25.768  52.813  1.00  0.00     0.034 C 
BRANCH  11  15
HETATM   15  C   UNL     1       7.943  24.137  53.603  1.00  0.00     0.273 C 
BRANCH  15  16
HETATM   16  C   UNL     1       8.009  22.720  54.104  1.00  0.00    -0.033 A 
HETATM   17  C   UNL     1       8.332  21.668  53.232  1.00  0.00     0.009 A 
HETATM   18  C   UNL     1       8.416  20.357  53.705  1.00  0.00     0.001 A 
HETATM   19  C   UNL     1       8.181  20.084  55.049  1.00  0.00     0.000 A 
HETATM   20  C   UNL     1       7.858  21.118  55.924  1.00  0.00     0.001 A 
HETATM   21  C   UNL     1       7.769  22.431  55.456  1.00  0.00     0.009 A 
ENDBRANCH  15  16
ENDBRANCH  11  15
ENDBRANCH   8   9
ENDBRANCH   7   8
ENDBRANCH   3   7
BRANCH   1  22
HETATM   22  C   UNL     1       5.202  29.840  55.836  1.00  0.00     0.038 A 
HETATM   23  C   UNL     1       6.055  30.642  56.606  1.00  0.00     0.059 A 
HETATM   24  C   UNL     1       6.872  30.084  57.597  1.00  0.00     0.036 A 
HETATM   25  C   UNL     1       6.864  28.697  57.782  1.00  0.00     0.029 A 
HETATM   26  C   UNL     1       6.055  27.883  56.991  1.00  0.00     0.004 A 
HETATM   27  C   UNL     1       5.231  28.453  56.020  1.00  0.00     0.029 A 
BRANCH  24  28
HETATM   28  N   UNL     1       7.723  30.836  58.435  1.00  0.00    -0.327 N 
HETATM   29  C   UNL     1       9.104  30.896  58.400  1.00  0.00     0.218 C 
HETATM   30  C   UNL     1       9.678  31.829  59.441  1.00  0.00     0.117 C 
HETATM   31  O   UNL     1       9.842  30.304  57.618  1.00  0.00    -0.274 OA
HETATM   32  H   UNL     1       7.258  31.432  59.112  1.00  0.00     0.169 HD
ENDBRANCH  24  28
ENDBRANCH   1  22
TORSDOF 7
ENDMDL
