MODEL 1
REMARK VINA RESULT:     -10.0      0.000      0.000
REMARK  8 active torsions:
REMARK  status: ('A' for Active; 'I' for Inactive)
REMARK    1  A    between atoms: C_2  and  O_3 
REMARK    2  A    between atoms: O_3  and  C_4 
REMARK    3  A    between atoms: C_5  and  C_6 
REMARK    4  A    between atoms: C_6  and  N_7 
REMARK    5  A    between atoms: C_9  and  C_10 
REMARK    6  A    between atoms: C_10  and  C_11 
REMARK       I    between atoms: C_11  and  N_12 
REMARK    7  A    between atoms: N_12  and  C_13 
REMARK    8  A    between atoms: C_13  and  C_14 
ROOT
HETATM    1  N   UNL     1       6.407  26.361  55.103  1.00  0.00    -0.052 N 
HETATM    2  H   UNL     1       6.007  26.203  54.167  1.00  0.00     0.281 HD
HETATM    3  C   UNL     1       5.359  27.344  55.665  1.00  0.00     0.288 C 
HETATM    4  C   UNL     1       5.221  28.592  54.766  1.00  0.00     0.249 C 
HETATM    5  O   UNL     1       4.287  29.379  54.880  1.00  0.00    -0.271 OA
HETATM    6  N   UNL     1       6.146  28.748  53.765  1.00  0.00    -0.358 N 
HETATM    7  C   UNL     1       7.489  28.177  53.770  1.00  0.00     0.150 C 
HETATM    8  C   UNL     1       7.722  26.993  54.728  1.00  0.00     0.256 C 
HETATM    9  H   UNL     1       6.009  29.607  53.237  1.00  0.00     0.162 HD
ENDROOT
BRANCH   3  10
HETATM   10  C   UNL     1       5.448  27.735  57.142  1.00  0.00     0.145 C 
BRANCH  10  11
HETATM   11  C   UNL     1       6.845  28.030  57.631  1.00  0.00     0.220 C 
HETATM   12  N   UNL     1       7.207  29.349  57.543  1.00  0.00    -0.355 N 
HETATM   13  H   UNL     1       6.635  30.009  57.027  1.00  0.00     0.162 HD
HETATM   14  O   UNL     1       7.580  27.163  58.091  1.00  0.00    -0.274 OA
BRANCH  12  15
HETATM   15  C   UNL     1       8.461  29.844  58.061  1.00  0.00     0.179 C 
BRANCH  15  16
HETATM   16  C   UNL     1       8.205  30.529  59.347  1.00  0.00     0.028 A 
HETATM   17  N   UNL     1       7.049  31.236  59.582  1.00  0.00    -0.357 N 
HETATM   18  H   UNL     1       6.281  31.327  58.929  1.00  0.00     0.166 HD
HETATM   19  C   UNL     1       7.090  31.829  60.823  1.00  0.00     0.043 A 
HETATM   20  C   UNL     1       8.315  31.489  61.399  1.00  0.00    -0.005 A 
HETATM   21  C   UNL     1       6.151  32.644  61.467  1.00  0.00     0.033 A 
HETATM   22  C   UNL     1       9.001  30.663  60.467  1.00  0.00     0.040 A 
HETATM   23  C   UNL     1       8.628  31.989  62.675  1.00  0.00     0.056 A 
HETATM   24  C   UNL     1       7.700  32.805  63.319  1.00  0.00     0.117 A 
HETATM   25  C   UNL     1       6.482  33.129  62.735  1.00  0.00     0.044 A 
HETATM   26  F   UNL     1       7.993  33.293  64.533  1.00  0.00    -0.206 F 
ENDBRANCH  15  16
ENDBRANCH  12  15
ENDBRANCH  10  11
ENDBRANCH   3  10
BRANCH   1  27
HETATM   27  C   UNL     1       6.446  24.947  55.632  1.00  0.00     0.277 C 
BRANCH  27  28
HETATM   28  C   UNL     1       7.302  23.896  54.975  1.00  0.00     0.001 A 
HETATM   29  C   UNL     1       7.085  23.605  53.610  1.00  0.00     0.076 A 
HETATM   30  C   UNL     1       7.815  22.604  52.964  1.00  0.00     0.037 A 
HETATM   31  C   UNL     1       8.829  21.933  53.643  1.00  0.00     0.003 A 
HETATM   32  C   UNL     1       9.125  22.277  54.956  1.00  0.00     0.001 A 
HETATM   33  C   UNL     1       8.378  23.261  55.612  1.00  0.00     0.012 A 
BRANCH  29  34
HETATM   34  O   UNL     1       6.119  24.345  52.973  1.00  0.00    -0.351 OA
BRANCH  34  35
HETATM   35  C   UNL     1       6.570  25.077  51.825  1.00  0.00     0.171 C 
HETATM   36  C   UNL     1       5.415  25.929  51.332  1.00  0.00     0.034 C 
ENDBRANCH  34  35
ENDBRANCH  29  34
ENDBRANCH  27  28
ENDBRANCH   1  27
TORSDOF 8
ENDMDL
MODEL 2
REMARK VINA RESULT:      -9.8      3.799      8.937
REMARK  8 active torsions:
REMARK  status: ('A' for Active; 'I' for Inactive)
REMARK    1  A    between atoms: C_2  and  O_3 
REMARK    2  A    between atoms: O_3  and  C_4 
REMARK    3  A    between atoms: C_5  and  C_6 
REMARK    4  A    between atoms: C_6  and  N_7 
REMARK    5  A    between atoms: C_9  and  C_10 
REMARK    6  A    between atoms: C_10  and  C_11 
REMARK       I    between atoms: C_11  and  N_12 
REMARK    7  A    between atoms: N_12  and  C_13 
REMARK    8  A    between atoms: C_13  and  C_14 
ROOT
HETATM    1  N   UNL     1       6.025  29.762  56.461  1.00  0.00    -0.052 N 
HETATM    2  H   UNL     1       6.679  30.190  55.791  1.00  0.00     0.281 HD
HETATM    3  C   UNL     1       5.700  28.457  55.703  1.00  0.00     0.288 C 
HETATM    4  C   UNL     1       5.136  28.751  54.296  1.00  0.00     0.249 C 
HETATM    5  O   UNL     1       5.042  27.882  53.436  1.00  0.00    -0.271 OA
HETATM    6  N   UNL     1       4.817  30.054  54.009  1.00  0.00    -0.358 N 
HETATM    7  C   UNL     1       4.477  31.070  55.000  1.00  0.00     0.150 C 
HETATM    8  C   UNL     1       4.920  30.785  56.447  1.00  0.00     0.256 C 
HETATM    9  H   UNL     1       4.424  30.164  53.077  1.00  0.00     0.162 HD
ENDROOT
BRANCH   3  10
HETATM   10  C   UNL     1       4.872  27.388  56.418  1.00  0.00     0.145 C 
BRANCH  10  11
HETATM   11  C   UNL     1       5.670  26.217  56.938  1.00  0.00     0.220 C 
HETATM   12  N   UNL     1       7.024  26.338  56.771  1.00  0.00    -0.355 N 
HETATM   13  H   UNL     1       7.410  27.074  56.190  1.00  0.00     0.162 HD
HETATM   14  O   UNL     1       5.146  25.252  57.484  1.00  0.00    -0.274 OA
BRANCH  12  15
HETATM   15  C   UNL     1       7.959  25.372  57.300  1.00  0.00     0.179 C 
BRANCH  15  16
HETATM   16  C   UNL     1       8.009  24.211  56.386  1.00  0.00     0.028 A 
HETATM   17  N   UNL     1       8.308  22.943  56.829  1.00  0.00    -0.357 N 
HETATM   18  H   UNL     1       8.488  22.692  57.793  1.00  0.00     0.166 HD
HETATM   19  C   UNL     1       8.355  22.062  55.773  1.00  0.00     0.043 A 
HETATM   20  C   UNL     1       8.078  22.792  54.617  1.00  0.00    -0.005 A 
HETATM   21  C   UNL     1       8.634  20.689  55.753  1.00  0.00     0.033 A 
HETATM   22  C   UNL     1       7.851  24.137  55.016  1.00  0.00     0.040 A 
HETATM   23  C   UNL     1       8.085  22.130  53.377  1.00  0.00     0.056 A 
HETATM   24  C   UNL     1       8.366  20.765  53.349  1.00  0.00     0.117 A 
HETATM   25  C   UNL     1       8.634  20.051  54.510  1.00  0.00     0.044 A 
HETATM   26  F   UNL     1       8.382  20.127  52.171  1.00  0.00    -0.206 F 
ENDBRANCH  15  16
ENDBRANCH  12  15
ENDBRANCH  10  11
ENDBRANCH   3  10
BRANCH   1  27
HETATM   27  C   UNL     1       6.893  29.698  57.696  1.00  0.00     0.277 C 
BRANCH  27  28
HETATM   28  C   UNL     1       8.381  29.913  57.610  1.00  0.00     0.001 A 
HETATM   29  C   UNL     1       8.960  30.942  58.384  1.00  0.00     0.076 A 
HETATM   30  C   UNL     1      10.328  31.218  58.304  1.00  0.00     0.037 A 
HETATM   31  C   UNL     1      11.154  30.421  57.516  1.00  0.00     0.003 A 
HETATM   32  C   UNL     1      10.618  29.340  56.827  1.00  0.00     0.001 A 
HETATM   33  C   UNL     1       9.245  29.078  56.886  1.00  0.00     0.012 A 
BRANCH  29  34
HETATM   34  O   UNL     1       8.108  31.651  59.194  1.00  0.00    -0.351 OA
BRANCH  34  35
HETATM   35  C   UNL     1       8.744  32.408  60.235  1.00  0.00     0.171 C 
HETATM   36  C   UNL     1       8.478  31.702  61.552  1.00  0.00     0.034 C 
ENDBRANCH  34  35
ENDBRANCH  29  34
ENDBRANCH  27  28
ENDBRANCH   1  27
TORSDOF 8
ENDMDL
MODEL 3
REMARK VINA RESULT:      -9.4      3.486      8.869
REMARK  8 active torsions:
REMARK  status: ('A' for Active; 'I' for Inactive)
REMARK    1  A    between atoms: C_2  and  O_3 
REMARK    2  A    between atoms: O_3  and  C_4 
REMARK    3  A    between atoms: C_5  and  C_6 
REMARK    4  A    between atoms: C_6  and  N_7 
REMARK    5  A    between atoms: C_9  and  C_10 
REMARK    6  A    between atoms: C_10  and  C_11 
REMARK       I    between atoms: C_11  and  N_12 
REMARK    7  A    between atoms: N_12  and  C_13 
REMARK    8  A    between atoms: C_13  and  C_14 
ROOT
HETATM    1  N   UNL     1       5.768  29.879  57.071  1.00  0.00    -0.052 N 
HETATM    2  H   UNL     1       6.230  30.782  56.896  1.00  0.00     0.281 HD
HETATM    3  C   UNL     1       5.386  29.503  55.624  1.00  0.00     0.288 C 
HETATM    4  C   UNL     1       4.514  30.597  54.971  1.00  0.00     0.249 C 
HETATM    5  O   UNL     1       4.301  30.629  53.764  1.00  0.00    -0.271 OA
HETATM    6  N   UNL     1       4.046  31.595  55.788  1.00  0.00    -0.358 N 
HETATM    7  C   UNL     1       3.851  31.475  57.230  1.00  0.00     0.150 C 
HETATM    8  C   UNL     1       4.613  30.331  57.926  1.00  0.00     0.256 C 
HETATM    9  H   UNL     1       3.455  32.260  55.294  1.00  0.00     0.162 HD
ENDROOT
BRANCH   3  10
HETATM   10  C   UNL     1       4.811  28.109  55.364  1.00  0.00     0.145 C 
BRANCH  10  11
HETATM   11  C   UNL     1       5.385  27.407  54.158  1.00  0.00     0.220 C 
HETATM   12  N   UNL     1       6.741  27.222  54.205  1.00  0.00    -0.355 N 
HETATM   13  H   UNL     1       7.302  27.683  54.912  1.00  0.00     0.162 HD
HETATM   14  O   UNL     1       4.687  27.016  53.228  1.00  0.00    -0.274 OA
BRANCH  12  15
HETATM   15  C   UNL     1       7.456  26.475  53.196  1.00  0.00     0.179 C 
BRANCH  15  16
HETATM   16  C   UNL     1       7.630  25.085  53.669  1.00  0.00     0.028 A 
HETATM   17  N   UNL     1       7.771  24.028  52.800  1.00  0.00    -0.357 N 
HETATM   18  H   UNL     1       7.797  24.105  51.791  1.00  0.00     0.166 HD
HETATM   19  C   UNL     1       7.847  22.841  53.492  1.00  0.00     0.043 A 
HETATM   20  C   UNL     1       7.750  23.151  54.850  1.00  0.00    -0.005 A 
HETATM   21  C   UNL     1       7.980  21.528  53.023  1.00  0.00     0.033 A 
HETATM   22  C   UNL     1       7.626  24.564  54.948  1.00  0.00     0.040 A 
HETATM   23  C   UNL     1       7.777  22.106  55.789  1.00  0.00     0.056 A 
HETATM   24  C   UNL     1       7.904  20.796  55.329  1.00  0.00     0.117 A 
HETATM   25  C   UNL     1       8.006  20.504  53.974  1.00  0.00     0.044 A 
HETATM   26  F   UNL     1       7.923  19.793  56.216  1.00  0.00    -0.206 F 
ENDBRANCH  15  16
ENDBRANCH  12  15
ENDBRANCH  10  11
ENDBRANCH   3  10
BRANCH   1  27
HETATM   27  C   UNL     1       6.882  29.124  57.757  1.00  0.00     0.277 C 
BRANCH  27  28
HETATM   28  C   UNL     1       8.313  29.579  57.642  1.00  0.00     0.001 A 
HETATM   29  C   UNL     1       8.724  30.710  58.381  1.00  0.00     0.076 A 
HETATM   30  C   UNL     1      10.026  31.205  58.271  1.00  0.00     0.037 A 
HETATM   31  C   UNL     1      10.963  30.535  57.490  1.00  0.00     0.003 A 
HETATM   32  C   UNL     1      10.604  29.362  56.836  1.00  0.00     0.001 A 
HETATM   33  C   UNL     1       9.294  28.879  56.924  1.00  0.00     0.012 A 
BRANCH  29  34
HETATM   34  O   UNL     1       7.776  31.290  59.187  1.00  0.00    -0.351 OA
BRANCH  34  35
HETATM   35  C   UNL     1       8.063  31.248  60.593  1.00  0.00     0.171 C 
HETATM   36  C   UNL     1       7.718  32.604  61.180  1.00  0.00     0.034 C 
ENDBRANCH  34  35
ENDBRANCH  29  34
ENDBRANCH  27  28
ENDBRANCH   1  27
TORSDOF 8
ENDMDL
MODEL 4
REMARK VINA RESULT:      -9.3      3.331      9.263
REMARK  8 active torsions:
REMARK  status: ('A' for Active; 'I' for Inactive)
REMARK    1  A    between atoms: C_2  and  O_3 
REMARK    2  A    between atoms: O_3  and  C_4 
REMARK    3  A    between atoms: C_5  and  C_6 
REMARK    4  A    between atoms: C_6  and  N_7 
REMARK    5  A    between atoms: C_9  and  C_10 
REMARK    6  A    between atoms: C_10  and  C_11 
REMARK       I    between atoms: C_11  and  N_12 
REMARK    7  A    between atoms: N_12  and  C_13 
REMARK    8  A    between atoms: C_13  and  C_14 
ROOT
HETATM    1  N   UNL     1       6.728  28.713  57.112  1.00  0.00    -0.052 N 
HETATM    2  H   UNL     1       6.877  28.538  58.116  1.00  0.00     0.281 HD
HETATM    3  C   UNL     1       5.455  27.869  56.892  1.00  0.00     0.288 C 
HETATM    4  C   UNL     1       5.679  26.397  57.299  1.00  0.00     0.249 C 
HETATM    5  O   UNL     1       4.750  25.610  57.441  1.00  0.00    -0.271 OA
HETATM    6  N   UNL     1       6.967  26.015  57.582  1.00  0.00    -0.358 N 
HETATM    7  C   UNL     1       8.166  26.669  57.069  1.00  0.00     0.150 C 
HETATM    8  C   UNL     1       7.986  28.108  56.546  1.00  0.00     0.256 C 
HETATM    9  H   UNL     1       7.039  25.026  57.811  1.00  0.00     0.162 HD
ENDROOT
BRANCH   3  10
HETATM   10  C   UNL     1       4.745  27.967  55.540  1.00  0.00     0.145 C 
BRANCH  10  11
HETATM   11  C   UNL     1       5.468  27.295  54.399  1.00  0.00     0.220 C 
HETATM   12  N   UNL     1       5.131  25.981  54.213  1.00  0.00    -0.355 N 
HETATM   13  H   UNL     1       4.578  25.485  54.903  1.00  0.00     0.162 HD
HETATM   14  O   UNL     1       6.271  27.889  53.687  1.00  0.00    -0.274 OA
BRANCH  12  15
HETATM   15  C   UNL     1       5.635  25.201  53.105  1.00  0.00     0.179 C 
BRANCH  15  16
HETATM   16  C   UNL     1       6.493  24.121  53.637  1.00  0.00     0.028 A 
HETATM   17  N   UNL     1       6.964  23.102  52.842  1.00  0.00    -0.357 N 
HETATM   18  H   UNL     1       6.796  23.016  51.847  1.00  0.00     0.166 HD
HETATM   19  C   UNL     1       7.678  22.196  53.592  1.00  0.00     0.043 A 
HETATM   20  C   UNL     1       7.662  22.652  54.911  1.00  0.00    -0.005 A 
HETATM   21  C   UNL     1       8.320  21.011  53.208  1.00  0.00     0.033 A 
HETATM   22  C   UNL     1       6.925  23.867  54.924  1.00  0.00     0.040 A 
HETATM   23  C   UNL     1       8.307  21.890  55.901  1.00  0.00     0.056 A 
HETATM   24  C   UNL     1       8.943  20.708  55.527  1.00  0.00     0.117 A 
HETATM   25  C   UNL     1       8.956  20.271  54.208  1.00  0.00     0.044 A 
HETATM   26  F   UNL     1       9.554  19.972  56.465  1.00  0.00    -0.206 F 
ENDBRANCH  15  16
ENDBRANCH  12  15
ENDBRANCH  10  11
ENDBRANCH   3  10
BRANCH   1  27
HETATM   27  C   UNL     1       6.622  30.220  57.104  1.00  0.00     0.277 C 
BRANCH  27  28
HETATM   28  C   UNL     1       6.794  31.016  58.371  1.00  0.00     0.001 A 
HETATM   29  C   UNL     1       8.041  30.974  59.031  1.00  0.00     0.076 A 
HETATM   30  C   UNL     1       8.239  31.653  60.237  1.00  0.00     0.037 A 
HETATM   31  C   UNL     1       7.225  32.451  60.761  1.00  0.00     0.003 A 
HETATM   32  C   UNL     1       6.027  32.585  60.072  1.00  0.00     0.001 A 
HETATM   33  C   UNL     1       5.818  31.886  58.879  1.00  0.00     0.012 A 
BRANCH  29  34
HETATM   34  O   UNL     1       9.025  30.226  58.433  1.00  0.00    -0.351 OA
BRANCH  34  35
HETATM   35  C   UNL     1      10.198  30.958  58.049  1.00  0.00     0.171 C 
HETATM   36  C   UNL     1      11.097  30.019  57.265  1.00  0.00     0.034 C 
ENDBRANCH  34  35
ENDBRANCH  29  34
ENDBRANCH  27  28
ENDBRANCH   1  27
TORSDOF 8
ENDMDL
MODEL 5
REMARK VINA RESULT:      -9.3      2.042      3.280
REMARK  8 active torsions:
REMARK  status: ('A' for Active; 'I' for Inactive)
REMARK    1  A    between atoms: C_2  and  O_3 
REMARK    2  A    between atoms: O_3  and  C_4 
REMARK    3  A    between atoms: C_5  and  C_6 
REMARK    4  A    between atoms: C_6  and  N_7 
REMARK    5  A    between atoms: C_9  and  C_10 
REMARK    6  A    between atoms: C_10  and  C_11 
REMARK       I    between atoms: C_11  and  N_12 
REMARK    7  A    between atoms: N_12  and  C_13 
REMARK    8  A    between atoms: C_13  and  C_14 
ROOT
HETATM    1  N   UNL     1       6.706  25.328  53.414  1.00  0.00    -0.052 N 
HETATM    2  H   UNL     1       6.055  24.741  53.955  1.00  0.00     0.281 HD
HETATM    3  C   UNL     1       6.469  26.682  54.117  1.00  0.00     0.288 C 
HETATM    4  C   UNL     1       4.981  27.090  54.064  1.00  0.00     0.249 C 
HETATM    5  O   UNL     1       4.525  27.991  54.760  1.00  0.00    -0.271 OA
HETATM    6  N   UNL     1       4.155  26.344  53.262  1.00  0.00    -0.358 N 
HETATM    7  C   UNL     1       4.590  25.567  52.105  1.00  0.00     0.150 C 
HETATM    8  C   UNL     1       6.090  25.218  52.044  1.00  0.00     0.256 C 
HETATM    9  H   UNL     1       3.199  26.691  53.255  1.00  0.00     0.162 HD
ENDROOT
BRANCH   3  10
HETATM   10  C   UNL     1       7.377  27.858  53.751  1.00  0.00     0.145 C 
BRANCH  10  11
HETATM   11  C   UNL     1       8.234  28.367  54.885  1.00  0.00     0.220 C 
HETATM   12  N   UNL     1       7.810  27.983  56.129  1.00  0.00    -0.355 N 
HETATM   13  H   UNL     1       6.902  27.549  56.256  1.00  0.00     0.162 HD
HETATM   14  O   UNL     1       9.239  29.046  54.699  1.00  0.00    -0.274 OA
BRANCH  12  15
HETATM   15  C   UNL     1       8.559  28.280  57.329  1.00  0.00     0.179 C 
BRANCH  15  16
HETATM   16  C   UNL     1       7.943  29.447  57.996  1.00  0.00     0.028 A 
HETATM   17  N   UNL     1       8.435  29.960  59.173  1.00  0.00    -0.357 N 
HETATM   18  H   UNL     1       9.252  29.616  59.662  1.00  0.00     0.166 HD
HETATM   19  C   UNL     1       7.644  30.996  59.616  1.00  0.00     0.043 A 
HETATM   20  C   UNL     1       6.612  31.149  58.689  1.00  0.00    -0.005 A 
HETATM   21  C   UNL     1       7.755  31.793  60.763  1.00  0.00     0.033 A 
HETATM   22  C   UNL     1       6.818  30.178  57.670  1.00  0.00     0.040 A 
HETATM   23  C   UNL     1       5.636  32.136  58.914  1.00  0.00     0.056 A 
HETATM   24  C   UNL     1       5.738  32.928  60.056  1.00  0.00     0.117 A 
HETATM   25  C   UNL     1       6.776  32.769  60.966  1.00  0.00     0.044 A 
HETATM   26  F   UNL     1       4.809  33.866  60.282  1.00  0.00    -0.206 F 
ENDBRANCH  15  16
ENDBRANCH  12  15
ENDBRANCH  10  11
ENDBRANCH   3  10
BRANCH   1  27
HETATM   27  C   UNL     1       8.005  24.595  53.649  1.00  0.00     0.277 C 
BRANCH  27  28
HETATM   28  C   UNL     1       8.025  23.108  53.887  1.00  0.00     0.001 A 
HETATM   29  C   UNL     1       7.679  22.625  55.168  1.00  0.00     0.076 A 
HETATM   30  C   UNL     1       7.730  21.259  55.458  1.00  0.00     0.037 A 
HETATM   31  C   UNL     1       8.046  20.345  54.456  1.00  0.00     0.003 A 
HETATM   32  C   UNL     1       8.290  20.795  53.164  1.00  0.00     0.001 A 
HETATM   33  C   UNL     1       8.265  22.164  52.878  1.00  0.00     0.012 A 
BRANCH  29  34
HETATM   34  O   UNL     1       7.309  23.566  56.097  1.00  0.00    -0.351 OA
BRANCH  34  35
HETATM   35  C   UNL     1       8.104  23.587  57.292  1.00  0.00     0.171 C 
HETATM   36  C   UNL     1       9.204  24.616  57.102  1.00  0.00     0.034 C 
ENDBRANCH  34  35
ENDBRANCH  29  34
ENDBRANCH  27  28
ENDBRANCH   1  27
TORSDOF 8
ENDMDL
MODEL 6
REMARK VINA RESULT:      -9.2      1.940      3.031
REMARK  8 active torsions:
REMARK  status: ('A' for Active; 'I' for Inactive)
REMARK    1  A    between atoms: C_2  and  O_3 
REMARK    2  A    between atoms: O_3  and  C_4 
REMARK    3  A    between atoms: C_5  and  C_6 
REMARK    4  A    between atoms: C_6  and  N_7 
REMARK    5  A    between atoms: C_9  and  C_10 
REMARK    6  A    between atoms: C_10  and  C_11 
REMARK       I    between atoms: C_11  and  N_12 
REMARK    7  A    between atoms: N_12  and  C_13 
REMARK    8  A    between atoms: C_13  and  C_14 
ROOT
HETATM    1  N   UNL     1       6.649  25.564  53.280  1.00  0.00    -0.052 N 
HETATM    2  H   UNL     1       5.938  24.827  53.172  1.00  0.00     0.281 HD
HETATM    3  C   UNL     1       5.788  26.652  53.955  1.00  0.00     0.288 C 
HETATM    4  C   UNL     1       4.561  27.014  53.090  1.00  0.00     0.249 C 
HETATM    5  O   UNL     1       3.619  27.664  53.532  1.00  0.00    -0.271 OA
HETATM    6  N   UNL     1       4.520  26.504  51.817  1.00  0.00    -0.358 N 
HETATM    7  C   UNL     1       5.687  26.105  51.037  1.00  0.00     0.150 C 
HETATM    8  C   UNL     1       6.977  25.832  51.834  1.00  0.00     0.256 C 
HETATM    9  H   UNL     1       3.699  26.810  51.300  1.00  0.00     0.162 HD
ENDROOT
BRANCH   3  10
HETATM   10  C   UNL     1       6.485  27.910  54.477  1.00  0.00     0.145 C 
BRANCH  10  11
HETATM   11  C   UNL     1       5.821  28.547  55.673  1.00  0.00     0.220 C 
HETATM   12  N   UNL     1       5.939  29.911  55.724  1.00  0.00    -0.355 N 
HETATM   13  H   UNL     1       6.571  30.399  55.099  1.00  0.00     0.162 HD
HETATM   14  O   UNL     1       5.207  27.896  56.512  1.00  0.00    -0.274 OA
BRANCH  12  15
HETATM   15  C   UNL     1       5.279  30.709  56.731  1.00  0.00     0.179 C 
BRANCH  15  16
HETATM   16  C   UNL     1       6.233  30.966  57.832  1.00  0.00     0.028 A 
HETATM   17  N   UNL     1       5.847  31.566  59.008  1.00  0.00    -0.357 N 
HETATM   18  H   UNL     1       4.902  31.851  59.233  1.00  0.00     0.166 HD
HETATM   19  C   UNL     1       6.933  31.751  59.834  1.00  0.00     0.043 A 
HETATM   20  C   UNL     1       8.049  31.253  59.160  1.00  0.00    -0.005 A 
HETATM   21  C   UNL     1       7.013  32.328  61.107  1.00  0.00     0.033 A 
HETATM   22  C   UNL     1       7.595  30.752  57.910  1.00  0.00     0.040 A 
HETATM   23  C   UNL     1       9.310  31.339  59.777  1.00  0.00     0.056 A 
HETATM   24  C   UNL     1       9.397  31.917  61.042  1.00  0.00     0.117 A 
HETATM   25  C   UNL     1       8.275  32.402  61.703  1.00  0.00     0.044 A 
HETATM   26  F   UNL     1      10.595  32.010  61.635  1.00  0.00    -0.206 F 
ENDBRANCH  15  16
ENDBRANCH  12  15
ENDBRANCH  10  11
ENDBRANCH   3  10
BRANCH   1  27
HETATM   27  C   UNL     1       7.685  24.833  54.100  1.00  0.00     0.277 C 
BRANCH  27  28
HETATM   28  C   UNL     1       7.769  23.329  54.083  1.00  0.00     0.001 A 
HETATM   29  C   UNL     1       7.631  22.632  55.303  1.00  0.00     0.076 A 
HETATM   30  C   UNL     1       7.751  21.240  55.353  1.00  0.00     0.037 A 
HETATM   31  C   UNL     1       7.928  20.514  54.178  1.00  0.00     0.003 A 
HETATM   32  C   UNL     1       7.963  21.176  52.957  1.00  0.00     0.001 A 
HETATM   33  C   UNL     1       7.869  22.570  52.908  1.00  0.00     0.012 A 
BRANCH  29  34
HETATM   34  O   UNL     1       7.391  23.395  56.420  1.00  0.00    -0.351 OA
BRANCH  34  35
HETATM   35  C   UNL     1       8.523  23.588  57.281  1.00  0.00     0.171 C 
HETATM   36  C   UNL     1       8.612  25.067  57.608  1.00  0.00     0.034 C 
ENDBRANCH  34  35
ENDBRANCH  29  34
ENDBRANCH  27  28
ENDBRANCH   1  27
TORSDOF 8
ENDMDL
MODEL 7
REMARK VINA RESULT:      -9.0      3.481      9.404
REMARK  8 active torsions:
REMARK  status: ('A' for Active; 'I' for Inactive)
REMARK    1  A    between atoms: C_2  and  O_3 
REMARK    2  A    between atoms: O_3  and  C_4 
REMARK    3  A    between atoms: C_5  and  C_6 
REMARK    4  A    between atoms: C_6  and  N_7 
REMARK    5  A    between atoms: C_9  and  C_10 
REMARK    6  A    between atoms: C_10  and  C_11 
REMARK       I    between atoms: C_11  and  N_12 
REMARK    7  A    between atoms: N_12  and  C_13 
REMARK    8  A    between atoms: C_13  and  C_14 
ROOT
HETATM    1  N   UNL     1       7.163  28.712  57.522  1.00  0.00    -0.052 N 
HETATM    2  H   UNL     1       7.105  28.388  58.498  1.00  0.00     0.281 HD
HETATM    3  C   UNL     1       5.871  28.076  56.965  1.00  0.00     0.288 C 
HETATM    4  C   UNL     1       5.863  26.547  57.174  1.00  0.00     0.249 C 
HETATM    5  O   UNL     1       4.847  25.873  57.038  1.00  0.00    -0.271 OA
HETATM    6  N   UNL     1       7.029  25.967  57.607  1.00  0.00    -0.358 N 
HETATM    7  C   UNL     1       8.364  26.523  57.408  1.00  0.00     0.150 C 
HETATM    8  C   UNL     1       8.434  28.029  57.089  1.00  0.00     0.256 C 
HETATM    9  H   UNL     1       6.956  24.956  57.692  1.00  0.00     0.162 HD
ENDROOT
BRANCH   3  10
HETATM   10  C   UNL     1       5.436  28.441  55.545  1.00  0.00     0.145 C 
BRANCH  10  11
HETATM   11  C   UNL     1       6.220  27.759  54.451  1.00  0.00     0.220 C 
HETATM   12  N   UNL     1       5.688  26.568  54.033  1.00  0.00    -0.355 N 
HETATM   13  H   UNL     1       4.937  26.127  54.552  1.00  0.00     0.162 HD
HETATM   14  O   UNL     1       7.235  28.247  53.964  1.00  0.00    -0.274 OA
BRANCH  12  15
HETATM   15  C   UNL     1       6.234  25.823  52.922  1.00  0.00     0.179 C 
BRANCH  15  16
HETATM   16  C   UNL     1       6.789  24.551  53.433  1.00  0.00     0.028 A 
HETATM   17  N   UNL     1       7.331  23.602  52.597  1.00  0.00    -0.357 N 
HETATM   18  H   UNL     1       7.422  23.695  51.593  1.00  0.00     0.166 HD
HETATM   19  C   UNL     1       7.710  22.489  53.313  1.00  0.00     0.043 A 
HETATM   20  C   UNL     1       7.400  22.737  54.651  1.00  0.00    -0.005 A 
HETATM   21  C   UNL     1       8.287  21.289  52.879  1.00  0.00     0.033 A 
HETATM   22  C   UNL     1       6.832  24.039  54.715  1.00  0.00     0.040 A 
HETATM   23  C   UNL     1       7.667  21.741  55.606  1.00  0.00     0.056 A 
HETATM   24  C   UNL     1       8.236  20.542  55.181  1.00  0.00     0.117 A 
HETATM   25  C   UNL     1       8.546  20.313  53.846  1.00  0.00     0.044 A 
HETATM   26  F   UNL     1       8.487  19.584  56.083  1.00  0.00    -0.206 F 
ENDBRANCH  15  16
ENDBRANCH  12  15
ENDBRANCH  10  11
ENDBRANCH   3  10
BRANCH   1  27
HETATM   27  C   UNL     1       7.217  30.207  57.726  1.00  0.00     0.277 C 
BRANCH  27  28
HETATM   28  C   UNL     1       7.790  30.798  58.988  1.00  0.00     0.001 A 
HETATM   29  C   UNL     1       7.313  32.054  59.422  1.00  0.00     0.076 A 
HETATM   30  C   UNL     1       7.846  32.671  60.557  1.00  0.00     0.037 A 
HETATM   31  C   UNL     1       8.802  32.011  61.325  1.00  0.00     0.003 A 
HETATM   32  C   UNL     1       9.208  30.731  60.970  1.00  0.00     0.001 A 
HETATM   33  C   UNL     1       8.695  30.122  59.819  1.00  0.00     0.012 A 
BRANCH  29  34
HETATM   34  O   UNL     1       6.322  32.627  58.664  1.00  0.00    -0.351 OA
BRANCH  34  35
HETATM   35  C   UNL     1       5.114  32.938  59.374  1.00  0.00     0.171 C 
HETATM   36  C   UNL     1       4.086  33.406  58.361  1.00  0.00     0.034 C 
ENDBRANCH  34  35
ENDBRANCH  29  34
ENDBRANCH  27  28
ENDBRANCH   1  27
TORSDOF 8
ENDMDL
MODEL 8
REMARK VINA RESULT:      -8.9      3.476      9.688
REMARK  8 active torsions:
REMARK  status: ('A' for Active; 'I' for Inactive)
REMARK    1  A    between atoms: C_2  and  O_3 
REMARK    2  A    between atoms: O_3  and  C_4 
REMARK    3  A    between atoms: C_5  and  C_6 
REMARK    4  A    between atoms: C_6  and  N_7 
REMARK    5  A    between atoms: C_9  and  C_10 
REMARK    6  A    between atoms: C_10  and  C_11 
REMARK       I    between atoms: C_11  and  N_12 
REMARK    7  A    between atoms: N_12  and  C_13 
REMARK    8  A    between atoms: C_13  and  C_14 
ROOT
HETATM    1  N   UNL     1       8.000  30.260  58.156  1.00  0.00    -0.052 N 
HETATM    2  H   UNL     1       8.343  29.644  58.907  1.00  0.00     0.281 HD
HETATM    3  C   UNL     1       7.305  29.211  57.262  1.00  0.00     0.288 C 
HETATM    4  C   UNL     1       8.286  28.099  56.834  1.00  0.00     0.249 C 
HETATM    5  O   UNL     1       7.904  27.046  56.335  1.00  0.00    -0.271 OA
HETATM    6  N   UNL     1       9.616  28.296  57.111  1.00  0.00    -0.358 N 
HETATM    7  C   UNL     1      10.249  29.599  57.290  1.00  0.00     0.150 C 
HETATM    8  C   UNL     1       9.308  30.775  57.615  1.00  0.00     0.256 C 
HETATM    9  H   UNL     1      10.203  27.538  56.772  1.00  0.00     0.162 HD
ENDROOT
BRANCH   3  10
HETATM   10  C   UNL     1       6.476  29.703  56.075  1.00  0.00     0.145 C 
BRANCH  10  11
HETATM   11  C   UNL     1       5.431  28.729  55.590  1.00  0.00     0.220 C 
HETATM   12  N   UNL     1       5.724  28.139  54.388  1.00  0.00    -0.355 N 
HETATM   13  H   UNL     1       6.490  28.479  53.818  1.00  0.00     0.162 HD
HETATM   14  O   UNL     1       4.418  28.472  56.233  1.00  0.00    -0.274 OA
BRANCH  12  15
HETATM   15  C   UNL     1       4.900  27.100  53.814  1.00  0.00     0.179 C 
BRANCH  15  16
HETATM   16  C   UNL     1       5.666  25.835  53.812  1.00  0.00     0.028 A 
HETATM   17  N   UNL     1       6.001  25.181  54.975  1.00  0.00    -0.357 N 
HETATM   18  H   UNL     1       5.741  25.481  55.906  1.00  0.00     0.166 HD
HETATM   19  C   UNL     1       6.768  24.072  54.701  1.00  0.00     0.043 A 
HETATM   20  C   UNL     1       6.927  24.016  53.315  1.00  0.00    -0.005 A 
HETATM   21  C   UNL     1       7.338  23.130  55.567  1.00  0.00     0.033 A 
HETATM   22  C   UNL     1       6.221  25.122  52.768  1.00  0.00     0.040 A 
HETATM   23  C   UNL     1       7.698  22.979  52.761  1.00  0.00     0.056 A 
HETATM   24  C   UNL     1       8.272  22.042  53.617  1.00  0.00     0.117 A 
HETATM   25  C   UNL     1       8.099  22.107  54.994  1.00  0.00     0.044 A 
HETATM   26  F   UNL     1       9.014  21.054  53.098  1.00  0.00    -0.206 F 
ENDBRANCH  15  16
ENDBRANCH  12  15
ENDBRANCH  10  11
ENDBRANCH   3  10
BRANCH   1  27
HETATM   27  C   UNL     1       7.153  31.225  58.952  1.00  0.00     0.277 C 
BRANCH  27  28
HETATM   28  C   UNL     1       7.521  31.597  60.364  1.00  0.00     0.001 A 
HETATM   29  C   UNL     1       6.705  32.521  61.052  1.00  0.00     0.076 A 
HETATM   30  C   UNL     1       7.028  32.940  62.346  1.00  0.00     0.037 A 
HETATM   31  C   UNL     1       8.121  32.385  63.005  1.00  0.00     0.003 A 
HETATM   32  C   UNL     1       8.875  31.399  62.381  1.00  0.00     0.001 A 
HETATM   33  C   UNL     1       8.569  30.997  61.077  1.00  0.00     0.012 A 
BRANCH  29  34
HETATM   34  O   UNL     1       5.602  32.984  60.378  1.00  0.00    -0.351 OA
BRANCH  34  35
HETATM   35  C   UNL     1       4.589  33.579  61.202  1.00  0.00     0.171 C 
HETATM   36  C   UNL     1       4.414  35.020  60.757  1.00  0.00     0.034 C 
ENDBRANCH  34  35
ENDBRANCH  29  34
ENDBRANCH  27  28
ENDBRANCH   1  27
TORSDOF 8
ENDMDL
MODEL 9
REMARK VINA RESULT:      -8.8      1.362      2.266
REMARK  8 active torsions:
REMARK  status: ('A' for Active; 'I' for Inactive)
REMARK    1  A    between atoms: C_2  and  O_3 
REMARK    2  A    between atoms: O_3  and  C_4 
REMARK    3  A    between atoms: C_5  and  C_6 
REMARK    4  A    between atoms: C_6  and  N_7 
REMARK    5  A    between atoms: C_9  and  C_10 
REMARK    6  A    between atoms: C_10  and  C_11 
REMARK       I    between atoms: C_11  and  N_12 
REMARK    7  A    between atoms: N_12  and  C_13 
REMARK    8  A    between atoms: C_13  and  C_14 
ROOT
HETATM    1  N   UNL     1       6.433  27.314  54.174  1.00  0.00    -0.052 N 
HETATM    2  H   UNL     1       5.790  26.515  54.268  1.00  0.00     0.281 HD
HETATM    3  C   UNL     1       6.077  28.082  55.464  1.00  0.00     0.288 C 
HETATM    4  C   UNL     1       4.572  28.422  55.518  1.00  0.00     0.249 C 
HETATM    5  O   UNL     1       4.025  28.805  56.547  1.00  0.00    -0.271 OA
HETATM    6  N   UNL     1       3.838  28.199  54.381  1.00  0.00    -0.358 N 
HETATM    7  C   UNL     1       4.382  28.166  53.027  1.00  0.00     0.150 C 
HETATM    8  C   UNL     1       5.901  27.936  52.909  1.00  0.00     0.256 C 
HETATM    9  H   UNL     1       2.864  28.475  54.483  1.00  0.00     0.162 HD
ENDROOT
BRANCH   3  10
HETATM   10  C   UNL     1       6.931  29.292  55.848  1.00  0.00     0.145 C 
BRANCH  10  11
HETATM   11  C   UNL     1       7.942  29.028  56.937  1.00  0.00     0.220 C 
HETATM   12  N   UNL     1       8.621  30.141  57.358  1.00  0.00    -0.355 N 
HETATM   13  H   UNL     1       8.556  31.012  56.844  1.00  0.00     0.162 HD
HETATM   14  O   UNL     1       8.119  27.913  57.417  1.00  0.00    -0.274 OA
BRANCH  12  15
HETATM   15  C   UNL     1       9.550  30.108  58.465  1.00  0.00     0.179 C 
BRANCH  15  16
HETATM   16  C   UNL     1       8.925  30.777  59.627  1.00  0.00     0.028 A 
HETATM   17  N   UNL     1       7.778  31.526  59.511  1.00  0.00    -0.357 N 
HETATM   18  H   UNL     1       7.257  31.662  58.653  1.00  0.00     0.166 HD
HETATM   19  C   UNL     1       7.446  32.091  60.721  1.00  0.00     0.043 A 
HETATM   20  C   UNL     1       8.416  31.689  61.640  1.00  0.00    -0.005 A 
HETATM   21  C   UNL     1       6.379  32.931  61.064  1.00  0.00     0.033 A 
HETATM   22  C   UNL     1       9.333  30.855  60.944  1.00  0.00     0.040 A 
HETATM   23  C   UNL     1       8.328  32.150  62.966  1.00  0.00     0.056 A 
HETATM   24  C   UNL     1       7.272  32.990  63.313  1.00  0.00     0.117 A 
HETATM   25  C   UNL     1       6.310  33.376  62.387  1.00  0.00     0.044 A 
HETATM   26  F   UNL     1       7.184  33.440  64.572  1.00  0.00    -0.206 F 
ENDBRANCH  15  16
ENDBRANCH  12  15
ENDBRANCH  10  11
ENDBRANCH   3  10
BRANCH   1  27
HETATM   27  C   UNL     1       7.759  26.598  54.087  1.00  0.00     0.277 C 
BRANCH  27  28
HETATM   28  C   UNL     1       7.824  25.104  53.908  1.00  0.00     0.001 A 
HETATM   29  C   UNL     1       8.078  24.299  55.040  1.00  0.00     0.076 A 
HETATM   30  C   UNL     1       8.199  22.911  54.923  1.00  0.00     0.037 A 
HETATM   31  C   UNL     1       7.987  22.296  53.692  1.00  0.00     0.003 A 
HETATM   32  C   UNL     1       7.635  23.063  52.588  1.00  0.00     0.001 A 
HETATM   33  C   UNL     1       7.539  24.454  52.698  1.00  0.00     0.012 A 
BRANCH  29  34
HETATM   34  O   UNL     1       8.210  24.955  56.239  1.00  0.00    -0.351 OA
BRANCH  34  35
HETATM   35  C   UNL     1       7.306  24.530  57.270  1.00  0.00     0.171 C 
HETATM   36  C   UNL     1       5.935  25.096  56.948  1.00  0.00     0.034 C 
ENDBRANCH  34  35
ENDBRANCH  29  34
ENDBRANCH  27  28
ENDBRANCH   1  27
TORSDOF 8
ENDMDL
MODEL 10
REMARK VINA RESULT:      -8.6      5.443      8.532
REMARK  8 active torsions:
REMARK  status: ('A' for Active; 'I' for Inactive)
REMARK    1  A    between atoms: C_2  and  O_3 
REMARK    2  A    between atoms: O_3  and  C_4 
REMARK    3  A    between atoms: C_5  and  C_6 
REMARK    4  A    between atoms: C_6  and  N_7 
REMARK    5  A    between atoms: C_9  and  C_10 
REMARK    6  A    between atoms: C_10  and  C_11 
REMARK       I    between atoms: C_11  and  N_12 
REMARK    7  A    between atoms: N_12  and  C_13 
REMARK    8  A    between atoms: C_13  and  C_14 
ROOT
HETATM    1  N   UNL     1       7.200  25.361  54.516  1.00  0.00    -0.052 N 
HETATM    2  H   UNL     1       7.716  25.159  55.384  1.00  0.00     0.281 HD
HETATM    3  C   UNL     1       7.330  26.898  54.492  1.00  0.00     0.288 C 
HETATM    4  C   UNL     1       6.763  27.530  55.782  1.00  0.00     0.249 C 
HETATM    5  O   UNL     1       6.980  28.697  56.089  1.00  0.00    -0.271 OA
HETATM    6  N   UNL     1       6.067  26.705  56.629  1.00  0.00    -0.358 N 
HETATM    7  C   UNL     1       5.385  25.478  56.230  1.00  0.00     0.150 C 
HETATM    8  C   UNL     1       5.833  24.854  54.894  1.00  0.00     0.256 C 
HETATM    9  H   UNL     1       5.698  27.197  57.440  1.00  0.00     0.162 HD
ENDROOT
BRANCH   3  10
HETATM   10  C   UNL     1       6.846  27.649  53.251  1.00  0.00     0.145 C 
BRANCH  10  11
HETATM   11  C   UNL     1       5.373  27.979  53.249  1.00  0.00     0.220 C 
HETATM   12  N   UNL     1       5.093  29.310  53.406  1.00  0.00    -0.355 N 
HETATM   13  H   UNL     1       5.820  29.964  53.675  1.00  0.00     0.162 HD
HETATM   14  O   UNL     1       4.506  27.125  53.094  1.00  0.00    -0.274 OA
BRANCH  12  15
HETATM   15  C   UNL     1       3.749  29.834  53.322  1.00  0.00     0.179 C 
BRANCH  15  16
HETATM   16  C   UNL     1       3.316  29.805  51.908  1.00  0.00     0.028 A 
HETATM   17  N   UNL     1       2.404  28.887  51.441  1.00  0.00    -0.357 N 
HETATM   18  H   UNL     1       1.940  28.188  52.008  1.00  0.00     0.166 HD
HETATM   19  C   UNL     1       2.227  29.031  50.084  1.00  0.00     0.043 A 
HETATM   20  C   UNL     1       3.056  30.076  49.671  1.00  0.00    -0.005 A 
HETATM   21  C   UNL     1       1.415  28.313  49.196  1.00  0.00     0.033 A 
HETATM   22  C   UNL     1       3.725  30.561  50.827  1.00  0.00     0.040 A 
HETATM   23  C   UNL     1       3.086  30.421  48.308  1.00  0.00     0.056 A 
HETATM   24  C   UNL     1       2.284  29.707  47.420  1.00  0.00     0.117 A 
HETATM   25  C   UNL     1       1.460  28.674  47.847  1.00  0.00     0.044 A 
HETATM   26  F   UNL     1       2.312  30.025  46.118  1.00  0.00    -0.206 F 
ENDBRANCH  15  16
ENDBRANCH  12  15
ENDBRANCH  10  11
ENDBRANCH   3  10
BRANCH   1  27
HETATM   27  C   UNL     1       7.991  24.541  53.524  1.00  0.00     0.277 C 
BRANCH  27  28
HETATM   28  C   UNL     1       8.207  23.065  53.735  1.00  0.00     0.001 A 
HETATM   29  C   UNL     1       8.826  22.637  54.930  1.00  0.00     0.076 A 
HETATM   30  C   UNL     1       9.097  21.285  55.154  1.00  0.00     0.037 A 
HETATM   31  C   UNL     1       8.682  20.329  54.231  1.00  0.00     0.003 A 
HETATM   32  C   UNL     1       7.981  20.723  53.098  1.00  0.00     0.001 A 
HETATM   33  C   UNL     1       7.731  22.078  52.859  1.00  0.00     0.012 A 
BRANCH  29  34
HETATM   34  O   UNL     1       9.152  23.618  55.834  1.00  0.00    -0.351 OA
BRANCH  34  35
HETATM   35  C   UNL     1       8.543  23.482  57.126  1.00  0.00     0.171 C 
HETATM   36  C   UNL     1       8.742  24.787  57.875  1.00  0.00     0.034 C 
ENDBRANCH  34  35
ENDBRANCH  29  34
ENDBRANCH  27  28
ENDBRANCH   1  27
TORSDOF 8
ENDMDL
