MODEL 1
REMARK VINA RESULT:     -10.9      0.000      0.000
REMARK  9 active torsions:
REMARK  status: ('A' for Active; 'I' for Inactive)
REMARK    1  A    between atoms: C_4  and  C_5 
REMARK    2  A    between atoms: C_5  and  N_6 
REMARK    3  A    between atoms: C_12  and  N_13 
REMARK       I    between atoms: N_13  and  C_14 
REMARK    4  A    between atoms: N_13  and  C_27 
REMARK    5  A    between atoms: C_14  and  C_15 
REMARK    6  A    between atoms: C_15  and  C_16 
REMARK    7  A    between atoms: C_27  and  C_28 
REMARK    8  A    between atoms: C_28  and  C_29 
REMARK    9  A    between atoms: C_35  and  N_36 
ROOT
HETATM    1  N   UNL     1       6.883  26.086  53.286  1.00  0.00    -0.310 N 
HETATM    2  C   UNL     1       5.555  26.178  52.822  1.00  0.00     0.228 C 
HETATM    3  O   UNL     1       4.676  26.800  53.436  1.00  0.00    -0.273 OA
ENDROOT
BRANCH   1   4
HETATM    4  C   UNL     1       7.141  26.289  54.682  1.00  0.00     0.144 C 
HETATM    5  C   UNL     1       6.953  25.106  55.600  1.00  0.00     0.279 C 
HETATM    6  N   UNL     1       7.598  25.163  56.788  1.00  0.00    -0.273 N 
HETATM    7  O   UNL     1       6.254  24.136  55.313  1.00  0.00    -0.265 OA
HETATM    8  C   UNL     1       7.605  26.331  57.475  1.00  0.00     0.331 C 
HETATM    9  H   UNL     1       7.441  24.365  57.387  1.00  0.00     0.173 HD
HETATM   10  N   UNL     1       7.576  27.485  56.705  1.00  0.00    -0.284 N 
HETATM   11  O   UNL     1       7.590  26.299  58.703  1.00  0.00    -0.246 OA
HETATM   12  C   UNL     1       7.492  27.453  55.304  1.00  0.00     0.117 C 
BRANCH  10  13
HETATM   13  C   UNL     1       7.465  28.744  57.447  1.00  0.00     0.173 C 
BRANCH  13  14
HETATM   14  C   UNL     1       8.731  29.553  57.628  1.00  0.00    -0.040 A 
HETATM   15  C   UNL     1       9.972  29.184  57.093  1.00  0.00     0.009 A 
HETATM   16  C   UNL     1      11.105  29.971  57.322  1.00  0.00     0.001 A 
HETATM   17  C   UNL     1      11.014  31.132  58.086  1.00  0.00     0.000 A 
HETATM   18  C   UNL     1       9.790  31.511  58.628  1.00  0.00     0.001 A 
HETATM   19  C   UNL     1       8.657  30.727  58.400  1.00  0.00     0.009 A 
ENDBRANCH  13  14
ENDBRANCH  10  13
BRANCH  12  20
HETATM   20  N   UNL     1       7.801  28.596  54.576  1.00  0.00    -0.286 NA
HETATM   21  H   UNL     1       7.080  29.314  54.716  1.00  0.00     0.125 HD
HETATM   22  H   UNL     1       8.712  28.991  54.773  1.00  0.00     0.125 HD
ENDBRANCH  12  20
ENDBRANCH   1   4
BRANCH   1  23
HETATM   23  C   UNL     1       7.978  25.405  52.536  1.00  0.00     0.137 C 
BRANCH  23  24
HETATM   24  C   UNL     1       7.919  23.897  52.190  1.00  0.00     0.054 C 
BRANCH  24  25
HETATM   25  C   UNL     1       8.302  22.805  53.158  1.00  0.00    -0.082 C 
HETATM   26  C   UNL     1       7.658  21.466  52.838  1.00  0.00     0.034 C 
HETATM   27  C   UNL     1       8.226  20.287  53.626  1.00  0.00     0.005 C 
HETATM   28  C   UNL     1       8.438  20.661  55.086  1.00  0.00     0.004 C 
HETATM   29  C   UNL     1       9.393  21.849  55.209  1.00  0.00     0.027 C 
HETATM   30  C   UNL     1       9.099  22.953  54.230  1.00  0.00    -0.024 C 
ENDBRANCH  24  25
ENDBRANCH  23  24
ENDBRANCH   1  23
BRANCH   2  31
HETATM   31  C   UNL     1       5.160  25.458  51.540  1.00  0.00     0.144 C 
BRANCH  31  32
HETATM   32  C   UNL     1       4.824  26.403  50.427  1.00  0.00    -0.021 A 
HETATM   33  C   UNL     1       4.078  26.081  49.246  1.00  0.00    -0.001 A 
HETATM   34  C   UNL     1       4.083  27.212  48.428  1.00  0.00     0.042 A 
HETATM   35  C   UNL     1       3.417  24.924  48.787  1.00  0.00     0.014 A 
HETATM   36  C   UNL     1       3.472  27.236  47.169  1.00  0.00     0.030 A 
HETATM   37  N   UNL     1       4.773  28.193  49.101  1.00  0.00    -0.365 N 
HETATM   38  C   UNL     1       2.828  26.072  46.737  1.00  0.00     0.002 A 
HETATM   39  C   UNL     1       2.795  24.932  47.535  1.00  0.00     0.001 A 
HETATM   40  H   UNL     1       4.930  29.126  48.745  1.00  0.00     0.165 HD
HETATM   41  C   UNL     1       5.230  27.717  50.300  1.00  0.00     0.097 A 
ENDBRANCH  31  32
ENDBRANCH   2  31
TORSDOF 9
ENDMDL
MODEL 2
REMARK VINA RESULT:     -10.8      2.665      6.092
REMARK  9 active torsions:
REMARK  status: ('A' for Active; 'I' for Inactive)
REMARK    1  A    between atoms: C_4  and  C_5 
REMARK    2  A    between atoms: C_5  and  N_6 
REMARK    3  A    between atoms: C_12  and  N_13 
REMARK       I    between atoms: N_13  and  C_14 
REMARK    4  A    between atoms: N_13  and  C_27 
REMARK    5  A    between atoms: C_14  and  C_15 
REMARK    6  A    between atoms: C_15  and  C_16 
REMARK    7  A    between atoms: C_27  and  C_28 
REMARK    8  A    between atoms: C_28  and  C_29 
REMARK    9  A    between atoms: C_35  and  N_36 
ROOT
HETATM    1  N   UNL     1       7.479  27.347  56.400  1.00  0.00    -0.310 N 
HETATM    2  C   UNL     1       7.910  26.238  57.156  1.00  0.00     0.228 C 
HETATM    3  O   UNL     1       7.401  25.936  58.245  1.00  0.00    -0.273 OA
ENDROOT
BRANCH   1   4
HETATM    4  C   UNL     1       6.794  28.414  57.072  1.00  0.00     0.144 C 
HETATM    5  C   UNL     1       5.298  28.500  56.889  1.00  0.00     0.279 C 
HETATM    6  N   UNL     1       4.619  29.192  57.833  1.00  0.00    -0.273 N 
HETATM    7  O   UNL     1       4.705  27.987  55.942  1.00  0.00    -0.265 OA
HETATM    8  C   UNL     1       5.134  30.360  58.287  1.00  0.00     0.331 C 
HETATM    9  H   UNL     1       3.623  29.246  57.676  1.00  0.00     0.173 HD
HETATM   10  N   UNL     1       6.519  30.445  58.301  1.00  0.00    -0.284 N 
HETATM   11  O   UNL     1       4.367  31.266  58.605  1.00  0.00    -0.246 OA
HETATM   12  C   UNL     1       7.341  29.410  57.829  1.00  0.00     0.117 C 
BRANCH  10  13
HETATM   13  C   UNL     1       7.075  31.747  58.680  1.00  0.00     0.173 C 
BRANCH  13  14
HETATM   14  C   UNL     1       7.437  31.947  60.136  1.00  0.00    -0.040 A 
HETATM   15  C   UNL     1       6.507  32.280  61.129  1.00  0.00     0.009 A 
HETATM   16  C   UNL     1       6.919  32.471  62.451  1.00  0.00     0.001 A 
HETATM   17  C   UNL     1       8.261  32.334  62.798  1.00  0.00     0.000 A 
HETATM   18  C   UNL     1       9.199  32.007  61.823  1.00  0.00     0.001 A 
HETATM   19  C   UNL     1       8.789  31.815  60.502  1.00  0.00     0.009 A 
ENDBRANCH  13  14
ENDBRANCH  10  13
BRANCH  12  20
HETATM   20  N   UNL     1       8.689  29.400  58.169  1.00  0.00    -0.286 NA
HETATM   21  H   UNL     1       9.243  29.871  57.443  1.00  0.00     0.125 HD
HETATM   22  H   UNL     1       8.902  29.804  59.072  1.00  0.00     0.125 HD
ENDBRANCH  12  20
ENDBRANCH   1   4
BRANCH   1  23
HETATM   23  C   UNL     1       8.022  27.696  55.056  1.00  0.00     0.137 C 
BRANCH  23  24
HETATM   24  C   UNL     1       7.097  28.044  53.864  1.00  0.00     0.054 C 
BRANCH  24  25
HETATM   25  C   UNL     1       6.263  27.022  53.132  1.00  0.00    -0.082 C 
HETATM   26  C   UNL     1       5.850  25.848  54.004  1.00  0.00     0.034 C 
HETATM   27  C   UNL     1       4.793  24.938  53.381  1.00  0.00     0.005 C 
HETATM   28  C   UNL     1       5.096  24.680  51.913  1.00  0.00     0.004 C 
HETATM   29  C   UNL     1       5.147  25.993  51.130  1.00  0.00     0.027 C 
HETATM   30  C   UNL     1       5.919  27.076  51.833  1.00  0.00    -0.024 C 
ENDBRANCH  24  25
ENDBRANCH  23  24
ENDBRANCH   1  23
BRANCH   2  31
HETATM   31  C   UNL     1       9.068  25.391  56.646  1.00  0.00     0.144 C 
BRANCH  31  32
HETATM   32  C   UNL     1       8.686  23.958  56.434  1.00  0.00    -0.021 A 
HETATM   33  C   UNL     1       8.420  23.336  55.170  1.00  0.00    -0.001 A 
HETATM   34  C   UNL     1       8.003  22.030  55.427  1.00  0.00     0.042 A 
HETATM   35  C   UNL     1       8.476  23.772  53.831  1.00  0.00     0.014 A 
HETATM   36  C   UNL     1       7.625  21.144  54.411  1.00  0.00     0.030 A 
HETATM   37  N   UNL     1       8.048  21.853  56.790  1.00  0.00    -0.365 N 
HETATM   38  C   UNL     1       7.684  21.605  53.092  1.00  0.00     0.002 A 
HETATM   39  C   UNL     1       8.109  22.898  52.802  1.00  0.00     0.001 A 
HETATM   40  H   UNL     1       7.801  20.994  57.262  1.00  0.00     0.165 HD
HETATM   41  C   UNL     1       8.450  23.007  57.407  1.00  0.00     0.097 A 
ENDBRANCH  31  32
ENDBRANCH   2  31
TORSDOF 9
ENDMDL
MODEL 3
REMARK VINA RESULT:     -10.7      2.190      7.752
REMARK  9 active torsions:
REMARK  status: ('A' for Active; 'I' for Inactive)
REMARK    1  A    between atoms: C_4  and  C_5 
REMARK    2  A    between atoms: C_5  and  N_6 
REMARK    3  A    between atoms: C_12  and  N_13 
REMARK       I    between atoms: N_13  and  C_14 
REMARK    4  A    between atoms: N_13  and  C_27 
REMARK    5  A    between atoms: C_14  and  C_15 
REMARK    6  A    between atoms: C_15  and  C_16 
REMARK    7  A    between atoms: C_27  and  C_28 
REMARK    8  A    between atoms: C_28  and  C_29 
REMARK    9  A    between atoms: C_35  and  N_36 
ROOT
HETATM    1  N   UNL     1       5.898  26.484  54.261  1.00  0.00    -0.310 N 
HETATM    2  C   UNL     1       6.554  27.560  54.892  1.00  0.00     0.228 C 
HETATM    3  O   UNL     1       6.465  28.728  54.484  1.00  0.00    -0.273 OA
ENDROOT
BRANCH   1   4
HETATM    4  C   UNL     1       5.514  26.623  52.886  1.00  0.00     0.144 C 
HETATM    5  C   UNL     1       6.407  25.983  51.851  1.00  0.00     0.279 C 
HETATM    6  N   UNL     1       5.842  25.731  50.647  1.00  0.00    -0.273 N 
HETATM    7  O   UNL     1       7.586  25.703  52.058  1.00  0.00    -0.265 OA
HETATM    8  C   UNL     1       5.028  26.666  50.097  1.00  0.00     0.331 C 
HETATM    9  H   UNL     1       6.467  25.318  49.970  1.00  0.00     0.173 HD
HETATM   10  N   UNL     1       4.311  27.445  50.992  1.00  0.00    -0.284 N 
HETATM   11  O   UNL     1       5.011  26.794  48.875  1.00  0.00    -0.246 OA
HETATM   12  C   UNL     1       4.451  27.316  52.383  1.00  0.00     0.117 C 
BRANCH  10  13
HETATM   13  C   UNL     1       3.522  28.531  50.403  1.00  0.00     0.173 C 
BRANCH  13  14
HETATM   14  C   UNL     1       4.278  29.745  49.907  1.00  0.00    -0.040 A 
HETATM   15  C   UNL     1       5.147  30.498  50.706  1.00  0.00     0.009 A 
HETATM   16  C   UNL     1       5.796  31.622  50.184  1.00  0.00     0.001 A 
HETATM   17  C   UNL     1       5.583  32.007  48.863  1.00  0.00     0.000 A 
HETATM   18  C   UNL     1       4.720  31.272  48.057  1.00  0.00     0.001 A 
HETATM   19  C   UNL     1       4.073  30.149  48.576  1.00  0.00     0.009 A 
ENDBRANCH  13  14
ENDBRANCH  10  13
BRANCH  12  20
HETATM   20  N   UNL     1       3.487  27.867  53.220  1.00  0.00    -0.286 NA
HETATM   21  H   UNL     1       2.545  27.637  52.878  1.00  0.00     0.125 HD
HETATM   22  H   UNL     1       3.568  27.600  54.192  1.00  0.00     0.125 HD
ENDBRANCH  12  20
ENDBRANCH   1   4
BRANCH   1  23
HETATM   23  C   UNL     1       5.929  25.082  54.768  1.00  0.00     0.137 C 
BRANCH  23  24
HETATM   24  C   UNL     1       7.259  24.353  55.079  1.00  0.00     0.054 C 
BRANCH  24  25
HETATM   25  C   UNL     1       7.543  22.929  54.669  1.00  0.00    -0.082 C 
HETATM   26  C   UNL     1       7.799  22.004  55.847  1.00  0.00     0.034 C 
HETATM   27  C   UNL     1       7.823  20.519  55.491  1.00  0.00     0.005 C 
HETATM   28  C   UNL     1       8.596  20.282  54.202  1.00  0.00     0.004 C 
HETATM   29  C   UNL     1       7.971  21.062  53.044  1.00  0.00     0.027 C 
HETATM   30  C   UNL     1       7.611  22.477  53.405  1.00  0.00    -0.024 C 
ENDBRANCH  24  25
ENDBRANCH  23  24
ENDBRANCH   1  23
BRANCH   2  31
HETATM   31  C   UNL     1       7.441  27.290  56.100  1.00  0.00     0.144 C 
BRANCH  31  32
HETATM   32  C   UNL     1       7.568  28.480  57.002  1.00  0.00    -0.021 A 
HETATM   33  C   UNL     1       8.758  29.250  57.216  1.00  0.00    -0.001 A 
HETATM   34  C   UNL     1       8.471  30.196  58.200  1.00  0.00     0.042 A 
HETATM   35  C   UNL     1      10.060  29.215  56.678  1.00  0.00     0.014 A 
HETATM   36  C   UNL     1       9.427  31.099  58.682  1.00  0.00     0.030 A 
HETATM   37  N   UNL     1       7.149  30.033  58.544  1.00  0.00    -0.365 N 
HETATM   38  C   UNL     1      10.712  31.037  58.135  1.00  0.00     0.002 A 
HETATM   39  C   UNL     1      11.026  30.113  57.143  1.00  0.00     0.001 A 
HETATM   40  H   UNL     1       6.667  30.591  59.235  1.00  0.00     0.165 HD
HETATM   41  C   UNL     1       6.598  28.999  57.836  1.00  0.00     0.097 A 
ENDBRANCH  31  32
ENDBRANCH   2  31
TORSDOF 9
ENDMDL
MODEL 4
REMARK VINA RESULT:     -10.6      3.237      6.964
REMARK  9 active torsions:
REMARK  status: ('A' for Active; 'I' for Inactive)
REMARK    1  A    between atoms: C_4  and  C_5 
REMARK    2  A    between atoms: C_5  and  N_6 
REMARK    3  A    between atoms: C_12  and  N_13 
REMARK       I    between atoms: N_13  and  C_14 
REMARK    4  A    between atoms: N_13  and  C_27 
REMARK    5  A    between atoms: C_14  and  C_15 
REMARK    6  A    between atoms: C_15  and  C_16 
REMARK    7  A    between atoms: C_27  and  C_28 
REMARK    8  A    between atoms: C_28  and  C_29 
REMARK    9  A    between atoms: C_35  and  N_36 
ROOT
HETATM    1  N   UNL     1       6.301  27.033  54.800  1.00  0.00    -0.310 N 
HETATM    2  C   UNL     1       5.855  25.699  54.706  1.00  0.00     0.228 C 
HETATM    3  O   UNL     1       4.814  25.386  54.110  1.00  0.00    -0.273 OA
ENDROOT
BRANCH   1   4
HETATM    4  C   UNL     1       5.348  28.092  54.637  1.00  0.00     0.144 C 
HETATM    5  C   UNL     1       5.390  28.870  53.345  1.00  0.00     0.279 C 
HETATM    6  N   UNL     1       4.261  29.537  53.010  1.00  0.00    -0.273 N 
HETATM    7  O   UNL     1       6.383  28.920  52.621  1.00  0.00    -0.265 OA
HETATM    8  C   UNL     1       3.586  30.208  53.975  1.00  0.00     0.331 C 
HETATM    9  H   UNL     1       4.324  30.060  52.149  1.00  0.00     0.173 HD
HETATM   10  N   UNL     1       3.658  29.667  55.250  1.00  0.00    -0.284 N 
HETATM   11  O   UNL     1       3.006  31.250  53.680  1.00  0.00    -0.246 OA
HETATM   12  C   UNL     1       4.422  28.526  55.543  1.00  0.00     0.117 C 
BRANCH  10  13
HETATM   13  C   UNL     1       3.027  30.454  56.314  1.00  0.00     0.173 C 
BRANCH  13  14
HETATM   14  C   UNL     1       3.944  31.164  57.286  1.00  0.00    -0.040 A 
HETATM   15  C   UNL     1       5.179  31.717  56.925  1.00  0.00     0.009 A 
HETATM   16  C   UNL     1       5.985  32.340  57.883  1.00  0.00     0.001 A 
HETATM   17  C   UNL     1       5.569  32.416  59.210  1.00  0.00     0.000 A 
HETATM   18  C   UNL     1       4.346  31.868  59.587  1.00  0.00     0.001 A 
HETATM   19  C   UNL     1       3.541  31.247  58.631  1.00  0.00     0.009 A 
ENDBRANCH  13  14
ENDBRANCH  10  13
BRANCH  12  20
HETATM   20  N   UNL     1       4.197  27.840  56.730  1.00  0.00    -0.286 NA
HETATM   21  H   UNL     1       3.197  27.627  56.836  1.00  0.00     0.125 HD
HETATM   22  H   UNL     1       4.736  26.991  56.838  1.00  0.00     0.125 HD
ENDBRANCH  12  20
ENDBRANCH   1   4
BRANCH   1  23
HETATM   23  C   UNL     1       7.582  27.435  55.449  1.00  0.00     0.137 C 
BRANCH  23  24
HETATM   24  C   UNL     1       7.649  27.866  56.934  1.00  0.00     0.054 C 
BRANCH  24  25
HETATM   25  C   UNL     1       8.598  28.918  57.454  1.00  0.00    -0.082 C 
HETATM   26  C   UNL     1       8.075  29.646  58.681  1.00  0.00     0.034 C 
HETATM   27  C   UNL     1       9.110  30.519  59.387  1.00  0.00     0.005 C 
HETATM   28  C   UNL     1       9.940  31.299  58.380  1.00  0.00     0.004 C 
HETATM   29  C   UNL     1      10.660  30.352  57.420  1.00  0.00     0.027 C 
HETATM   30  C   UNL     1       9.782  29.243  56.907  1.00  0.00    -0.024 C 
ENDBRANCH  24  25
ENDBRANCH  23  24
ENDBRANCH   1  23
BRANCH   2  31
HETATM   31  C   UNL     1       6.650  24.595  55.389  1.00  0.00     0.144 C 
BRANCH  31  32
HETATM   32  C   UNL     1       7.225  23.611  54.417  1.00  0.00    -0.021 A 
HETATM   33  C   UNL     1       7.693  22.293  54.731  1.00  0.00    -0.001 A 
HETATM   34  C   UNL     1       8.239  21.755  53.566  1.00  0.00     0.042 A 
HETATM   35  C   UNL     1       7.722  21.516  55.907  1.00  0.00     0.014 A 
HETATM   36  C   UNL     1       8.826  20.484  53.522  1.00  0.00     0.030 A 
HETATM   37  N   UNL     1       8.077  22.693  52.573  1.00  0.00    -0.365 N 
HETATM   38  C   UNL     1       8.846  19.738  54.705  1.00  0.00     0.002 A 
HETATM   39  C   UNL     1       8.297  20.241  55.881  1.00  0.00     0.001 A 
HETATM   40  H   UNL     1       8.378  22.569  51.616  1.00  0.00     0.165 HD
HETATM   41  C   UNL     1       7.475  23.816  53.074  1.00  0.00     0.097 A 
ENDBRANCH  31  32
ENDBRANCH   2  31
TORSDOF 9
ENDMDL
MODEL 5
REMARK VINA RESULT:     -10.6      1.700      2.220
REMARK  9 active torsions:
REMARK  status: ('A' for Active; 'I' for Inactive)
REMARK    1  A    between atoms: C_4  and  C_5 
REMARK    2  A    between atoms: C_5  and  N_6 
REMARK    3  A    between atoms: C_12  and  N_13 
REMARK       I    between atoms: N_13  and  C_14 
REMARK    4  A    between atoms: N_13  and  C_27 
REMARK    5  A    between atoms: C_14  and  C_15 
REMARK    6  A    between atoms: C_15  and  C_16 
REMARK    7  A    between atoms: C_27  and  C_28 
REMARK    8  A    between atoms: C_28  and  C_29 
REMARK    9  A    between atoms: C_35  and  N_36 
ROOT
HETATM    1  N   UNL     1       6.059  26.472  51.894  1.00  0.00    -0.310 N 
HETATM    2  C   UNL     1       5.222  27.190  51.015  1.00  0.00     0.228 C 
HETATM    3  O   UNL     1       4.658  28.244  51.345  1.00  0.00    -0.273 OA
ENDROOT
BRANCH   1   4
HETATM    4  C   UNL     1       5.902  26.665  53.307  1.00  0.00     0.144 C 
HETATM    5  C   UNL     1       5.114  25.624  54.065  1.00  0.00     0.279 C 
HETATM    6  N   UNL     1       5.335  25.562  55.399  1.00  0.00    -0.273 N 
HETATM    7  O   UNL     1       4.306  24.869  53.528  1.00  0.00    -0.265 OA
HETATM    8  C   UNL     1       5.441  26.716  56.100  1.00  0.00     0.331 C 
HETATM    9  H   UNL     1       4.782  24.867  55.881  1.00  0.00     0.173 HD
HETATM   10  N   UNL     1       5.977  27.795  55.412  1.00  0.00    -0.284 N 
HETATM   11  O   UNL     1       5.026  26.750  57.256  1.00  0.00    -0.246 OA
HETATM   12  C   UNL     1       6.340  27.718  54.058  1.00  0.00     0.117 C 
BRANCH  10  13
HETATM   13  C   UNL     1       5.984  29.072  56.132  1.00  0.00     0.173 C 
BRANCH  13  14
HETATM   14  C   UNL     1       7.226  29.409  56.928  1.00  0.00    -0.040 A 
HETATM   15  C   UNL     1       8.522  29.057  56.532  1.00  0.00     0.009 A 
HETATM   16  C   UNL     1       9.622  29.383  57.332  1.00  0.00     0.001 A 
HETATM   17  C   UNL     1       9.441  30.061  58.535  1.00  0.00     0.000 A 
HETATM   18  C   UNL     1       8.159  30.415  58.945  1.00  0.00     0.001 A 
HETATM   19  C   UNL     1       7.060  30.091  58.148  1.00  0.00     0.009 A 
ENDBRANCH  13  14
ENDBRANCH  10  13
BRANCH  12  20
HETATM   20  N   UNL     1       7.167  28.696  53.517  1.00  0.00    -0.286 NA
HETATM   21  H   UNL     1       7.543  29.297  54.261  1.00  0.00     0.125 HD
HETATM   22  H   UNL     1       7.927  28.343  52.952  1.00  0.00     0.125 HD
ENDBRANCH  12  20
ENDBRANCH   1   4
BRANCH   1  23
HETATM   23  C   UNL     1       6.806  25.241  51.507  1.00  0.00     0.137 C 
BRANCH  23  24
HETATM   24  C   UNL     1       8.037  24.744  52.305  1.00  0.00     0.054 C 
BRANCH  24  25
HETATM   25  C   UNL     1       8.018  23.519  53.185  1.00  0.00    -0.082 C 
HETATM   26  C   UNL     1       8.281  23.828  54.650  1.00  0.00     0.034 C 
HETATM   27  C   UNL     1       8.006  22.664  55.600  1.00  0.00     0.005 C 
HETATM   28  C   UNL     1       8.537  21.359  55.027  1.00  0.00     0.004 C 
HETATM   29  C   UNL     1       7.892  21.058  53.674  1.00  0.00     0.027 C 
HETATM   30  C   UNL     1       7.828  22.256  52.766  1.00  0.00    -0.024 C 
ENDBRANCH  24  25
ENDBRANCH  23  24
ENDBRANCH   1  23
BRANCH   2  31
HETATM   31  C   UNL     1       4.962  26.644  49.618  1.00  0.00     0.144 C 
BRANCH  31  32
HETATM   32  C   UNL     1       4.463  27.694  48.672  1.00  0.00    -0.021 A 
HETATM   33  C   UNL     1       3.129  27.798  48.158  1.00  0.00    -0.001 A 
HETATM   34  C   UNL     1       3.117  28.845  47.238  1.00  0.00     0.042 A 
HETATM   35  C   UNL     1       1.934  27.082  48.377  1.00  0.00     0.014 A 
HETATM   36  C   UNL     1       1.972  29.203  46.514  1.00  0.00     0.030 A 
HETATM   37  N   UNL     1       4.383  29.381  47.219  1.00  0.00    -0.365 N 
HETATM   38  C   UNL     1       0.803  28.472  46.747  1.00  0.00     0.002 A 
HETATM   39  C   UNL     1       0.780  27.429  47.669  1.00  0.00     0.001 A 
HETATM   40  H   UNL     1       4.664  30.162  46.641  1.00  0.00     0.165 HD
HETATM   41  C   UNL     1       5.204  28.692  48.071  1.00  0.00     0.097 A 
ENDBRANCH  31  32
ENDBRANCH   2  31
TORSDOF 9
ENDMDL
MODEL 6
REMARK VINA RESULT:     -10.4      2.402      6.532
REMARK  9 active torsions:
REMARK  status: ('A' for Active; 'I' for Inactive)
REMARK    1  A    between atoms: C_4  and  C_5 
REMARK    2  A    between atoms: C_5  and  N_6 
REMARK    3  A    between atoms: C_12  and  N_13 
REMARK       I    between atoms: N_13  and  C_14 
REMARK    4  A    between atoms: N_13  and  C_27 
REMARK    5  A    between atoms: C_14  and  C_15 
REMARK    6  A    between atoms: C_15  and  C_16 
REMARK    7  A    between atoms: C_27  and  C_28 
REMARK    8  A    between atoms: C_28  and  C_29 
REMARK    9  A    between atoms: C_35  and  N_36 
ROOT
HETATM    1  N   UNL     1       6.158  27.654  55.386  1.00  0.00    -0.310 N 
HETATM    2  C   UNL     1       6.194  26.310  55.811  1.00  0.00     0.228 C 
HETATM    3  O   UNL     1       5.660  25.930  56.863  1.00  0.00    -0.273 OA
ENDROOT
BRANCH   1   4
HETATM    4  C   UNL     1       5.934  28.680  56.363  1.00  0.00     0.144 C 
HETATM    5  C   UNL     1       4.508  29.123  56.587  1.00  0.00     0.279 C 
HETATM    6  N   UNL     1       4.250  29.734  57.767  1.00  0.00    -0.273 N 
HETATM    7  O   UNL     1       3.615  28.958  55.759  1.00  0.00    -0.265 OA
HETATM    8  C   UNL     1       5.136  30.643  58.242  1.00  0.00     0.331 C 
HETATM    9  H   UNL     1       3.293  30.033  57.882  1.00  0.00     0.173 HD
HETATM   10  N   UNL     1       6.465  30.421  57.911  1.00  0.00    -0.284 N 
HETATM   11  O   UNL     1       4.716  31.606  58.879  1.00  0.00    -0.246 OA
HETATM   12  C   UNL     1       6.870  29.354  57.094  1.00  0.00     0.117 C 
BRANCH  10  13
HETATM   13  C   UNL     1       7.408  31.465  58.325  1.00  0.00     0.173 C 
BRANCH  13  14
HETATM   14  C   UNL     1       7.897  31.427  59.756  1.00  0.00    -0.040 A 
HETATM   15  C   UNL     1       8.776  30.456  60.251  1.00  0.00     0.009 A 
HETATM   16  C   UNL     1       9.167  30.471  61.594  1.00  0.00     0.001 A 
HETATM   17  C   UNL     1       8.686  31.453  62.456  1.00  0.00     0.000 A 
HETATM   18  C   UNL     1       7.808  32.423  61.981  1.00  0.00     0.001 A 
HETATM   19  C   UNL     1       7.418  32.410  60.641  1.00  0.00     0.009 A 
ENDBRANCH  13  14
ENDBRANCH  10  13
BRANCH  12  20
HETATM   20  N   UNL     1       8.209  28.983  57.070  1.00  0.00    -0.286 NA
HETATM   21  H   UNL     1       8.809  29.816  57.021  1.00  0.00     0.125 HD
HETATM   22  H   UNL     1       8.502  28.401  57.843  1.00  0.00     0.125 HD
ENDBRANCH  12  20
ENDBRANCH   1   4
BRANCH   1  23
HETATM   23  C   UNL     1       6.730  28.130  54.094  1.00  0.00     0.137 C 
BRANCH  23  24
HETATM   24  C   UNL     1       5.842  28.723  52.973  1.00  0.00     0.054 C 
BRANCH  24  25
HETATM   25  C   UNL     1       5.518  27.992  51.694  1.00  0.00    -0.082 C 
HETATM   26  C   UNL     1       5.356  28.917  50.498  1.00  0.00     0.034 C 
HETATM   27  C   UNL     1       5.295  28.202  49.150  1.00  0.00     0.005 C 
HETATM   28  C   UNL     1       4.418  26.961  49.232  1.00  0.00     0.004 C 
HETATM   29  C   UNL     1       4.950  25.990  50.287  1.00  0.00     0.027 C 
HETATM   30  C   UNL     1       5.345  26.665  51.572  1.00  0.00    -0.024 C 
ENDBRANCH  24  25
ENDBRANCH  23  24
ENDBRANCH   1  23
BRANCH   2  31
HETATM   31  C   UNL     1       6.946  25.282  54.977  1.00  0.00     0.144 C 
BRANCH  31  32
HETATM   32  C   UNL     1       7.595  24.222  55.814  1.00  0.00    -0.021 A 
HETATM   33  C   UNL     1       7.836  22.866  55.417  1.00  0.00    -0.001 A 
HETATM   34  C   UNL     1       8.361  22.195  56.521  1.00  0.00     0.042 A 
HETATM   35  C   UNL     1       7.635  22.142  54.223  1.00  0.00     0.014 A 
HETATM   36  C   UNL     1       8.681  20.832  56.494  1.00  0.00     0.030 A 
HETATM   37  N   UNL     1       8.470  23.114  57.537  1.00  0.00    -0.365 N 
HETATM   38  C   UNL     1       8.465  20.137  55.300  1.00  0.00     0.002 A 
HETATM   39  C   UNL     1       7.955  20.782  54.177  1.00  0.00     0.001 A 
HETATM   40  H   UNL     1       8.828  22.905  58.459  1.00  0.00     0.165 HD
HETATM   41  C   UNL     1       8.006  24.335  57.128  1.00  0.00     0.097 A 
ENDBRANCH  31  32
ENDBRANCH   2  31
TORSDOF 9
ENDMDL
MODEL 7
REMARK VINA RESULT:     -10.4      3.530      7.144
REMARK  9 active torsions:
REMARK  status: ('A' for Active; 'I' for Inactive)
REMARK    1  A    between atoms: C_4  and  C_5 
REMARK    2  A    between atoms: C_5  and  N_6 
REMARK    3  A    between atoms: C_12  and  N_13 
REMARK       I    between atoms: N_13  and  C_14 
REMARK    4  A    between atoms: N_13  and  C_27 
REMARK    5  A    between atoms: C_14  and  C_15 
REMARK    6  A    between atoms: C_15  and  C_16 
REMARK    7  A    between atoms: C_27  and  C_28 
REMARK    8  A    between atoms: C_28  and  C_29 
REMARK    9  A    between atoms: C_35  and  N_36 
ROOT
HETATM    1  N   UNL     1       5.159  27.111  50.673  1.00  0.00    -0.310 N 
HETATM    2  C   UNL     1       4.629  26.365  49.600  1.00  0.00     0.228 C 
HETATM    3  O   UNL     1       4.018  25.299  49.768  1.00  0.00    -0.273 OA
ENDROOT
BRANCH   1   4
HETATM    4  C   UNL     1       5.429  26.440  51.911  1.00  0.00     0.144 C 
HETATM    5  C   UNL     1       4.511  26.736  53.073  1.00  0.00     0.279 C 
HETATM    6  N   UNL     1       4.483  25.813  54.063  1.00  0.00    -0.273 N 
HETATM    7  O   UNL     1       3.823  27.752  53.146  1.00  0.00    -0.265 OA
HETATM    8  C   UNL     1       5.649  25.259  54.476  1.00  0.00     0.331 C 
HETATM    9  H   UNL     1       3.873  26.045  54.833  1.00  0.00     0.173 HD
HETATM   10  N   UNL     1       6.634  25.132  53.508  1.00  0.00    -0.284 N 
HETATM   11  O   UNL     1       5.777  24.956  55.660  1.00  0.00    -0.246 OA
HETATM   12  C   UNL     1       6.461  25.592  52.193  1.00  0.00     0.117 C 
BRANCH  10  13
HETATM   13  C   UNL     1       7.933  24.643  53.979  1.00  0.00     0.173 C 
BRANCH  13  14
HETATM   14  C   UNL     1       8.081  23.149  54.169  1.00  0.00    -0.040 A 
HETATM   15  C   UNL     1       8.460  22.554  55.379  1.00  0.00     0.009 A 
HETATM   16  C   UNL     1       8.599  21.165  55.474  1.00  0.00     0.001 A 
HETATM   17  C   UNL     1       8.362  20.357  54.364  1.00  0.00     0.000 A 
HETATM   18  C   UNL     1       7.989  20.932  53.154  1.00  0.00     0.001 A 
HETATM   19  C   UNL     1       7.850  22.318  53.057  1.00  0.00     0.009 A 
ENDBRANCH  13  14
ENDBRANCH  10  13
BRANCH  12  20
HETATM   20  N   UNL     1       7.322  25.147  51.196  1.00  0.00    -0.286 NA
HETATM   21  H   UNL     1       6.817  24.551  50.528  1.00  0.00     0.125 HD
HETATM   22  H   UNL     1       7.804  25.881  50.694  1.00  0.00     0.125 HD
ENDBRANCH  12  20
ENDBRANCH   1   4
BRANCH   1  23
HETATM   23  C   UNL     1       5.837  28.429  50.510  1.00  0.00     0.137 C 
BRANCH  23  24
HETATM   24  C   UNL     1       5.222  29.740  51.059  1.00  0.00     0.054 C 
BRANCH  24  25
HETATM   25  C   UNL     1       3.872  30.265  50.640  1.00  0.00    -0.082 C 
HETATM   26  C   UNL     1       3.871  31.758  50.353  1.00  0.00     0.034 C 
HETATM   27  C   UNL     1       2.602  32.270  49.673  1.00  0.00     0.005 C 
HETATM   28  C   UNL     1       1.362  31.651  50.302  1.00  0.00     0.004 C 
HETATM   29  C   UNL     1       1.404  30.127  50.194  1.00  0.00     0.027 C 
HETATM   30  C   UNL     1       2.744  29.540  50.546  1.00  0.00    -0.024 C 
ENDBRANCH  24  25
ENDBRANCH  23  24
ENDBRANCH   1  23
BRANCH   2  31
HETATM   31  C   UNL     1       4.839  26.853  48.173  1.00  0.00     0.144 C 
BRANCH  31  32
HETATM   32  C   UNL     1       3.636  27.555  47.620  1.00  0.00    -0.021 A 
HETATM   33  C   UNL     1       3.592  28.911  47.159  1.00  0.00    -0.001 A 
HETATM   34  C   UNL     1       2.268  29.195  46.825  1.00  0.00     0.042 A 
HETATM   35  C   UNL     1       4.554  29.931  47.015  1.00  0.00     0.014 A 
HETATM   36  C   UNL     1       1.856  30.454  46.368  1.00  0.00     0.030 A 
HETATM   37  N   UNL     1       1.542  28.047  47.040  1.00  0.00    -0.365 N 
HETATM   38  C   UNL     1       2.831  31.448  46.241  1.00  0.00     0.002 A 
HETATM   39  C   UNL     1       4.163  31.192  46.553  1.00  0.00     0.001 A 
HETATM   40  H   UNL     1       0.548  27.961  46.876  1.00  0.00     0.165 HD
HETATM   41  C   UNL     1       2.352  27.056  47.526  1.00  0.00     0.097 A 
ENDBRANCH  31  32
ENDBRANCH   2  31
TORSDOF 9
ENDMDL
MODEL 8
REMARK VINA RESULT:     -10.3      2.289      6.326
REMARK  9 active torsions:
REMARK  status: ('A' for Active; 'I' for Inactive)
REMARK    1  A    between atoms: C_4  and  C_5 
REMARK    2  A    between atoms: C_5  and  N_6 
REMARK    3  A    between atoms: C_12  and  N_13 
REMARK       I    between atoms: N_13  and  C_14 
REMARK    4  A    between atoms: N_13  and  C_27 
REMARK    5  A    between atoms: C_14  and  C_15 
REMARK    6  A    between atoms: C_15  and  C_16 
REMARK    7  A    between atoms: C_27  and  C_28 
REMARK    8  A    between atoms: C_28  and  C_29 
REMARK    9  A    between atoms: C_35  and  N_36 
ROOT
HETATM    1  N   UNL     1       5.545  27.851  53.560  1.00  0.00    -0.310 N 
HETATM    2  C   UNL     1       5.769  27.543  52.202  1.00  0.00     0.228 C 
HETATM    3  O   UNL     1       6.245  26.459  51.835  1.00  0.00    -0.273 OA
ENDROOT
BRANCH   1   4
HETATM    4  C   UNL     1       6.288  27.140  54.559  1.00  0.00     0.144 C 
HETATM    5  C   UNL     1       7.598  27.742  55.007  1.00  0.00     0.279 C 
HETATM    6  N   UNL     1       8.061  27.337  56.213  1.00  0.00    -0.273 N 
HETATM    7  O   UNL     1       8.232  28.551  54.333  1.00  0.00    -0.265 OA
HETATM    8  C   UNL     1       7.977  26.024  56.539  1.00  0.00     0.331 C 
HETATM    9  H   UNL     1       8.946  27.744  56.478  1.00  0.00     0.173 HD
HETATM   10  N   UNL     1       6.901  25.335  56.001  1.00  0.00    -0.284 N 
HETATM   11  O   UNL     1       8.860  25.526  57.234  1.00  0.00    -0.246 OA
HETATM   12  C   UNL     1       5.980  25.938  55.130  1.00  0.00     0.117 C 
BRANCH  10  13
HETATM   13  C   UNL     1       6.874  23.892  56.257  1.00  0.00     0.173 C 
BRANCH  13  14
HETATM   14  C   UNL     1       7.376  22.985  55.155  1.00  0.00    -0.040 A 
HETATM   15  C   UNL     1       7.584  23.406  53.836  1.00  0.00     0.009 A 
HETATM   16  C   UNL     1       8.029  22.505  52.864  1.00  0.00     0.001 A 
HETATM   17  C   UNL     1       8.271  21.174  53.197  1.00  0.00     0.000 A 
HETATM   18  C   UNL     1       8.067  20.737  54.502  1.00  0.00     0.001 A 
HETATM   19  C   UNL     1       7.623  21.636  55.474  1.00  0.00     0.009 A 
ENDBRANCH  13  14
ENDBRANCH  10  13
BRANCH  12  20
HETATM   20  N   UNL     1       4.758  25.319  54.893  1.00  0.00    -0.286 NA
HETATM   21  H   UNL     1       4.069  26.005  54.562  1.00  0.00     0.125 HD
HETATM   22  H   UNL     1       4.795  24.540  54.248  1.00  0.00     0.125 HD
ENDBRANCH  12  20
ENDBRANCH   1   4
BRANCH   1  23
HETATM   23  C   UNL     1       4.910  29.116  54.029  1.00  0.00     0.137 C 
BRANCH  23  24
HETATM   24  C   UNL     1       4.108  29.189  55.351  1.00  0.00     0.054 C 
BRANCH  24  25
HETATM   25  C   UNL     1       4.520  30.037  56.529  1.00  0.00    -0.082 C 
HETATM   26  C   UNL     1       3.342  30.629  57.285  1.00  0.00     0.034 C 
HETATM   27  C   UNL     1       3.705  31.263  58.626  1.00  0.00     0.005 C 
HETATM   28  C   UNL     1       4.980  32.085  58.510  1.00  0.00     0.004 C 
HETATM   29  C   UNL     1       6.146  31.215  58.039  1.00  0.00     0.027 C 
HETATM   30  C   UNL     1       5.785  30.303  56.898  1.00  0.00    -0.024 C 
ENDBRANCH  24  25
ENDBRANCH  23  24
ENDBRANCH   1  23
BRANCH   2  31
HETATM   31  C   UNL     1       5.455  28.586  51.138  1.00  0.00     0.144 C 
BRANCH  31  32
HETATM   32  C   UNL     1       4.103  28.394  50.523  1.00  0.00    -0.021 A 
HETATM   33  C   UNL     1       3.799  27.549  49.406  1.00  0.00    -0.001 A 
HETATM   34  C   UNL     1       2.453  27.740  49.092  1.00  0.00     0.042 A 
HETATM   35  C   UNL     1       4.551  26.654  48.618  1.00  0.00     0.014 A 
HETATM   36  C   UNL     1       1.827  27.091  48.020  1.00  0.00     0.030 A 
HETATM   37  N   UNL     1       1.949  28.637  50.004  1.00  0.00    -0.365 N 
HETATM   38  C   UNL     1       2.599  26.214  47.253  1.00  0.00     0.002 A 
HETATM   39  C   UNL     1       3.941  25.992  47.548  1.00  0.00     0.001 A 
HETATM   40  H   UNL     1       0.991  28.958  50.019  1.00  0.00     0.165 HD
HETATM   41  C   UNL     1       2.933  29.044  50.865  1.00  0.00     0.097 A 
ENDBRANCH  31  32
ENDBRANCH   2  31
TORSDOF 9
ENDMDL
MODEL 9
REMARK VINA RESULT:     -10.3      2.487      6.122
REMARK  9 active torsions:
REMARK  status: ('A' for Active; 'I' for Inactive)
REMARK    1  A    between atoms: C_4  and  C_5 
REMARK    2  A    between atoms: C_5  and  N_6 
REMARK    3  A    between atoms: C_12  and  N_13 
REMARK       I    between atoms: N_13  and  C_14 
REMARK    4  A    between atoms: N_13  and  C_27 
REMARK    5  A    between atoms: C_14  and  C_15 
REMARK    6  A    between atoms: C_15  and  C_16 
REMARK    7  A    between atoms: C_27  and  C_28 
REMARK    8  A    between atoms: C_28  and  C_29 
REMARK    9  A    between atoms: C_35  and  N_36 
ROOT
HETATM    1  N   UNL     1       5.355  27.510  53.720  1.00  0.00    -0.310 N 
HETATM    2  C   UNL     1       4.314  28.377  54.110  1.00  0.00     0.228 C 
HETATM    3  O   UNL     1       4.316  28.975  55.195  1.00  0.00    -0.273 OA
ENDROOT
BRANCH   1   4
HETATM    4  C   UNL     1       6.184  26.929  54.736  1.00  0.00     0.144 C 
HETATM    5  C   UNL     1       7.434  27.682  55.124  1.00  0.00     0.279 C 
HETATM    6  N   UNL     1       7.957  27.388  56.338  1.00  0.00    -0.273 N 
HETATM    7  O   UNL     1       7.972  28.515  54.397  1.00  0.00    -0.265 OA
HETATM    8  C   UNL     1       8.012  26.092  56.731  1.00  0.00     0.331 C 
HETATM    9  H   UNL     1       8.801  27.895  56.563  1.00  0.00     0.173 HD
HETATM   10  N   UNL     1       7.002  25.272  56.252  1.00  0.00    -0.284 N 
HETATM   11  O   UNL     1       8.953  25.722  57.429  1.00  0.00    -0.246 OA
HETATM   12  C   UNL     1       6.009  25.734  55.373  1.00  0.00     0.117 C 
BRANCH  10  13
HETATM   13  C   UNL     1       7.126  23.848  56.580  1.00  0.00     0.173 C 
BRANCH  13  14
HETATM   14  C   UNL     1       7.565  22.919  55.469  1.00  0.00    -0.040 A 
HETATM   15  C   UNL     1       7.911  23.354  54.184  1.00  0.00     0.009 A 
HETATM   16  C   UNL     1       8.286  22.433  53.200  1.00  0.00     0.001 A 
HETATM   17  C   UNL     1       8.319  21.070  53.487  1.00  0.00     0.000 A 
HETATM   18  C   UNL     1       7.973  20.621  54.758  1.00  0.00     0.001 A 
HETATM   19  C   UNL     1       7.599  21.539  55.741  1.00  0.00     0.009 A 
ENDBRANCH  13  14
ENDBRANCH  10  13
BRANCH  12  20
HETATM   20  N   UNL     1       4.853  24.984  55.195  1.00  0.00    -0.286 NA
HETATM   21  H   UNL     1       4.688  24.815  54.194  1.00  0.00     0.125 HD
HETATM   22  H   UNL     1       4.837  24.104  55.692  1.00  0.00     0.125 HD
ENDBRANCH  12  20
ENDBRANCH   1   4
BRANCH   1  23
HETATM   23  C   UNL     1       5.416  26.830  52.394  1.00  0.00     0.137 C 
BRANCH  23  24
HETATM   24  C   UNL     1       5.836  27.581  51.107  1.00  0.00     0.054 C 
BRANCH  24  25
HETATM   25  C   UNL     1       5.191  27.352  49.762  1.00  0.00    -0.082 C 
HETATM   26  C   UNL     1       5.428  28.488  48.781  1.00  0.00     0.034 C 
HETATM   27  C   UNL     1       5.025  28.175  47.342  1.00  0.00     0.005 C 
HETATM   28  C   UNL     1       3.690  27.446  47.299  1.00  0.00     0.004 C 
HETATM   29  C   UNL     1       3.759  26.141  48.091  1.00  0.00     0.027 C 
HETATM   30  C   UNL     1       4.443  26.288  49.423  1.00  0.00    -0.024 C 
ENDBRANCH  24  25
ENDBRANCH  23  24
ENDBRANCH   1  23
BRANCH   2  31
HETATM   31  C   UNL     1       3.115  28.566  53.189  1.00  0.00     0.144 C 
BRANCH  31  32
HETATM   32  C   UNL     1       3.301  29.697  52.224  1.00  0.00    -0.021 A 
HETATM   33  C   UNL     1       2.681  29.815  50.937  1.00  0.00    -0.001 A 
HETATM   34  C   UNL     1       3.200  30.956  50.327  1.00  0.00     0.042 A 
HETATM   35  C   UNL     1       1.739  29.043  50.227  1.00  0.00     0.014 A 
HETATM   36  C   UNL     1       2.836  31.355  49.035  1.00  0.00     0.030 A 
HETATM   37  N   UNL     1       4.074  31.530  51.220  1.00  0.00    -0.365 N 
HETATM   38  C   UNL     1       1.905  30.567  48.351  1.00  0.00     0.002 A 
HETATM   39  C   UNL     1       1.358  29.430  48.938  1.00  0.00     0.001 A 
HETATM   40  H   UNL     1       4.596  32.377  51.044  1.00  0.00     0.165 HD
HETATM   41  C   UNL     1       4.150  30.777  52.362  1.00  0.00     0.097 A 
ENDBRANCH  31  32
ENDBRANCH   2  31
TORSDOF 9
ENDMDL
MODEL 10
REMARK VINA RESULT:     -10.3      2.730      7.680
REMARK  9 active torsions:
REMARK  status: ('A' for Active; 'I' for Inactive)
REMARK    1  A    between atoms: C_4  and  C_5 
REMARK    2  A    between atoms: C_5  and  N_6 
REMARK    3  A    between atoms: C_12  and  N_13 
REMARK       I    between atoms: N_13  and  C_14 
REMARK    4  A    between atoms: N_13  and  C_27 
REMARK    5  A    between atoms: C_14  and  C_15 
REMARK    6  A    between atoms: C_15  and  C_16 
REMARK    7  A    between atoms: C_27  and  C_28 
REMARK    8  A    between atoms: C_28  and  C_29 
REMARK    9  A    between atoms: C_35  and  N_36 
ROOT
HETATM    1  N   UNL     1       6.819  27.002  55.620  1.00  0.00    -0.310 N 
HETATM    2  C   UNL     1       7.653  28.065  56.021  1.00  0.00     0.228 C 
HETATM    3  O   UNL     1       7.493  29.227  55.618  1.00  0.00    -0.273 OA
ENDROOT
BRANCH   1   4
HETATM    4  C   UNL     1       6.084  27.128  54.395  1.00  0.00     0.144 C 
HETATM    5  C   UNL     1       6.773  26.683  53.127  1.00  0.00     0.279 C 
HETATM    6  N   UNL     1       5.966  26.388  52.081  1.00  0.00    -0.273 N 
HETATM    7  O   UNL     1       7.994  26.593  53.020  1.00  0.00    -0.265 OA
HETATM    8  C   UNL     1       4.910  27.196  51.819  1.00  0.00     0.331 C 
HETATM    9  H   UNL     1       6.455  26.109  51.242  1.00  0.00     0.173 HD
HETATM   10  N   UNL     1       4.333  27.812  52.919  1.00  0.00    -0.284 N 
HETATM   11  O   UNL     1       4.566  27.366  50.651  1.00  0.00    -0.246 OA
HETATM   12  C   UNL     1       4.837  27.656  54.220  1.00  0.00     0.117 C 
BRANCH  10  13
HETATM   13  C   UNL     1       3.268  28.776  52.626  1.00  0.00     0.173 C 
BRANCH  13  14
HETATM   14  C   UNL     1       3.651  30.239  52.586  1.00  0.00    -0.040 A 
HETATM   15  C   UNL     1       3.510  31.110  53.673  1.00  0.00     0.009 A 
HETATM   16  C   UNL     1       3.865  32.457  53.555  1.00  0.00     0.001 A 
HETATM   17  C   UNL     1       4.363  32.951  52.352  1.00  0.00     0.000 A 
HETATM   18  C   UNL     1       4.507  32.100  51.260  1.00  0.00     0.001 A 
HETATM   19  C   UNL     1       4.153  30.754  51.377  1.00  0.00     0.009 A 
ENDBRANCH  13  14
ENDBRANCH  10  13
BRANCH  12  20
HETATM   20  N   UNL     1       4.044  28.008  55.306  1.00  0.00    -0.286 NA
HETATM   21  H   UNL     1       3.900  29.025  55.327  1.00  0.00     0.125 HD
HETATM   22  H   UNL     1       3.149  27.540  55.347  1.00  0.00     0.125 HD
ENDBRANCH  12  20
ENDBRANCH   1   4
BRANCH   1  23
HETATM   23  C   UNL     1       6.942  25.610  56.140  1.00  0.00     0.137 C 
BRANCH  23  24
HETATM   24  C   UNL     1       6.332  24.399  55.393  1.00  0.00     0.054 C 
BRANCH  24  25
HETATM   25  C   UNL     1       7.140  23.207  54.941  1.00  0.00    -0.082 C 
HETATM   26  C   UNL     1       7.192  23.054  53.430  1.00  0.00     0.034 C 
HETATM   27  C   UNL     1       8.210  22.030  52.933  1.00  0.00     0.005 C 
HETATM   28  C   UNL     1       8.177  20.773  53.789  1.00  0.00     0.004 C 
HETATM   29  C   UNL     1       8.478  21.104  55.251  1.00  0.00     0.027 C 
HETATM   30  C   UNL     1       7.745  22.319  55.749  1.00  0.00    -0.024 C 
ENDBRANCH  24  25
ENDBRANCH  23  24
ENDBRANCH   1  23
BRANCH   2  31
HETATM   31  C   UNL     1       8.823  27.786  56.955  1.00  0.00     0.144 C 
BRANCH  31  32
HETATM   32  C   UNL     1       9.554  29.032  57.354  1.00  0.00    -0.021 A 
HETATM   33  C   UNL     1       9.125  29.979  58.340  1.00  0.00    -0.001 A 
HETATM   34  C   UNL     1      10.036  31.035  58.329  1.00  0.00     0.042 A 
HETATM   35  C   UNL     1       8.031  30.045  59.228  1.00  0.00     0.014 A 
HETATM   36  C   UNL     1       9.899  32.161  59.151  1.00  0.00     0.030 A 
HETATM   37  N   UNL     1      11.000  30.726  57.399  1.00  0.00    -0.365 N 
HETATM   38  C   UNL     1       8.802  32.202  60.017  1.00  0.00     0.002 A 
HETATM   39  C   UNL     1       7.882  31.158  60.061  1.00  0.00     0.001 A 
HETATM   40  H   UNL     1      11.793  31.314  57.183  1.00  0.00     0.165 HD
HETATM   41  C   UNL     1      10.718  29.527  56.801  1.00  0.00     0.097 A 
ENDBRANCH  31  32
ENDBRANCH   2  31
TORSDOF 9
ENDMDL
