MODEL 1
REMARK VINA RESULT:     -10.3      0.000      0.000
REMARK  5 active torsions:
REMARK  status: ('A' for Active; 'I' for Inactive)
REMARK    1  A    between atoms: C_4  and  C_5 
REMARK       I    between atoms: C_5  and  N_6 
REMARK    2  A    between atoms: C_9  and  C_10 
REMARK    3  A    between atoms: C_10  and  C_11 
REMARK    4  A    between atoms: N_20  and  C_21 
REMARK    5  A    between atoms: C_21  and  C_22 
ROOT
HETATM    1  C   UNL     1       5.931  28.643  56.072  1.00  0.00     0.148 A 
HETATM    2  N   UNL     1       5.268  27.806  57.068  1.00  0.00    -0.320 N 
HETATM    3  C   UNL     1       5.075  26.513  56.652  1.00  0.00     0.326 A 
HETATM    4  O   UNL     1       4.615  25.634  57.361  1.00  0.00    -0.247 OA
HETATM    5  N   UNL     1       5.439  26.419  55.352  1.00  0.00    -0.263 N 
HETATM    6  C   UNL     1       5.917  27.616  54.906  1.00  0.00     0.262 A 
HETATM    7  O   UNL     1       6.274  27.833  53.755  1.00  0.00    -0.270 OA
HETATM    8  H   UNL     1       5.178  28.022  58.053  1.00  0.00     0.166 HD
ENDROOT
BRANCH   1   9
HETATM    9  C   UNL     1       5.083  29.936  55.813  1.00  0.00     0.031 C 
HETATM   10  C   UNL     1       3.633  29.921  56.336  1.00  0.00     0.028 C 
HETATM   11  C   UNL     1       3.447  30.359  57.786  1.00  0.00     0.126 C 
HETATM   12  N   UNL     1       4.189  31.572  58.141  1.00  0.00    -0.350 N 
HETATM   13  C   UNL     1       3.767  32.213  59.314  1.00  0.00     0.251 C 
HETATM   14  C   UNL     1       5.575  31.642  57.682  1.00  0.00     0.126 C 
HETATM   15  O   UNL     1       2.821  31.788  59.983  1.00  0.00    -0.271 OA
HETATM   16  C   UNL     1       5.742  31.268  56.216  1.00  0.00     0.028 C 
BRANCH  13  17
HETATM   17  C   UNL     1       4.477  33.530  59.734  1.00  0.00     0.279 C 
HETATM   18  N   UNL     1       5.115  33.515  61.147  1.00  0.00    -0.062 N 
HETATM   19  C   UNL     1       6.173  32.453  61.286  1.00  0.00     0.270 C 
HETATM   20  H   UNL     1       5.600  34.414  61.253  1.00  0.00     0.280 HD
HETATM   21  C   UNL     1       4.106  33.439  62.270  1.00  0.00     0.235 C 
HETATM   22  C   UNL     1       3.132  34.601  62.161  1.00  0.00     0.028 C 
HETATM   23  C   UNL     1       2.469  34.671  60.792  1.00  0.00     0.004 C 
HETATM   24  C   UNL     1       3.506  34.715  59.673  1.00  0.00     0.043 C 
ENDBRANCH  13  17
ENDBRANCH   1   9
BRANCH   1  25
HETATM   25  C   UNL     1       7.334  28.975  56.579  1.00  0.00    -0.003 A 
HETATM   26  C   UNL     1       7.655  29.048  57.934  1.00  0.00     0.126 A 
HETATM   27  N   UNL     1       8.892  29.316  58.414  1.00  0.00    -0.272 NA
HETATM   28  C   UNL     1       9.871  29.535  57.514  1.00  0.00     0.116 A 
HETATM   29  C   UNL     1       9.673  29.485  56.148  1.00  0.00     0.020 A 
HETATM   30  C   UNL     1       8.393  29.197  55.680  1.00  0.00     0.013 A 
ENDBRANCH   1  25
BRANCH   5  31
HETATM   31  C   UNL     1       5.361  25.212  54.561  1.00  0.00     0.175 C 
BRANCH  31  32
HETATM   32  C   UNL     1       6.632  24.402  54.644  1.00  0.00    -0.040 A 
HETATM   33  C   UNL     1       7.090  23.685  53.528  1.00  0.00     0.012 A 
HETATM   34  C   UNL     1       8.259  22.926  53.608  1.00  0.00     0.043 A 
HETATM   35  C   UNL     1       8.963  22.875  54.806  1.00  0.00     0.116 A 
HETATM   36  F   UNL     1      10.086  22.149  54.881  1.00  0.00    -0.206 F 
HETATM   37  C   UNL     1       8.518  23.565  55.927  1.00  0.00     0.043 A 
HETATM   38  C   UNL     1       7.352  24.326  55.848  1.00  0.00     0.012 A 
ENDBRANCH  31  32
ENDBRANCH   5  31
TORSDOF 5
ENDMDL
MODEL 2
REMARK VINA RESULT:     -10.1      4.487      9.066
REMARK  5 active torsions:
REMARK  status: ('A' for Active; 'I' for Inactive)
REMARK    1  A    between atoms: C_4  and  C_5 
REMARK       I    between atoms: C_5  and  N_6 
REMARK    2  A    between atoms: C_9  and  C_10 
REMARK    3  A    between atoms: C_10  and  C_11 
REMARK    4  A    between atoms: N_20  and  C_21 
REMARK    5  A    between atoms: C_21  and  C_22 
ROOT
HETATM    1  C   UNL     1       6.486  25.874  54.368  1.00  0.00     0.148 A 
HETATM    2  N   UNL     1       7.314  26.812  53.616  1.00  0.00    -0.320 N 
HETATM    3  C   UNL     1       7.949  27.735  54.408  1.00  0.00     0.326 A 
HETATM    4  O   UNL     1       8.749  28.553  53.989  1.00  0.00    -0.247 OA
HETATM    5  N   UNL     1       7.503  27.592  55.678  1.00  0.00    -0.263 N 
HETATM    6  C   UNL     1       6.617  26.559  55.756  1.00  0.00     0.262 A 
HETATM    7  O   UNL     1       6.020  26.234  56.775  1.00  0.00    -0.270 OA
HETATM    8  H   UNL     1       7.630  26.687  52.663  1.00  0.00     0.166 HD
ENDROOT
BRANCH   1   9
HETATM    9  C   UNL     1       5.032  25.860  53.783  1.00  0.00     0.031 C 
HETATM   10  C   UNL     1       4.338  27.229  53.634  1.00  0.00     0.028 C 
HETATM   11  C   UNL     1       4.616  27.975  52.332  1.00  0.00     0.126 C 
HETATM   12  N   UNL     1       4.523  27.136  51.134  1.00  0.00    -0.350 N 
HETATM   13  C   UNL     1       4.397  27.830  49.923  1.00  0.00     0.251 C 
HETATM   14  C   UNL     1       5.171  25.827  51.208  1.00  0.00     0.126 C 
HETATM   15  O   UNL     1       4.348  29.062  49.881  1.00  0.00    -0.271 OA
HETATM   16  C   UNL     1       4.835  25.062  52.480  1.00  0.00     0.028 C 
BRANCH  13  17
HETATM   17  C   UNL     1       4.251  27.008  48.612  1.00  0.00     0.279 C 
HETATM   18  N   UNL     1       4.446  27.814  47.302  1.00  0.00    -0.062 N 
HETATM   19  C   UNL     1       5.815  28.433  47.210  1.00  0.00     0.270 C 
HETATM   20  H   UNL     1       4.391  27.133  46.535  1.00  0.00     0.280 HD
HETATM   21  C   UNL     1       3.360  28.833  47.046  1.00  0.00     0.235 C 
HETATM   22  C   UNL     1       2.006  28.143  47.025  1.00  0.00     0.028 C 
HETATM   23  C   UNL     1       1.752  27.332  48.289  1.00  0.00     0.004 C 
HETATM   24  C   UNL     1       2.877  26.331  48.544  1.00  0.00     0.043 C 
ENDBRANCH  13  17
ENDBRANCH   1   9
BRANCH   1  25
HETATM   25  C   UNL     1       7.139  24.494  54.300  1.00  0.00    -0.003 A 
HETATM   26  C   UNL     1       7.015  23.543  55.312  1.00  0.00     0.126 A 
HETATM   27  N   UNL     1       7.560  22.305  55.269  1.00  0.00    -0.272 NA
HETATM   28  C   UNL     1       8.278  21.982  54.175  1.00  0.00     0.116 A 
HETATM   29  C   UNL     1       8.466  22.839  53.109  1.00  0.00     0.020 A 
HETATM   30  C   UNL     1       7.885  24.104  53.173  1.00  0.00     0.013 A 
ENDBRANCH   1  25
BRANCH   5  31
HETATM   31  C   UNL     1       7.932  28.401  56.797  1.00  0.00     0.175 C 
BRANCH  31  32
HETATM   32  C   UNL     1       7.037  29.600  57.000  1.00  0.00    -0.040 A 
HETATM   33  C   UNL     1       6.059  29.924  56.047  1.00  0.00     0.012 A 
HETATM   34  C   UNL     1       5.239  31.038  56.229  1.00  0.00     0.043 A 
HETATM   35  C   UNL     1       5.404  31.835  57.356  1.00  0.00     0.116 A 
HETATM   36  F   UNL     1       4.615  32.904  57.530  1.00  0.00    -0.206 F 
HETATM   37  C   UNL     1       6.377  31.542  58.303  1.00  0.00     0.043 A 
HETATM   38  C   UNL     1       7.196  30.427  58.125  1.00  0.00     0.012 A 
ENDBRANCH  31  32
ENDBRANCH   5  31
TORSDOF 5
ENDMDL
MODEL 3
REMARK VINA RESULT:     -10.0      2.819      4.670
REMARK  5 active torsions:
REMARK  status: ('A' for Active; 'I' for Inactive)
REMARK    1  A    between atoms: C_4  and  C_5 
REMARK       I    between atoms: C_5  and  N_6 
REMARK    2  A    between atoms: C_9  and  C_10 
REMARK    3  A    between atoms: C_10  and  C_11 
REMARK    4  A    between atoms: N_20  and  C_21 
REMARK    5  A    between atoms: C_21  and  C_22 
ROOT
HETATM    1  C   UNL     1       5.169  27.716  53.749  1.00  0.00     0.148 A 
HETATM    2  N   UNL     1       6.620  27.864  53.690  1.00  0.00    -0.320 N 
HETATM    3  C   UNL     1       7.272  26.708  53.337  1.00  0.00     0.326 A 
HETATM    4  O   UNL     1       8.474  26.638  53.150  1.00  0.00    -0.247 OA
HETATM    5  N   UNL     1       6.367  25.704  53.280  1.00  0.00    -0.263 N 
HETATM    6  C   UNL     1       5.115  26.177  53.542  1.00  0.00     0.262 A 
HETATM    7  O   UNL     1       4.110  25.481  53.605  1.00  0.00    -0.270 OA
HETATM    8  H   UNL     1       7.123  28.741  53.643  1.00  0.00     0.166 HD
ENDROOT
BRANCH   1   9
HETATM    9  C   UNL     1       4.641  28.206  55.141  1.00  0.00     0.031 C 
HETATM   10  C   UNL     1       5.093  27.393  56.371  1.00  0.00     0.028 C 
HETATM   11  C   UNL     1       6.429  27.803  56.983  1.00  0.00     0.126 C 
HETATM   12  N   UNL     1       6.590  29.251  57.144  1.00  0.00    -0.350 N 
HETATM   13  C   UNL     1       7.606  29.648  58.024  1.00  0.00     0.251 C 
HETATM   14  C   UNL     1       6.188  30.078  56.007  1.00  0.00     0.126 C 
HETATM   15  O   UNL     1       8.299  28.828  58.632  1.00  0.00    -0.271 OA
HETATM   16  C   UNL     1       4.825  29.705  55.445  1.00  0.00     0.028 C 
BRANCH  13  17
HETATM   17  C   UNL     1       7.811  31.167  58.279  1.00  0.00     0.279 C 
HETATM   18  N   UNL     1       9.214  31.566  58.806  1.00  0.00    -0.062 N 
HETATM   19  C   UNL     1      10.313  31.192  57.848  1.00  0.00     0.270 C 
HETATM   20  H   UNL     1       9.220  32.592  58.859  1.00  0.00     0.280 HD
HETATM   21  C   UNL     1       9.505  31.066  60.203  1.00  0.00     0.235 C 
HETATM   22  C   UNL     1       8.436  31.571  61.159  1.00  0.00     0.028 C 
HETATM   23  C   UNL     1       7.031  31.210  60.697  1.00  0.00     0.004 C 
HETATM   24  C   UNL     1       6.771  31.697  59.273  1.00  0.00     0.043 C 
ENDBRANCH  13  17
ENDBRANCH   1   9
BRANCH   1  25
HETATM   25  C   UNL     1       4.557  28.512  52.597  1.00  0.00    -0.003 A 
HETATM   26  C   UNL     1       5.323  29.182  51.643  1.00  0.00     0.126 A 
HETATM   27  N   UNL     1       4.811  29.873  50.599  1.00  0.00    -0.272 NA
HETATM   28  C   UNL     1       3.468  29.921  50.487  1.00  0.00     0.116 A 
HETATM   29  C   UNL     1       2.609  29.294  51.368  1.00  0.00     0.020 A 
HETATM   30  C   UNL     1       3.162  28.580  52.428  1.00  0.00     0.013 A 
ENDBRANCH   1  25
BRANCH   5  31
HETATM   31  C   UNL     1       6.681  24.330  52.956  1.00  0.00     0.175 C 
BRANCH  31  32
HETATM   32  C   UNL     1       7.191  23.572  54.158  1.00  0.00    -0.040 A 
HETATM   33  C   UNL     1       7.618  22.241  54.027  1.00  0.00     0.012 A 
HETATM   34  C   UNL     1       8.080  21.536  55.140  1.00  0.00     0.043 A 
HETATM   35  C   UNL     1       8.103  22.157  56.384  1.00  0.00     0.116 A 
HETATM   36  F   UNL     1       8.548  21.479  57.450  1.00  0.00    -0.206 F 
HETATM   37  C   UNL     1       7.670  23.468  56.538  1.00  0.00     0.043 A 
HETATM   38  C   UNL     1       7.211  24.175  55.427  1.00  0.00     0.012 A 
ENDBRANCH  31  32
ENDBRANCH   5  31
TORSDOF 5
ENDMDL
MODEL 4
REMARK VINA RESULT:      -9.2      4.915      8.013
REMARK  5 active torsions:
REMARK  status: ('A' for Active; 'I' for Inactive)
REMARK    1  A    between atoms: C_4  and  C_5 
REMARK       I    between atoms: C_5  and  N_6 
REMARK    2  A    between atoms: C_9  and  C_10 
REMARK    3  A    between atoms: C_10  and  C_11 
REMARK    4  A    between atoms: N_20  and  C_21 
REMARK    5  A    between atoms: C_21  and  C_22 
ROOT
HETATM    1  C   UNL     1       5.638  27.424  53.165  1.00  0.00     0.148 A 
HETATM    2  N   UNL     1       4.638  26.428  52.792  1.00  0.00    -0.320 N 
HETATM    3  C   UNL     1       5.177  25.206  52.477  1.00  0.00     0.326 A 
HETATM    4  O   UNL     1       4.512  24.217  52.220  1.00  0.00    -0.247 OA
HETATM    5  N   UNL     1       6.526  25.319  52.469  1.00  0.00    -0.263 N 
HETATM    6  C   UNL     1       6.897  26.583  52.819  1.00  0.00     0.262 A 
HETATM    7  O   UNL     1       8.055  26.982  52.849  1.00  0.00    -0.270 OA
HETATM    8  H   UNL     1       3.645  26.490  52.978  1.00  0.00     0.166 HD
ENDROOT
BRANCH   1   9
HETATM    9  C   UNL     1       5.455  28.714  52.293  1.00  0.00     0.031 C 
HETATM   10  C   UNL     1       5.997  28.650  50.851  1.00  0.00     0.028 C 
HETATM   11  C   UNL     1       5.040  28.080  49.808  1.00  0.00     0.126 C 
HETATM   12  N   UNL     1       3.676  28.606  49.901  1.00  0.00    -0.350 N 
HETATM   13  C   UNL     1       2.878  28.410  48.766  1.00  0.00     0.251 C 
HETATM   14  C   UNL     1       3.101  28.683  51.243  1.00  0.00     0.126 C 
HETATM   15  O   UNL     1       3.310  27.850  47.755  1.00  0.00    -0.271 OA
HETATM   16  C   UNL     1       4.037  29.314  52.263  1.00  0.00     0.028 C 
BRANCH  13  17
HETATM   17  C   UNL     1       1.431  28.978  48.771  1.00  0.00     0.279 C 
HETATM   18  N   UNL     1       0.664  28.847  47.431  1.00  0.00    -0.062 N 
HETATM   19  C   UNL     1       0.506  27.413  47.000  1.00  0.00     0.270 C 
HETATM   20  H   UNL     1      -0.286  29.196  47.608  1.00  0.00     0.280 HD
HETATM   21  C   UNL     1       1.231  29.699  46.319  1.00  0.00     0.235 C 
HETATM   22  C   UNL     1       1.257  31.156  46.753  1.00  0.00     0.028 C 
HETATM   23  C   UNL     1       1.999  31.352  48.068  1.00  0.00     0.004 C 
HETATM   24  C   UNL     1       1.429  30.459  49.168  1.00  0.00     0.043 C 
ENDBRANCH  13  17
ENDBRANCH   1   9
BRANCH   1  25
HETATM   25  C   UNL     1       5.488  27.721  54.656  1.00  0.00    -0.003 A 
HETATM   26  C   UNL     1       5.603  29.003  55.193  1.00  0.00     0.126 A 
HETATM   27  N   UNL     1       5.451  29.300  56.504  1.00  0.00    -0.272 NA
HETATM   28  C   UNL     1       5.181  28.280  57.343  1.00  0.00     0.116 A 
HETATM   29  C   UNL     1       5.039  26.971  56.927  1.00  0.00     0.020 A 
HETATM   30  C   UNL     1       5.190  26.693  55.570  1.00  0.00     0.013 A 
ENDBRANCH   1  25
BRANCH   5  31
HETATM   31  C   UNL     1       7.440  24.242  52.163  1.00  0.00     0.175 C 
BRANCH  31  32
HETATM   32  C   UNL     1       7.533  23.245  53.292  1.00  0.00    -0.040 A 
HETATM   33  C   UNL     1       7.399  23.667  54.623  1.00  0.00     0.012 A 
HETATM   34  C   UNL     1       7.495  22.747  55.668  1.00  0.00     0.043 A 
HETATM   35  C   UNL     1       7.738  21.408  55.383  1.00  0.00     0.116 A 
HETATM   36  F   UNL     1       7.829  20.525  56.387  1.00  0.00    -0.206 F 
HETATM   37  C   UNL     1       7.890  20.971  54.073  1.00  0.00     0.043 A 
HETATM   38  C   UNL     1       7.791  21.889  53.027  1.00  0.00     0.012 A 
ENDBRANCH  31  32
ENDBRANCH   5  31
TORSDOF 5
ENDMDL
MODEL 5
REMARK VINA RESULT:      -9.2      3.661      9.022
REMARK  5 active torsions:
REMARK  status: ('A' for Active; 'I' for Inactive)
REMARK    1  A    between atoms: C_4  and  C_5 
REMARK       I    between atoms: C_5  and  N_6 
REMARK    2  A    between atoms: C_9  and  C_10 
REMARK    3  A    between atoms: C_10  and  C_11 
REMARK    4  A    between atoms: N_20  and  C_21 
REMARK    5  A    between atoms: C_21  and  C_22 
ROOT
HETATM    1  C   UNL     1       6.476  28.615  56.567  1.00  0.00     0.148 A 
HETATM    2  N   UNL     1       6.202  28.517  55.136  1.00  0.00    -0.320 N 
HETATM    3  C   UNL     1       5.232  29.387  54.706  1.00  0.00     0.326 A 
HETATM    4  O   UNL     1       4.913  29.523  53.538  1.00  0.00    -0.247 OA
HETATM    5  N   UNL     1       4.697  30.004  55.785  1.00  0.00    -0.263 N 
HETATM    6  C   UNL     1       5.326  29.596  56.924  1.00  0.00     0.262 A 
HETATM    7  O   UNL     1       5.017  29.956  58.053  1.00  0.00    -0.270 OA
HETATM    8  H   UNL     1       6.800  28.074  54.450  1.00  0.00     0.166 HD
ENDROOT
BRANCH   1   9
HETATM    9  C   UNL     1       6.356  27.200  57.230  1.00  0.00     0.031 C 
HETATM   10  C   UNL     1       5.283  26.258  56.648  1.00  0.00     0.028 C 
HETATM   11  C   UNL     1       5.719  25.415  55.454  1.00  0.00     0.126 C 
HETATM   12  N   UNL     1       7.031  24.782  55.618  1.00  0.00    -0.350 N 
HETATM   13  C   UNL     1       7.301  23.724  54.741  1.00  0.00     0.251 C 
HETATM   14  C   UNL     1       8.095  25.627  56.157  1.00  0.00     0.126 C 
HETATM   15  O   UNL     1       6.478  23.345  53.903  1.00  0.00    -0.271 OA
HETATM   16  C   UNL     1       7.672  26.414  57.389  1.00  0.00     0.028 C 
BRANCH  13  17
HETATM   17  C   UNL     1       8.656  22.974  54.881  1.00  0.00     0.279 C 
HETATM   18  N   UNL     1       8.714  21.580  54.205  1.00  0.00    -0.062 N 
HETATM   19  C   UNL     1       8.475  21.654  52.720  1.00  0.00     0.270 C 
HETATM   20  H   UNL     1       9.678  21.245  54.320  1.00  0.00     0.280 HD
HETATM   21  C   UNL     1       7.822  20.549  54.857  1.00  0.00     0.235 C 
HETATM   22  C   UNL     1       8.182  20.419  56.328  1.00  0.00     0.028 C 
HETATM   23  C   UNL     1       8.143  21.758  57.052  1.00  0.00     0.004 C 
HETATM   24  C   UNL     1       9.027  22.793  56.358  1.00  0.00     0.043 C 
ENDBRANCH  13  17
ENDBRANCH   1   9
BRANCH   1  25
HETATM   25  C   UNL     1       7.871  29.211  56.749  1.00  0.00    -0.003 A 
HETATM   26  C   UNL     1       8.807  29.289  55.718  1.00  0.00     0.126 A 
HETATM   27  N   UNL     1      10.039  29.834  55.842  1.00  0.00    -0.272 NA
HETATM   28  C   UNL     1      10.381  30.323  57.051  1.00  0.00     0.116 A 
HETATM   29  C   UNL     1       9.537  30.306  58.144  1.00  0.00     0.020 A 
HETATM   30  C   UNL     1       8.270  29.749  57.987  1.00  0.00     0.013 A 
ENDBRANCH   1  25
BRANCH   5  31
HETATM   31  C   UNL     1       3.633  30.980  55.732  1.00  0.00     0.175 C 
BRANCH  31  32
HETATM   32  C   UNL     1       4.166  32.392  55.697  1.00  0.00    -0.040 A 
HETATM   33  C   UNL     1       4.629  32.946  54.494  1.00  0.00     0.012 A 
HETATM   34  C   UNL     1       5.132  34.248  54.464  1.00  0.00     0.043 A 
HETATM   35  C   UNL     1       5.183  34.991  55.638  1.00  0.00     0.116 A 
HETATM   36  F   UNL     1       5.664  36.240  55.608  1.00  0.00    -0.206 F 
HETATM   37  C   UNL     1       4.744  34.456  56.843  1.00  0.00     0.043 A 
HETATM   38  C   UNL     1       4.238  33.156  56.875  1.00  0.00     0.012 A 
ENDBRANCH  31  32
ENDBRANCH   5  31
TORSDOF 5
ENDMDL
MODEL 6
REMARK VINA RESULT:      -9.1      3.277      5.845
REMARK  5 active torsions:
REMARK  status: ('A' for Active; 'I' for Inactive)
REMARK    1  A    between atoms: C_4  and  C_5 
REMARK       I    between atoms: C_5  and  N_6 
REMARK    2  A    between atoms: C_9  and  C_10 
REMARK    3  A    between atoms: C_10  and  C_11 
REMARK    4  A    between atoms: N_20  and  C_21 
REMARK    5  A    between atoms: C_21  and  C_22 
ROOT
HETATM    1  C   UNL     1       6.845  25.268  54.916  1.00  0.00     0.148 A 
HETATM    2  N   UNL     1       5.472  24.882  54.605  1.00  0.00    -0.320 N 
HETATM    3  C   UNL     1       5.087  25.215  53.330  1.00  0.00     0.326 A 
HETATM    4  O   UNL     1       4.013  24.909  52.844  1.00  0.00    -0.247 OA
HETATM    5  N   UNL     1       6.072  25.949  52.761  1.00  0.00    -0.263 N 
HETATM    6  C   UNL     1       7.127  26.071  53.616  1.00  0.00     0.262 A 
HETATM    7  O   UNL     1       8.137  26.722  53.382  1.00  0.00    -0.270 OA
HETATM    8  H   UNL     1       4.913  24.217  55.125  1.00  0.00     0.166 HD
ENDROOT
BRANCH   1   9
HETATM    9  C   UNL     1       6.873  26.123  56.230  1.00  0.00     0.031 C 
HETATM   10  C   UNL     1       7.683  27.433  56.178  1.00  0.00     0.028 C 
HETATM   11  C   UNL     1       6.932  28.657  55.662  1.00  0.00     0.126 C 
HETATM   12  N   UNL     1       5.591  28.817  56.232  1.00  0.00    -0.350 N 
HETATM   13  C   UNL     1       5.025  30.090  56.088  1.00  0.00     0.251 C 
HETATM   14  C   UNL     1       4.768  27.611  56.300  1.00  0.00     0.126 C 
HETATM   15  O   UNL     1       5.628  31.013  55.534  1.00  0.00    -0.271 OA
HETATM   16  C   UNL     1       5.505  26.411  56.878  1.00  0.00     0.028 C 
BRANCH  13  17
HETATM   17  C   UNL     1       3.621  30.350  56.703  1.00  0.00     0.279 C 
HETATM   18  N   UNL     1       2.892  31.613  56.177  1.00  0.00    -0.062 N 
HETATM   19  C   UNL     1       2.649  31.556  54.693  1.00  0.00     0.270 C 
HETATM   20  H   UNL     1       1.963  31.612  56.617  1.00  0.00     0.280 HD
HETATM   21  C   UNL     1       3.553  32.911  56.580  1.00  0.00     0.235 C 
HETATM   22  C   UNL     1       3.666  32.978  58.095  1.00  0.00     0.028 C 
HETATM   23  C   UNL     1       4.376  31.763  58.675  1.00  0.00     0.004 C 
HETATM   24  C   UNL     1       3.709  30.463  58.230  1.00  0.00     0.043 C 
ENDBRANCH  13  17
ENDBRANCH   1   9
BRANCH   1  25
HETATM   25  C   UNL     1       7.683  23.998  55.047  1.00  0.00    -0.003 A 
HETATM   26  C   UNL     1       8.002  23.419  56.276  1.00  0.00     0.126 A 
HETATM   27  N   UNL     1       8.720  22.282  56.423  1.00  0.00    -0.272 NA
HETATM   28  C   UNL     1       9.163  21.680  55.301  1.00  0.00     0.116 A 
HETATM   29  C   UNL     1       8.907  22.157  54.031  1.00  0.00     0.020 A 
HETATM   30  C   UNL     1       8.156  23.324  53.906  1.00  0.00     0.013 A 
ENDBRANCH   1  25
BRANCH   5  31
HETATM   31  C   UNL     1       6.023  26.496  51.424  1.00  0.00     0.175 C 
BRANCH  31  32
HETATM   32  C   UNL     1       5.164  27.736  51.355  1.00  0.00    -0.040 A 
HETATM   33  C   UNL     1       5.358  28.784  52.267  1.00  0.00     0.012 A 
HETATM   34  C   UNL     1       4.557  29.926  52.210  1.00  0.00     0.043 A 
HETATM   35  C   UNL     1       3.554  30.013  51.251  1.00  0.00     0.116 A 
HETATM   36  F   UNL     1       2.787  31.110  51.197  1.00  0.00    -0.206 F 
HETATM   37  C   UNL     1       3.334  28.979  50.350  1.00  0.00     0.043 A 
HETATM   38  C   UNL     1       4.136  27.839  50.402  1.00  0.00     0.012 A 
ENDBRANCH  31  32
ENDBRANCH   5  31
TORSDOF 5
ENDMDL
MODEL 7
REMARK VINA RESULT:      -9.0      3.697      9.193
REMARK  5 active torsions:
REMARK  status: ('A' for Active; 'I' for Inactive)
REMARK    1  A    between atoms: C_4  and  C_5 
REMARK       I    between atoms: C_5  and  N_6 
REMARK    2  A    between atoms: C_9  and  C_10 
REMARK    3  A    between atoms: C_10  and  C_11 
REMARK    4  A    between atoms: N_20  and  C_21 
REMARK    5  A    between atoms: C_21  and  C_22 
ROOT
HETATM    1  C   UNL     1       6.089  27.836  55.321  1.00  0.00     0.148 A 
HETATM    2  N   UNL     1       6.114  27.059  56.556  1.00  0.00    -0.320 N 
HETATM    3  C   UNL     1       7.239  27.273  57.312  1.00  0.00     0.326 A 
HETATM    4  O   UNL     1       7.417  26.788  58.416  1.00  0.00    -0.247 OA
HETATM    5  N   UNL     1       8.087  28.060  56.610  1.00  0.00    -0.263 N 
HETATM    6  C   UNL     1       7.529  28.412  55.417  1.00  0.00     0.262 A 
HETATM    7  O   UNL     1       8.091  29.081  54.559  1.00  0.00    -0.270 OA
HETATM    8  H   UNL     1       5.316  26.606  56.984  1.00  0.00     0.166 HD
ENDROOT
BRANCH   1   9
HETATM    9  C   UNL     1       5.847  26.885  54.098  1.00  0.00     0.031 C 
HETATM   10  C   UNL     1       7.055  26.639  53.172  1.00  0.00     0.028 C 
HETATM   11  C   UNL     1       7.987  25.504  53.586  1.00  0.00     0.126 C 
HETATM   12  N   UNL     1       7.292  24.277  53.984  1.00  0.00    -0.350 N 
HETATM   13  C   UNL     1       8.081  23.119  54.007  1.00  0.00     0.251 C 
HETATM   14  C   UNL     1       6.142  24.444  54.872  1.00  0.00     0.126 C 
HETATM   15  O   UNL     1       9.273  23.138  53.692  1.00  0.00    -0.271 OA
HETATM   16  C   UNL     1       5.182  25.532  54.415  1.00  0.00     0.028 C 
BRANCH  13  17
HETATM   17  C   UNL     1       7.404  21.770  54.379  1.00  0.00     0.279 C 
HETATM   18  N   UNL     1       8.003  21.049  55.613  1.00  0.00    -0.062 N 
HETATM   19  C   UNL     1       7.904  21.879  56.865  1.00  0.00     0.270 C 
HETATM   20  H   UNL     1       7.416  20.221  55.775  1.00  0.00     0.280 HD
HETATM   21  C   UNL     1       9.409  20.539  55.398  1.00  0.00     0.235 C 
HETATM   22  C   UNL     1       9.437  19.607  54.197  1.00  0.00     0.028 C 
HETATM   23  C   UNL     1       8.861  20.259  52.948  1.00  0.00     0.004 C 
HETATM   24  C   UNL     1       7.453  20.794  53.198  1.00  0.00     0.043 C 
ENDBRANCH  13  17
ENDBRANCH   1   9
BRANCH   1  25
HETATM   25  C   UNL     1       4.994  28.896  55.441  1.00  0.00    -0.003 A 
HETATM   26  C   UNL     1       4.473  29.316  56.664  1.00  0.00     0.126 A 
HETATM   27  N   UNL     1       3.523  30.269  56.804  1.00  0.00    -0.272 NA
HETATM   28  C   UNL     1       3.046  30.838  55.679  1.00  0.00     0.116 A 
HETATM   29  C   UNL     1       3.489  30.507  54.413  1.00  0.00     0.020 A 
HETATM   30  C   UNL     1       4.476  29.530  54.297  1.00  0.00     0.013 A 
ENDBRANCH   1  25
BRANCH   5  31
HETATM   31  C   UNL     1       9.387  28.488  57.074  1.00  0.00     0.175 C 
BRANCH  31  32
HETATM   32  C   UNL     1       9.293  29.697  57.974  1.00  0.00    -0.040 A 
HETATM   33  C   UNL     1       8.212  29.840  58.858  1.00  0.00     0.012 A 
HETATM   34  C   UNL     1       8.119  30.963  59.682  1.00  0.00     0.043 A 
HETATM   35  C   UNL     1       9.098  31.948  59.613  1.00  0.00     0.116 A 
HETATM   36  F   UNL     1       9.008  33.024  60.405  1.00  0.00    -0.206 F 
HETATM   37  C   UNL     1      10.167  31.834  58.733  1.00  0.00     0.043 A 
HETATM   38  C   UNL     1      10.264  30.711  57.910  1.00  0.00     0.012 A 
ENDBRANCH  31  32
ENDBRANCH   5  31
TORSDOF 5
ENDMDL
MODEL 8
REMARK VINA RESULT:      -9.0      3.307      4.979
REMARK  5 active torsions:
REMARK  status: ('A' for Active; 'I' for Inactive)
REMARK    1  A    between atoms: C_4  and  C_5 
REMARK       I    between atoms: C_5  and  N_6 
REMARK    2  A    between atoms: C_9  and  C_10 
REMARK    3  A    between atoms: C_10  and  C_11 
REMARK    4  A    between atoms: N_20  and  C_21 
REMARK    5  A    between atoms: C_21  and  C_22 
ROOT
HETATM    1  C   UNL     1       5.158  27.939  53.662  1.00  0.00     0.148 A 
HETATM    2  N   UNL     1       6.377  28.739  53.725  1.00  0.00    -0.320 N 
HETATM    3  C   UNL     1       7.442  28.068  54.272  1.00  0.00     0.326 A 
HETATM    4  O   UNL     1       8.570  28.526  54.340  1.00  0.00    -0.247 OA
HETATM    5  N   UNL     1       7.007  26.873  54.735  1.00  0.00    -0.263 N 
HETATM    6  C   UNL     1       5.680  26.715  54.464  1.00  0.00     0.262 A 
HETATM    7  O   UNL     1       5.013  25.748  54.810  1.00  0.00    -0.270 OA
HETATM    8  H   UNL     1       6.551  29.591  53.207  1.00  0.00     0.166 HD
ENDROOT
BRANCH   1   9
HETATM    9  C   UNL     1       3.978  28.712  54.346  1.00  0.00     0.031 C 
HETATM   10  C   UNL     1       4.228  29.213  55.783  1.00  0.00     0.028 C 
HETATM   11  C   UNL     1       4.897  30.580  55.901  1.00  0.00     0.126 C 
HETATM   12  N   UNL     1       4.331  31.599  55.012  1.00  0.00    -0.350 N 
HETATM   13  C   UNL     1       4.642  32.924  55.342  1.00  0.00     0.251 C 
HETATM   14  C   UNL     1       4.079  31.187  53.632  1.00  0.00     0.126 C 
HETATM   15  O   UNL     1       5.331  33.206  56.327  1.00  0.00    -0.271 OA
HETATM   16  C   UNL     1       3.352  29.855  53.525  1.00  0.00     0.028 C 
BRANCH  13  17
HETATM   17  C   UNL     1       4.044  34.064  54.472  1.00  0.00     0.279 C 
HETATM   18  N   UNL     1       5.026  35.208  54.113  1.00  0.00    -0.062 N 
HETATM   19  C   UNL     1       6.214  34.718  53.329  1.00  0.00     0.270 C 
HETATM   20  H   UNL     1       4.514  35.841  53.486  1.00  0.00     0.280 HD
HETATM   21  C   UNL     1       5.453  36.039  55.301  1.00  0.00     0.235 C 
HETATM   22  C   UNL     1       4.226  36.615  55.990  1.00  0.00     0.028 C 
HETATM   23  C   UNL     1       3.219  35.538  56.369  1.00  0.00     0.004 C 
HETATM   24  C   UNL     1       2.826  34.692  55.160  1.00  0.00     0.043 C 
ENDBRANCH  13  17
ENDBRANCH   1   9
BRANCH   1  25
HETATM   25  C   UNL     1       4.860  27.630  52.196  1.00  0.00    -0.003 A 
HETATM   26  C   UNL     1       4.327  28.570  51.313  1.00  0.00     0.126 A 
HETATM   27  N   UNL     1       4.076  28.334  50.005  1.00  0.00    -0.272 NA
HETATM   28  C   UNL     1       4.353  27.102  49.533  1.00  0.00     0.116 A 
HETATM   29  C   UNL     1       4.886  26.093  50.310  1.00  0.00     0.020 A 
HETATM   30  C   UNL     1       5.146  26.365  51.652  1.00  0.00     0.013 A 
ENDBRANCH   1  25
BRANCH   5  31
HETATM   31  C   UNL     1       7.840  25.893  55.394  1.00  0.00     0.175 C 
BRANCH  31  32
HETATM   32  C   UNL     1       7.832  24.569  54.668  1.00  0.00    -0.040 A 
HETATM   33  C   UNL     1       7.696  23.370  55.383  1.00  0.00     0.012 A 
HETATM   34  C   UNL     1       7.700  22.145  54.713  1.00  0.00     0.043 A 
HETATM   35  C   UNL     1       7.853  22.119  53.332  1.00  0.00     0.116 A 
HETATM   36  F   UNL     1       7.856  20.943  52.690  1.00  0.00    -0.206 F 
HETATM   37  C   UNL     1       8.007  23.294  52.607  1.00  0.00     0.043 A 
HETATM   38  C   UNL     1       8.000  24.519  53.274  1.00  0.00     0.012 A 
ENDBRANCH  31  32
ENDBRANCH   5  31
TORSDOF 5
ENDMDL
MODEL 9
REMARK VINA RESULT:      -8.9      6.116      9.000
REMARK  5 active torsions:
REMARK  status: ('A' for Active; 'I' for Inactive)
REMARK    1  A    between atoms: C_4  and  C_5 
REMARK       I    between atoms: C_5  and  N_6 
REMARK    2  A    between atoms: C_9  and  C_10 
REMARK    3  A    between atoms: C_10  and  C_11 
REMARK    4  A    between atoms: N_20  and  C_21 
REMARK    5  A    between atoms: C_21  and  C_22 
ROOT
HETATM    1  C   UNL     1       4.283  34.394  63.444  1.00  0.00     0.148 A 
HETATM    2  N   UNL     1       3.491  33.185  63.236  1.00  0.00    -0.320 N 
HETATM    3  C   UNL     1       3.979  32.378  62.239  1.00  0.00     0.326 A 
HETATM    4  O   UNL     1       3.515  31.286  61.963  1.00  0.00    -0.247 OA
HETATM    5  N   UNL     1       5.000  33.020  61.626  1.00  0.00    -0.263 N 
HETATM    6  C   UNL     1       5.234  34.222  62.227  1.00  0.00     0.262 A 
HETATM    7  O   UNL     1       6.070  35.034  61.850  1.00  0.00    -0.270 OA
HETATM    8  H   UNL     1       2.816  32.804  63.887  1.00  0.00     0.166 HD
ENDROOT
BRANCH   1   9
HETATM    9  C   UNL     1       3.356  35.656  63.374  1.00  0.00     0.031 C 
HETATM   10  C   UNL     1       4.038  37.021  63.596  1.00  0.00     0.028 C 
HETATM   11  C   UNL     1       4.642  37.671  62.354  1.00  0.00     0.126 C 
HETATM   12  N   UNL     1       3.767  37.635  61.179  1.00  0.00    -0.350 N 
HETATM   13  C   UNL     1       4.105  38.525  60.151  1.00  0.00     0.251 C 
HETATM   14  C   UNL     1       3.098  36.363  60.908  1.00  0.00     0.126 C 
HETATM   15  O   UNL     1       5.063  39.296  60.246  1.00  0.00    -0.271 OA
HETATM   16  C   UNL     1       2.441  35.755  62.139  1.00  0.00     0.028 C 
BRANCH  13  17
HETATM   17  C   UNL     1       3.199  38.576  58.888  1.00  0.00     0.279 C 
HETATM   18  N   UNL     1       3.953  38.670  57.537  1.00  0.00    -0.062 N 
HETATM   19  C   UNL     1       4.860  37.492  57.305  1.00  0.00     0.270 C 
HETATM   20  H   UNL     1       3.236  38.625  56.804  1.00  0.00     0.280 HD
HETATM   21  C   UNL     1       4.684  39.978  57.338  1.00  0.00     0.235 C 
HETATM   22  C   UNL     1       3.705  41.135  57.459  1.00  0.00     0.028 C 
HETATM   23  C   UNL     1       2.930  41.099  58.770  1.00  0.00     0.004 C 
HETATM   24  C   UNL     1       2.226  39.758  58.964  1.00  0.00     0.043 C 
ENDBRANCH  13  17
ENDBRANCH   1   9
BRANCH   1  25
HETATM   25  C   UNL     1       4.989  34.281  64.794  1.00  0.00    -0.003 A 
HETATM   26  C   UNL     1       4.308  34.293  66.012  1.00  0.00     0.126 A 
HETATM   27  N   UNL     1       4.902  34.170  67.222  1.00  0.00    -0.272 NA
HETATM   28  C   UNL     1       6.243  34.038  67.242  1.00  0.00     0.116 A 
HETATM   29  C   UNL     1       7.022  34.008  66.102  1.00  0.00     0.020 A 
HETATM   30  C   UNL     1       6.385  34.126  64.869  1.00  0.00     0.013 A 
ENDBRANCH   1  25
BRANCH   5  31
HETATM   31  C   UNL     1       5.754  32.491  60.512  1.00  0.00     0.175 C 
BRANCH  31  32
HETATM   32  C   UNL     1       7.005  31.779  60.968  1.00  0.00    -0.040 A 
HETATM   33  C   UNL     1       7.935  31.308  60.028  1.00  0.00     0.012 A 
HETATM   34  C   UNL     1       9.086  30.639  60.449  1.00  0.00     0.043 A 
HETATM   35  C   UNL     1       9.301  30.431  61.807  1.00  0.00     0.116 A 
HETATM   36  F   UNL     1      10.407  29.791  62.209  1.00  0.00    -0.206 F 
HETATM   37  C   UNL     1       8.385  30.875  62.753  1.00  0.00     0.043 A 
HETATM   38  C   UNL     1       7.236  31.546  62.335  1.00  0.00     0.012 A 
ENDBRANCH  31  32
ENDBRANCH   5  31
TORSDOF 5
ENDMDL
MODEL 10
REMARK VINA RESULT:      -8.8      3.465      5.414
REMARK  5 active torsions:
REMARK  status: ('A' for Active; 'I' for Inactive)
REMARK    1  A    between atoms: C_4  and  C_5 
REMARK       I    between atoms: C_5  and  N_6 
REMARK    2  A    between atoms: C_9  and  C_10 
REMARK    3  A    between atoms: C_10  and  C_11 
REMARK    4  A    between atoms: N_20  and  C_21 
REMARK    5  A    between atoms: C_21  and  C_22 
ROOT
HETATM    1  C   UNL     1       6.341  26.628  54.710  1.00  0.00     0.148 A 
HETATM    2  N   UNL     1       4.901  26.663  54.478  1.00  0.00    -0.320 N 
HETATM    3  C   UNL     1       4.538  27.457  53.419  1.00  0.00     0.326 A 
HETATM    4  O   UNL     1       3.395  27.557  53.007  1.00  0.00    -0.247 OA
HETATM    5  N   UNL     1       5.638  28.105  52.970  1.00  0.00    -0.263 N 
HETATM    6  C   UNL     1       6.737  27.723  53.680  1.00  0.00     0.262 A 
HETATM    7  O   UNL     1       7.860  28.184  53.520  1.00  0.00    -0.270 OA
HETATM    8  H   UNL     1       4.228  26.002  54.846  1.00  0.00     0.166 HD
ENDROOT
BRANCH   1   9
HETATM    9  C   UNL     1       6.650  26.996  56.202  1.00  0.00     0.031 C 
HETATM   10  C   UNL     1       7.710  28.091  56.434  1.00  0.00     0.028 C 
HETATM   11  C   UNL     1       7.194  29.527  56.420  1.00  0.00     0.126 C 
HETATM   12  N   UNL     1       5.964  29.725  57.193  1.00  0.00    -0.350 N 
HETATM   13  C   UNL     1       5.667  31.055  57.519  1.00  0.00     0.251 C 
HETATM   14  C   UNL     1       4.915  28.724  57.009  1.00  0.00     0.126 C 
HETATM   15  O   UNL     1       6.406  31.987  57.190  1.00  0.00    -0.271 OA
HETATM   16  C   UNL     1       5.427  27.293  57.091  1.00  0.00     0.028 C 
BRANCH  13  17
HETATM   17  C   UNL     1       4.401  31.343  58.373  1.00  0.00     0.279 C 
HETATM   18  N   UNL     1       3.342  32.253  57.701  1.00  0.00    -0.062 N 
HETATM   19  C   UNL     1       2.808  31.662  56.423  1.00  0.00     0.270 C 
HETATM   20  H   UNL     1       2.545  32.293  58.348  1.00  0.00     0.280 HD
HETATM   21  C   UNL     1       3.802  33.678  57.501  1.00  0.00     0.235 C 
HETATM   22  C   UNL     1       4.214  34.274  58.837  1.00  0.00     0.028 C 
HETATM   23  C   UNL     1       5.257  33.425  59.551  1.00  0.00     0.004 C 
HETATM   24  C   UNL     1       4.784  31.982  59.713  1.00  0.00     0.043 C 
ENDBRANCH  13  17
ENDBRANCH   1   9
BRANCH   1  25
HETATM   25  C   UNL     1       6.853  25.234  54.351  1.00  0.00    -0.003 A 
HETATM   26  C   UNL     1       6.886  24.178  55.261  1.00  0.00     0.126 A 
HETATM   27  N   UNL     1       7.310  22.927  54.966  1.00  0.00    -0.272 NA
HETATM   28  C   UNL     1       7.737  22.698  53.708  1.00  0.00     0.116 A 
HETATM   29  C   UNL     1       7.746  23.664  52.721  1.00  0.00     0.020 A 
HETATM   30  C   UNL     1       7.294  24.941  53.047  1.00  0.00     0.013 A 
ENDBRANCH   1  25
BRANCH   5  31
HETATM   31  C   UNL     1       5.647  29.046  51.872  1.00  0.00     0.175 C 
BRANCH  31  32
HETATM   32  C   UNL     1       5.012  28.468  50.631  1.00  0.00    -0.040 A 
HETATM   33  C   UNL     1       4.042  29.197  49.926  1.00  0.00     0.012 A 
HETATM   34  C   UNL     1       3.446  28.659  48.784  1.00  0.00     0.043 A 
HETATM   35  C   UNL     1       3.811  27.388  48.354  1.00  0.00     0.116 A 
HETATM   36  F   UNL     1       3.240  26.873  47.258  1.00  0.00    -0.206 F 
HETATM   37  C   UNL     1       4.758  26.643  49.047  1.00  0.00     0.043 A 
HETATM   38  C   UNL     1       5.357  27.180  50.186  1.00  0.00     0.012 A 
ENDBRANCH  31  32
ENDBRANCH   5  31
TORSDOF 5
ENDMDL
