MODEL 1
REMARK VINA RESULT:      -9.5      0.000      0.000
REMARK  4 active torsions:
REMARK  status: ('A' for Active; 'I' for Inactive)
REMARK    1  A    between atoms: C_6  and  N_7 
REMARK       I    between atoms: N_7  and  C_8 
REMARK    2  A    between atoms: C_8  and  C_9 
REMARK    3  A    between atoms: C_10  and  C_11 
REMARK    4  A    between atoms: C_14  and  O_15 
ROOT
HETATM    1  C   UNL     1       4.779  26.948  52.651  1.00  0.00     0.062 A 
HETATM    2  C   UNL     1       4.385  27.967  53.711  1.00  0.00     0.202 A 
HETATM    3  N   UNL     1       4.196  29.301  53.123  1.00  0.00    -0.084 N 
HETATM    4  C   UNL     1       4.374  29.587  51.796  1.00  0.00     0.725 A 
HETATM    5  N   UNL     1       4.760  28.609  50.956  1.00  0.00    -0.192 N 
HETATM    6  N   UNL     1       3.664  30.356  53.780  1.00  0.00    -0.149 NA
HETATM    7  C   UNL     1       3.665  31.275  52.808  1.00  0.00     0.275 A 
HETATM    8  N   UNL     1       4.077  30.841  51.575  1.00  0.00    -0.054 NA
HETATM    9  C   UNL     1       4.956  27.292  51.352  1.00  0.00     0.037 A 
HETATM   10  C   UNL     1       5.345  26.330  50.257  1.00  0.00     0.070 C 
HETATM   11  H   UNL     1       4.896  28.833  49.974  1.00  0.00     0.184 HD
ENDROOT
BRANCH   1  12
HETATM   12  C   UNL     1       5.059  25.560  53.101  1.00  0.00     0.256 C 
HETATM   13  N   UNL     1       6.406  25.296  53.225  1.00  0.00    -0.323 N 
HETATM   14  H   UNL     1       7.045  26.050  53.023  1.00  0.00     0.169 HD
HETATM   15  O   UNL     1       4.118  24.813  53.339  1.00  0.00    -0.267 OA
BRANCH  13  16
HETATM   16  C   UNL     1       7.007  24.086  53.657  1.00  0.00     0.041 A 
HETATM   17  C   UNL     1       7.018  23.782  55.035  1.00  0.00    -0.035 A 
HETATM   18  C   UNL     1       7.584  22.569  55.474  1.00  0.00     0.015 A 
HETATM   19  C   UNL     1       6.445  24.712  56.072  1.00  0.00     0.050 C 
HETATM   20  C   UNL     1       8.152  21.663  54.572  1.00  0.00    -0.061 A 
HETATM   21  C   UNL     1       8.715  20.356  55.044  1.00  0.00     0.048 C 
HETATM   22  C   UNL     1       8.138  21.973  53.213  1.00  0.00     0.009 A 
HETATM   23  C   UNL     1       7.577  23.172  52.763  1.00  0.00     0.030 A 
ENDBRANCH  13  16
ENDBRANCH   1  12
BRANCH   2  24
HETATM   24  C   UNL     1       5.323  28.052  54.910  1.00  0.00    -0.028 A 
HETATM   25  C   UNL     1       6.698  28.297  54.774  1.00  0.00     0.012 A 
HETATM   26  C   UNL     1       7.520  28.373  55.903  1.00  0.00     0.037 A 
HETATM   27  C   UNL     1       6.989  28.233  57.187  1.00  0.00     0.068 A 
HETATM   28  C   UNL     1       5.623  28.010  57.336  1.00  0.00     0.037 A 
HETATM   29  C   UNL     1       4.799  27.920  56.208  1.00  0.00     0.012 A 
BRANCH  27  30
HETATM   30  O   UNL     1       7.903  28.338  58.200  1.00  0.00    -0.356 OA
HETATM   31  C   UNL     1       8.209  29.651  58.654  1.00  0.00     0.210 C 
ENDBRANCH  27  30
ENDBRANCH   2  24
TORSDOF 4
ENDMDL
MODEL 2
REMARK VINA RESULT:      -9.2      1.623      1.891
REMARK  4 active torsions:
REMARK  status: ('A' for Active; 'I' for Inactive)
REMARK    1  A    between atoms: C_6  and  N_7 
REMARK       I    between atoms: N_7  and  C_8 
REMARK    2  A    between atoms: C_8  and  C_9 
REMARK    3  A    between atoms: C_10  and  C_11 
REMARK    4  A    between atoms: C_14  and  O_15 
ROOT
HETATM    1  C   UNL     1       5.992  26.964  53.459  1.00  0.00     0.062 A 
HETATM    2  C   UNL     1       5.761  27.688  54.779  1.00  0.00     0.202 A 
HETATM    3  N   UNL     1       4.836  28.817  54.613  1.00  0.00    -0.084 N 
HETATM    4  C   UNL     1       4.274  29.179  53.418  1.00  0.00     0.725 A 
HETATM    5  N   UNL     1       4.580  28.485  52.307  1.00  0.00    -0.192 N 
HETATM    6  N   UNL     1       4.300  29.521  55.635  1.00  0.00    -0.149 NA
HETATM    7  C   UNL     1       3.513  30.369  54.962  1.00  0.00     0.275 A 
HETATM    8  N   UNL     1       3.457  30.184  53.605  1.00  0.00    -0.054 NA
HETATM    9  C   UNL     1       5.419  27.378  52.303  1.00  0.00     0.037 A 
HETATM   10  C   UNL     1       5.607  26.704  50.966  1.00  0.00     0.070 C 
HETATM   11  H   UNL     1       4.163  28.766  51.423  1.00  0.00     0.184 HD
ENDROOT
BRANCH   1  12
HETATM   12  C   UNL     1       6.949  25.828  53.455  1.00  0.00     0.256 C 
HETATM   13  N   UNL     1       6.486  24.731  54.148  1.00  0.00    -0.323 N 
HETATM   14  H   UNL     1       5.566  24.799  54.559  1.00  0.00     0.169 HD
HETATM   15  O   UNL     1       8.005  25.946  52.845  1.00  0.00    -0.267 OA
BRANCH  13  16
HETATM   16  C   UNL     1       7.137  23.482  54.313  1.00  0.00     0.041 A 
HETATM   17  C   UNL     1       7.642  23.138  55.585  1.00  0.00    -0.035 A 
HETATM   18  C   UNL     1       8.263  21.887  55.770  1.00  0.00     0.015 A 
HETATM   19  C   UNL     1       7.547  24.062  56.770  1.00  0.00     0.050 C 
HETATM   20  C   UNL     1       8.406  20.982  54.713  1.00  0.00    -0.061 A 
HETATM   21  C   UNL     1       9.031  19.637  54.929  1.00  0.00     0.048 C 
HETATM   22  C   UNL     1       7.905  21.332  53.460  1.00  0.00     0.009 A 
HETATM   23  C   UNL     1       7.284  22.569  53.262  1.00  0.00     0.030 A 
ENDBRANCH  13  16
ENDBRANCH   1  12
BRANCH   2  24
HETATM   24  C   UNL     1       7.026  28.148  55.496  1.00  0.00    -0.028 A 
HETATM   25  C   UNL     1       8.057  28.836  54.836  1.00  0.00     0.012 A 
HETATM   26  C   UNL     1       9.196  29.246  55.536  1.00  0.00     0.037 A 
HETATM   27  C   UNL     1       9.324  29.003  56.905  1.00  0.00     0.068 A 
HETATM   28  C   UNL     1       8.300  28.338  57.574  1.00  0.00     0.037 A 
HETATM   29  C   UNL     1       7.162  27.916  56.876  1.00  0.00     0.012 A 
BRANCH  27  30
HETATM   30  O   UNL     1      10.484  29.464  57.464  1.00  0.00    -0.356 OA
HETATM   31  C   UNL     1      10.577  30.867  57.682  1.00  0.00     0.210 C 
ENDBRANCH  27  30
ENDBRANCH   2  24
TORSDOF 4
ENDMDL
MODEL 3
REMARK VINA RESULT:      -9.1      2.828      7.474
REMARK  4 active torsions:
REMARK  status: ('A' for Active; 'I' for Inactive)
REMARK    1  A    between atoms: C_6  and  N_7 
REMARK       I    between atoms: N_7  and  C_8 
REMARK    2  A    between atoms: C_8  and  C_9 
REMARK    3  A    between atoms: C_10  and  C_11 
REMARK    4  A    between atoms: C_14  and  O_15 
ROOT
HETATM    1  C   UNL     1       7.080  24.327  55.993  1.00  0.00     0.062 A 
HETATM    2  C   UNL     1       6.683  23.609  54.711  1.00  0.00     0.202 A 
HETATM    3  N   UNL     1       7.716  22.650  54.295  1.00  0.00    -0.084 N 
HETATM    4  C   UNL     1       8.892  22.449  54.968  1.00  0.00     0.725 A 
HETATM    5  N   UNL     1       9.151  23.171  56.074  1.00  0.00    -0.192 N 
HETATM    6  N   UNL     1       7.560  21.739  53.309  1.00  0.00    -0.149 NA
HETATM    7  C   UNL     1       8.736  21.104  53.373  1.00  0.00     0.275 A 
HETATM    8  N   UNL     1       9.573  21.498  54.384  1.00  0.00    -0.054 NA
HETATM    9  C   UNL     1       8.266  24.098  56.608  1.00  0.00     0.037 A 
HETATM   10  C   UNL     1       8.716  24.776  57.878  1.00  0.00     0.070 C 
HETATM   11  H   UNL     1      10.030  23.019  56.562  1.00  0.00     0.184 HD
ENDROOT
BRANCH   1  12
HETATM   12  C   UNL     1       6.158  25.370  56.511  1.00  0.00     0.256 C 
HETATM   13  N   UNL     1       6.477  26.637  56.072  1.00  0.00    -0.323 N 
HETATM   14  H   UNL     1       7.266  26.725  55.449  1.00  0.00     0.169 HD
HETATM   15  O   UNL     1       5.223  25.032  57.226  1.00  0.00    -0.267 OA
BRANCH  13  16
HETATM   16  C   UNL     1       5.788  27.843  56.358  1.00  0.00     0.041 A 
HETATM   17  C   UNL     1       6.378  28.775  57.239  1.00  0.00    -0.035 A 
HETATM   18  C   UNL     1       5.718  29.991  57.507  1.00  0.00     0.015 A 
HETATM   19  C   UNL     1       7.698  28.521  57.918  1.00  0.00     0.050 C 
HETATM   20  C   UNL     1       4.480  30.289  56.929  1.00  0.00    -0.061 A 
HETATM   21  C   UNL     1       3.806  31.603  57.187  1.00  0.00     0.048 C 
HETATM   22  C   UNL     1       3.906  29.362  56.061  1.00  0.00     0.009 A 
HETATM   23  C   UNL     1       4.549  28.152  55.785  1.00  0.00     0.030 A 
ENDBRANCH  13  16
ENDBRANCH   1  12
BRANCH   2  24
HETATM   24  C   UNL     1       6.314  24.519  53.544  1.00  0.00    -0.028 A 
HETATM   25  C   UNL     1       4.985  24.741  53.153  1.00  0.00     0.012 A 
HETATM   26  C   UNL     1       4.693  25.590  52.081  1.00  0.00     0.037 A 
HETATM   27  C   UNL     1       5.712  26.253  51.394  1.00  0.00     0.068 A 
HETATM   28  C   UNL     1       7.033  26.056  51.785  1.00  0.00     0.037 A 
HETATM   29  C   UNL     1       7.331  25.198  52.850  1.00  0.00     0.012 A 
BRANCH  27  30
HETATM   30  O   UNL     1       5.286  27.058  50.373  1.00  0.00    -0.356 OA
HETATM   31  C   UNL     1       4.488  26.449  49.365  1.00  0.00     0.210 C 
ENDBRANCH  27  30
ENDBRANCH   2  24
TORSDOF 4
ENDMDL
MODEL 4
REMARK VINA RESULT:      -8.8      2.307      4.774
REMARK  4 active torsions:
REMARK  status: ('A' for Active; 'I' for Inactive)
REMARK    1  A    between atoms: C_6  and  N_7 
REMARK       I    between atoms: N_7  and  C_8 
REMARK    2  A    between atoms: C_8  and  C_9 
REMARK    3  A    between atoms: C_10  and  C_11 
REMARK    4  A    between atoms: C_14  and  O_15 
ROOT
HETATM    1  C   UNL     1       5.484  26.885  55.479  1.00  0.00     0.062 A 
HETATM    2  C   UNL     1       5.734  28.204  54.760  1.00  0.00     0.202 A 
HETATM    3  N   UNL     1       5.446  29.350  55.634  1.00  0.00    -0.084 N 
HETATM    4  C   UNL     1       4.992  29.239  56.921  1.00  0.00     0.725 A 
HETATM    5  N   UNL     1       4.772  28.017  57.441  1.00  0.00    -0.192 N 
HETATM    6  N   UNL     1       5.753  30.632  55.337  1.00  0.00    -0.149 NA
HETATM    7  C   UNL     1       5.342  31.247  56.453  1.00  0.00     0.275 A 
HETATM    8  N   UNL     1       4.884  30.429  57.452  1.00  0.00    -0.054 NA
HETATM    9  C   UNL     1       5.019  26.836  56.751  1.00  0.00     0.037 A 
HETATM   10  C   UNL     1       4.753  25.564  57.517  1.00  0.00     0.070 C 
HETATM   11  H   UNL     1       4.429  27.945  58.395  1.00  0.00     0.184 HD
ENDROOT
BRANCH   1  12
HETATM   12  C   UNL     1       5.680  25.632  54.706  1.00  0.00     0.256 C 
HETATM   13  N   UNL     1       6.855  24.985  55.019  1.00  0.00    -0.323 N 
HETATM   14  H   UNL     1       7.437  25.401  55.730  1.00  0.00     0.169 HD
HETATM   15  O   UNL     1       4.813  25.282  53.915  1.00  0.00    -0.267 OA
BRANCH  13  16
HETATM   16  C   UNL     1       7.328  23.758  54.486  1.00  0.00     0.041 A 
HETATM   17  C   UNL     1       7.815  23.731  53.161  1.00  0.00    -0.035 A 
HETATM   18  C   UNL     1       8.317  22.527  52.631  1.00  0.00     0.015 A 
HETATM   19  C   UNL     1       7.821  24.951  52.277  1.00  0.00     0.050 C 
HETATM   20  C   UNL     1       8.327  21.349  53.384  1.00  0.00    -0.061 A 
HETATM   21  C   UNL     1       8.901  20.081  52.825  1.00  0.00     0.048 C 
HETATM   22  C   UNL     1       7.843  21.385  54.690  1.00  0.00     0.009 A 
HETATM   23  C   UNL     1       7.344  22.574  55.231  1.00  0.00     0.030 A 
ENDBRANCH  13  16
ENDBRANCH   1  12
BRANCH   2  24
HETATM   24  C   UNL     1       5.007  28.365  53.429  1.00  0.00    -0.028 A 
HETATM   25  C   UNL     1       3.626  28.606  53.350  1.00  0.00     0.012 A 
HETATM   26  C   UNL     1       3.002  28.754  52.107  1.00  0.00     0.037 A 
HETATM   27  C   UNL     1       3.739  28.691  50.923  1.00  0.00     0.068 A 
HETATM   28  C   UNL     1       5.112  28.471  50.990  1.00  0.00     0.037 A 
HETATM   29  C   UNL     1       5.740  28.311  52.231  1.00  0.00     0.012 A 
BRANCH  27  30
HETATM   30  O   UNL     1       3.006  28.860  49.781  1.00  0.00    -0.356 OA
HETATM   31  C   UNL     1       3.202  27.905  48.745  1.00  0.00     0.210 C 
ENDBRANCH  27  30
ENDBRANCH   2  24
TORSDOF 4
ENDMDL
MODEL 5
REMARK VINA RESULT:      -8.8      1.646      2.275
REMARK  4 active torsions:
REMARK  status: ('A' for Active; 'I' for Inactive)
REMARK    1  A    between atoms: C_6  and  N_7 
REMARK       I    between atoms: N_7  and  C_8 
REMARK    2  A    between atoms: C_8  and  C_9 
REMARK    3  A    between atoms: C_10  and  C_11 
REMARK    4  A    between atoms: C_14  and  O_15 
ROOT
HETATM    1  C   UNL     1       5.526  28.500  53.990  1.00  0.00     0.062 A 
HETATM    2  C   UNL     1       4.976  28.848  55.367  1.00  0.00     0.202 A 
HETATM    3  N   UNL     1       4.035  29.975  55.295  1.00  0.00    -0.084 N 
HETATM    4  C   UNL     1       3.715  30.635  54.139  1.00  0.00     0.725 A 
HETATM    5  N   UNL     1       4.293  30.261  52.983  1.00  0.00    -0.192 N 
HETATM    6  N   UNL     1       3.250  30.380  56.318  1.00  0.00    -0.149 NA
HETATM    7  C   UNL     1       2.570  31.370  55.728  1.00  0.00     0.275 A 
HETATM    8  N   UNL     1       2.813  31.548  54.391  1.00  0.00    -0.054 NA
HETATM    9  C   UNL     1       5.184  29.200  52.881  1.00  0.00     0.037 A 
HETATM   10  C   UNL     1       5.694  28.904  51.492  1.00  0.00     0.070 C 
HETATM   11  H   UNL     1       4.054  30.762  52.131  1.00  0.00     0.184 HD
ENDROOT
BRANCH   1  12
HETATM   12  C   UNL     1       6.535  27.413  53.907  1.00  0.00     0.256 C 
HETATM   13  N   UNL     1       5.974  26.155  53.940  1.00  0.00    -0.323 N 
HETATM   14  H   UNL     1       4.968  26.099  53.996  1.00  0.00     0.169 HD
HETATM   15  O   UNL     1       7.718  27.710  53.796  1.00  0.00    -0.267 OA
BRANCH  13  16
HETATM   16  C   UNL     1       6.650  24.911  53.854  1.00  0.00     0.041 A 
HETATM   17  C   UNL     1       6.799  24.131  55.021  1.00  0.00    -0.035 A 
HETATM   18  C   UNL     1       7.440  22.880  54.943  1.00  0.00     0.015 A 
HETATM   19  C   UNL     1       6.296  24.586  56.366  1.00  0.00     0.050 C 
HETATM   20  C   UNL     1       7.951  22.398  53.733  1.00  0.00    -0.061 A 
HETATM   21  C   UNL     1       8.595  21.047  53.652  1.00  0.00     0.048 C 
HETATM   22  C   UNL     1       7.800  23.176  52.586  1.00  0.00     0.009 A 
HETATM   23  C   UNL     1       7.163  24.419  52.648  1.00  0.00     0.030 A 
ENDBRANCH  13  16
ENDBRANCH   1  12
BRANCH   2  24
HETATM   24  C   UNL     1       6.028  29.113  56.438  1.00  0.00    -0.028 A 
HETATM   25  C   UNL     1       6.404  30.410  56.820  1.00  0.00     0.012 A 
HETATM   26  C   UNL     1       7.370  30.606  57.813  1.00  0.00     0.037 A 
HETATM   27  C   UNL     1       7.961  29.520  58.461  1.00  0.00     0.068 A 
HETATM   28  C   UNL     1       7.582  28.229  58.105  1.00  0.00     0.037 A 
HETATM   29  C   UNL     1       6.625  28.028  57.104  1.00  0.00     0.012 A 
BRANCH  27  30
HETATM   30  O   UNL     1       8.882  29.854  59.416  1.00  0.00    -0.356 OA
HETATM   31  C   UNL     1       8.676  31.082  60.104  1.00  0.00     0.210 C 
ENDBRANCH  27  30
ENDBRANCH   2  24
TORSDOF 4
ENDMDL
MODEL 6
REMARK VINA RESULT:      -8.7      1.469      2.344
REMARK  4 active torsions:
REMARK  status: ('A' for Active; 'I' for Inactive)
REMARK    1  A    between atoms: C_6  and  N_7 
REMARK       I    between atoms: N_7  and  C_8 
REMARK    2  A    between atoms: C_8  and  C_9 
REMARK    3  A    between atoms: C_10  and  C_11 
REMARK    4  A    between atoms: C_14  and  O_15 
ROOT
HETATM    1  C   UNL     1       5.104  26.735  54.564  1.00  0.00     0.062 A 
HETATM    2  C   UNL     1       5.164  28.073  55.288  1.00  0.00     0.202 A 
HETATM    3  N   UNL     1       4.674  29.164  54.434  1.00  0.00    -0.084 N 
HETATM    4  C   UNL     1       4.241  28.995  53.146  1.00  0.00     0.725 A 
HETATM    5  N   UNL     1       4.267  27.767  52.596  1.00  0.00    -0.192 N 
HETATM    6  N   UNL     1       4.433  30.422  54.866  1.00  0.00    -0.149 NA
HETATM    7  C   UNL     1       3.966  30.981  53.743  1.00  0.00     0.275 A 
HETATM    8  N   UNL     1       3.819  30.139  52.672  1.00  0.00    -0.054 NA
HETATM    9  C   UNL     1       4.679  26.630  53.281  1.00  0.00     0.037 A 
HETATM   10  C   UNL     1       4.596  25.336  52.510  1.00  0.00     0.070 C 
HETATM   11  H   UNL     1       3.950  27.653  51.637  1.00  0.00     0.184 HD
ENDROOT
BRANCH   1  12
HETATM   12  C   UNL     1       5.618  25.540  55.281  1.00  0.00     0.256 C 
HETATM   13  N   UNL     1       6.634  24.901  54.604  1.00  0.00    -0.323 N 
HETATM   14  H   UNL     1       6.930  25.305  53.728  1.00  0.00     0.169 HD
HETATM   15  O   UNL     1       5.139  25.252  56.371  1.00  0.00    -0.267 OA
BRANCH  13  16
HETATM   16  C   UNL     1       7.356  23.755  55.022  1.00  0.00     0.041 A 
HETATM   17  C   UNL     1       7.843  22.860  54.045  1.00  0.00    -0.035 A 
HETATM   18  C   UNL     1       8.589  21.734  54.445  1.00  0.00     0.015 A 
HETATM   19  C   UNL     1       7.596  23.059  52.572  1.00  0.00     0.050 C 
HETATM   20  C   UNL     1       8.844  21.473  55.795  1.00  0.00    -0.061 A 
HETATM   21  C   UNL     1       9.674  20.294  56.209  1.00  0.00     0.048 C 
HETATM   22  C   UNL     1       8.357  22.361  56.752  1.00  0.00     0.009 A 
HETATM   23  C   UNL     1       7.617  23.484  56.370  1.00  0.00     0.030 A 
ENDBRANCH  13  16
ENDBRANCH   1  12
BRANCH   2  24
HETATM   24  C   UNL     1       6.527  28.435  55.870  1.00  0.00    -0.028 A 
HETATM   25  C   UNL     1       6.755  28.526  57.251  1.00  0.00     0.012 A 
HETATM   26  C   UNL     1       8.024  28.855  57.740  1.00  0.00     0.037 A 
HETATM   27  C   UNL     1       9.093  29.074  56.870  1.00  0.00     0.068 A 
HETATM   28  C   UNL     1       8.883  28.968  55.497  1.00  0.00     0.037 A 
HETATM   29  C   UNL     1       7.612  28.651  55.003  1.00  0.00     0.012 A 
BRANCH  27  30
HETATM   30  O   UNL     1      10.278  29.379  57.481  1.00  0.00    -0.356 OA
HETATM   31  C   UNL     1      10.591  30.760  57.621  1.00  0.00     0.210 C 
ENDBRANCH  27  30
ENDBRANCH   2  24
TORSDOF 4
ENDMDL
MODEL 7
REMARK VINA RESULT:      -8.7      4.285      8.942
REMARK  4 active torsions:
REMARK  status: ('A' for Active; 'I' for Inactive)
REMARK    1  A    between atoms: C_6  and  N_7 
REMARK       I    between atoms: N_7  and  C_8 
REMARK    2  A    between atoms: C_8  and  C_9 
REMARK    3  A    between atoms: C_10  and  C_11 
REMARK    4  A    between atoms: C_14  and  O_15 
ROOT
HETATM    1  C   UNL     1       7.627  30.105  58.126  1.00  0.00     0.062 A 
HETATM    2  C   UNL     1       6.367  29.394  57.654  1.00  0.00     0.202 A 
HETATM    3  N   UNL     1       6.673  28.401  56.614  1.00  0.00    -0.084 N 
HETATM    4  C   UNL     1       7.930  28.166  56.124  1.00  0.00     0.725 A 
HETATM    5  N   UNL     1       8.967  28.884  56.593  1.00  0.00    -0.192 N 
HETATM    6  N   UNL     1       5.791  27.491  56.144  1.00  0.00    -0.149 NA
HETATM    7  C   UNL     1       6.566  26.819  55.285  1.00  0.00     0.275 A 
HETATM    8  N   UNL     1       7.885  27.191  55.253  1.00  0.00    -0.054 NA
HETATM    9  C   UNL     1       8.845  29.841  57.592  1.00  0.00     0.037 A 
HETATM   10  C   UNL     1      10.129  30.511  58.017  1.00  0.00     0.070 C 
HETATM   11  H   UNL     1       9.895  28.707  56.218  1.00  0.00     0.184 HD
ENDROOT
BRANCH   1  12
HETATM   12  C   UNL     1       7.472  31.179  59.141  1.00  0.00     0.256 C 
HETATM   13  N   UNL     1       7.427  30.698  60.431  1.00  0.00    -0.323 N 
HETATM   14  H   UNL     1       7.519  29.701  60.556  1.00  0.00     0.169 HD
HETATM   15  O   UNL     1       7.427  32.345  58.767  1.00  0.00    -0.267 OA
BRANCH  13  16
HETATM   16  C   UNL     1       7.313  31.454  61.625  1.00  0.00     0.041 A 
HETATM   17  C   UNL     1       8.481  31.993  62.207  1.00  0.00    -0.035 A 
HETATM   18  C   UNL     1       8.378  32.772  63.376  1.00  0.00     0.015 A 
HETATM   19  C   UNL     1       9.852  31.767  61.625  1.00  0.00     0.050 C 
HETATM   20  C   UNL     1       7.142  33.010  63.985  1.00  0.00    -0.061 A 
HETATM   21  C   UNL     1       7.038  33.875  65.206  1.00  0.00     0.048 C 
HETATM   22  C   UNL     1       5.995  32.473  63.404  1.00  0.00     0.009 A 
HETATM   23  C   UNL     1       6.081  31.699  62.242  1.00  0.00     0.030 A 
ENDBRANCH  13  16
ENDBRANCH   1  12
BRANCH   2  24
HETATM   24  C   UNL     1       5.241  30.311  57.186  1.00  0.00    -0.028 A 
HETATM   25  C   UNL     1       4.085  30.532  57.950  1.00  0.00     0.012 A 
HETATM   26  C   UNL     1       3.081  31.387  57.484  1.00  0.00     0.037 A 
HETATM   27  C   UNL     1       3.216  32.056  56.266  1.00  0.00     0.068 A 
HETATM   28  C   UNL     1       4.367  31.858  55.508  1.00  0.00     0.037 A 
HETATM   29  C   UNL     1       5.370  30.995  55.965  1.00  0.00     0.012 A 
BRANCH  27  30
HETATM   30  O   UNL     1       2.164  32.866  55.936  1.00  0.00    -0.356 OA
HETATM   31  C   UNL     1       1.786  32.900  54.565  1.00  0.00     0.210 C 
ENDBRANCH  27  30
ENDBRANCH   2  24
TORSDOF 4
ENDMDL
MODEL 8
REMARK VINA RESULT:      -8.4      4.328      8.902
REMARK  4 active torsions:
REMARK  status: ('A' for Active; 'I' for Inactive)
REMARK    1  A    between atoms: C_6  and  N_7 
REMARK       I    between atoms: N_7  and  C_8 
REMARK    2  A    between atoms: C_8  and  C_9 
REMARK    3  A    between atoms: C_10  and  C_11 
REMARK    4  A    between atoms: C_14  and  O_15 
ROOT
HETATM    1  C   UNL     1       8.059  30.081  58.054  1.00  0.00     0.062 A 
HETATM    2  C   UNL     1       6.691  29.474  57.771  1.00  0.00     0.202 A 
HETATM    3  N   UNL     1       6.772  28.444  56.726  1.00  0.00    -0.084 N 
HETATM    4  C   UNL     1       7.927  28.095  56.080  1.00  0.00     0.725 A 
HETATM    5  N   UNL     1       9.074  28.728  56.389  1.00  0.00    -0.192 N 
HETATM    6  N   UNL     1       5.762  27.607  56.401  1.00  0.00    -0.149 NA
HETATM    7  C   UNL     1       6.356  26.859  55.464  1.00  0.00     0.275 A 
HETATM    8  N   UNL     1       7.685  27.115  55.248  1.00  0.00    -0.054 NA
HETATM    9  C   UNL     1       9.168  29.706  57.371  1.00  0.00     0.037 A 
HETATM   10  C   UNL     1      10.548  30.269  57.605  1.00  0.00     0.070 C 
HETATM   11  H   UNL     1       9.925  28.466  55.899  1.00  0.00     0.184 HD
ENDROOT
BRANCH   1  12
HETATM   12  C   UNL     1       8.131  31.179  59.053  1.00  0.00     0.256 C 
HETATM   13  N   UNL     1       7.501  30.871  60.238  1.00  0.00    -0.323 N 
HETATM   14  H   UNL     1       7.083  29.955  60.315  1.00  0.00     0.169 HD
HETATM   15  O   UNL     1       8.737  32.203  58.764  1.00  0.00    -0.267 OA
BRANCH  13  16
HETATM   16  C   UNL     1       7.410  31.681  61.398  1.00  0.00     0.041 A 
HETATM   17  C   UNL     1       6.407  32.673  61.462  1.00  0.00    -0.035 A 
HETATM   18  C   UNL     1       6.286  33.464  62.621  1.00  0.00     0.015 A 
HETATM   19  C   UNL     1       5.449  32.928  60.328  1.00  0.00     0.050 C 
HETATM   20  C   UNL     1       7.151  33.299  63.708  1.00  0.00    -0.061 A 
HETATM   21  C   UNL     1       6.988  34.118  64.954  1.00  0.00     0.048 C 
HETATM   22  C   UNL     1       8.138  32.318  63.635  1.00  0.00     0.009 A 
HETATM   23  C   UNL     1       8.269  31.524  62.492  1.00  0.00     0.030 A 
ENDBRANCH  13  16
ENDBRANCH   1  12
BRANCH   2  24
HETATM   24  C   UNL     1       5.593  30.478  57.434  1.00  0.00    -0.028 A 
HETATM   25  C   UNL     1       5.758  31.474  56.459  1.00  0.00     0.012 A 
HETATM   26  C   UNL     1       4.720  32.369  56.178  1.00  0.00     0.037 A 
HETATM   27  C   UNL     1       3.495  32.276  56.839  1.00  0.00     0.068 A 
HETATM   28  C   UNL     1       3.313  31.280  57.795  1.00  0.00     0.037 A 
HETATM   29  C   UNL     1       4.352  30.389  58.088  1.00  0.00     0.012 A 
BRANCH  27  30
HETATM   30  O   UNL     1       2.567  33.208  56.462  1.00  0.00    -0.356 OA
HETATM   31  C   UNL     1       2.052  33.101  55.140  1.00  0.00     0.210 C 
ENDBRANCH  27  30
ENDBRANCH   2  24
TORSDOF 4
ENDMDL
MODEL 9
REMARK VINA RESULT:      -8.4      2.330      5.436
REMARK  4 active torsions:
REMARK  status: ('A' for Active; 'I' for Inactive)
REMARK    1  A    between atoms: C_6  and  N_7 
REMARK       I    between atoms: N_7  and  C_8 
REMARK    2  A    between atoms: C_8  and  C_9 
REMARK    3  A    between atoms: C_10  and  C_11 
REMARK    4  A    between atoms: C_14  and  O_15 
ROOT
HETATM    1  C   UNL     1       5.057  28.410  52.515  1.00  0.00     0.062 A 
HETATM    2  C   UNL     1       5.288  28.981  51.123  1.00  0.00     0.202 A 
HETATM    3  N   UNL     1       5.040  30.430  51.093  1.00  0.00    -0.084 N 
HETATM    4  C   UNL     1       4.635  31.161  52.177  1.00  0.00     0.725 A 
HETATM    5  N   UNL     1       4.427  30.540  53.353  1.00  0.00    -0.192 N 
HETATM    6  N   UNL     1       5.345  31.235  50.051  1.00  0.00    -0.149 NA
HETATM    7  C   UNL     1       4.981  32.424  50.545  1.00  0.00     0.275 A 
HETATM    8  N   UNL     1       4.555  32.425  51.848  1.00  0.00    -0.054 NA
HETATM    9  C   UNL     1       4.640  29.182  53.549  1.00  0.00     0.037 A 
HETATM   10  C   UNL     1       4.395  28.676  54.949  1.00  0.00     0.070 C 
HETATM   11  H   UNL     1       4.119  31.091  54.150  1.00  0.00     0.184 HD
ENDROOT
BRANCH   1  12
HETATM   12  C   UNL     1       5.215  26.944  52.692  1.00  0.00     0.256 C 
HETATM   13  N   UNL     1       6.492  26.581  53.063  1.00  0.00    -0.323 N 
HETATM   14  H   UNL     1       7.164  27.323  53.190  1.00  0.00     0.169 HD
HETATM   15  O   UNL     1       4.242  26.219  52.530  1.00  0.00    -0.267 OA
BRANCH  13  16
HETATM   16  C   UNL     1       6.968  25.274  53.337  1.00  0.00     0.041 A 
HETATM   17  C   UNL     1       6.807  24.747  54.637  1.00  0.00    -0.035 A 
HETATM   18  C   UNL     1       7.247  23.438  54.914  1.00  0.00     0.015 A 
HETATM   19  C   UNL     1       6.180  25.535  55.756  1.00  0.00     0.050 C 
HETATM   20  C   UNL     1       7.856  22.652  53.931  1.00  0.00    -0.061 A 
HETATM   21  C   UNL     1       8.283  21.244  54.224  1.00  0.00     0.048 C 
HETATM   22  C   UNL     1       8.011  23.181  52.651  1.00  0.00     0.009 A 
HETATM   23  C   UNL     1       7.578  24.478  52.361  1.00  0.00     0.030 A 
ENDBRANCH  13  16
ENDBRANCH   1  12
BRANCH   2  24
HETATM   24  C   UNL     1       4.512  28.295  50.003  1.00  0.00    -0.028 A 
HETATM   25  C   UNL     1       3.123  28.431  49.857  1.00  0.00     0.012 A 
HETATM   26  C   UNL     1       2.454  27.789  48.810  1.00  0.00     0.037 A 
HETATM   27  C   UNL     1       3.153  27.021  47.877  1.00  0.00     0.068 A 
HETATM   28  C   UNL     1       4.534  26.894  48.000  1.00  0.00     0.037 A 
HETATM   29  C   UNL     1       5.206  27.526  49.053  1.00  0.00     0.012 A 
BRANCH  27  30
HETATM   30  O   UNL     1       2.377  26.456  46.902  1.00  0.00    -0.356 OA
HETATM   31  C   UNL     1       1.093  27.031  46.691  1.00  0.00     0.210 C 
ENDBRANCH  27  30
ENDBRANCH   2  24
TORSDOF 4
ENDMDL
MODEL 10
REMARK VINA RESULT:      -8.0      2.374      5.491
REMARK  4 active torsions:
REMARK  status: ('A' for Active; 'I' for Inactive)
REMARK    1  A    between atoms: C_6  and  N_7 
REMARK       I    between atoms: N_7  and  C_8 
REMARK    2  A    between atoms: C_8  and  C_9 
REMARK    3  A    between atoms: C_10  and  C_11 
REMARK    4  A    between atoms: C_14  and  O_15 
ROOT
HETATM    1  C   UNL     1       4.790  29.488  53.012  1.00  0.00     0.062 A 
HETATM    2  C   UNL     1       4.753  30.138  51.636  1.00  0.00     0.202 A 
HETATM    3  N   UNL     1       3.716  31.178  51.566  1.00  0.00    -0.084 N 
HETATM    4  C   UNL     1       2.882  31.500  52.602  1.00  0.00     0.725 A 
HETATM    5  N   UNL     1       2.983  30.831  53.765  1.00  0.00    -0.192 N 
HETATM    6  N   UNL     1       3.577  32.048  50.541  1.00  0.00    -0.149 NA
HETATM    7  C   UNL     1       2.556  32.790  50.987  1.00  0.00     0.275 A 
HETATM    8  N   UNL     1       2.111  32.497  52.250  1.00  0.00    -0.054 NA
HETATM    9  C   UNL     1       3.927  29.839  53.997  1.00  0.00     0.037 A 
HETATM   10  C   UNL     1       3.915  29.233  55.379  1.00  0.00     0.070 C 
HETATM   11  H   UNL     1       2.354  31.073  54.526  1.00  0.00     0.184 HD
ENDROOT
BRANCH   1  12
HETATM   12  C   UNL     1       5.754  28.377  53.222  1.00  0.00     0.256 C 
HETATM   13  N   UNL     1       5.138  27.178  53.507  1.00  0.00    -0.323 N 
HETATM   14  H   UNL     1       4.129  27.169  53.525  1.00  0.00     0.169 HD
HETATM   15  O   UNL     1       6.952  28.602  53.105  1.00  0.00    -0.267 OA
BRANCH  13  16
HETATM   16  C   UNL     1       5.763  25.925  53.732  1.00  0.00     0.041 A 
HETATM   17  C   UNL     1       6.194  25.166  52.622  1.00  0.00    -0.035 A 
HETATM   18  C   UNL     1       6.844  23.934  52.833  1.00  0.00     0.015 A 
HETATM   19  C   UNL     1       5.984  25.622  51.202  1.00  0.00     0.050 C 
HETATM   20  C   UNL     1       7.057  23.436  54.122  1.00  0.00    -0.061 A 
HETATM   21  C   UNL     1       7.787  22.144  54.339  1.00  0.00     0.048 C 
HETATM   22  C   UNL     1       6.627  24.192  55.212  1.00  0.00     0.009 A 
HETATM   23  C   UNL     1       5.983  25.417  55.018  1.00  0.00     0.030 A 
ENDBRANCH  13  16
ENDBRANCH   1  12
BRANCH   2  24
HETATM   24  C   UNL     1       4.604  29.172  50.465  1.00  0.00    -0.028 A 
HETATM   25  C   UNL     1       3.457  28.386  50.279  1.00  0.00     0.012 A 
HETATM   26  C   UNL     1       3.361  27.518  49.187  1.00  0.00     0.037 A 
HETATM   27  C   UNL     1       4.390  27.431  48.248  1.00  0.00     0.068 A 
HETATM   28  C   UNL     1       5.526  28.220  48.411  1.00  0.00     0.037 A 
HETATM   29  C   UNL     1       5.631  29.082  49.509  1.00  0.00     0.012 A 
BRANCH  27  30
HETATM   30  O   UNL     1       4.163  26.550  47.227  1.00  0.00    -0.356 OA
HETATM   31  C   UNL     1       3.151  25.573  47.436  1.00  0.00     0.210 C 
ENDBRANCH  27  30
ENDBRANCH   2  24
TORSDOF 4
ENDMDL
