MODEL 1
REMARK VINA RESULT:     -10.0      0.000      0.000
REMARK  5 active torsions:
REMARK  status: ('A' for Active; 'I' for Inactive)
REMARK    1  A    between atoms: C_4  and  C_5 
REMARK       I    between atoms: N_6  and  C_7 
REMARK    2  A    between atoms: C_7  and  C_8 
REMARK    3  A    between atoms: C_8  and  C_9 
REMARK    4  A    between atoms: C_11  and  O_12 
REMARK    5  A    between atoms: C_14  and  O_15 
ROOT
HETATM    1  C   UNL     1       7.224  26.323  53.775  1.00  0.00     0.189 C 
HETATM    2  N   UNL     1       6.849  26.932  55.079  1.00  0.00    -0.336 N 
HETATM    3  C   UNL     1       5.505  26.984  55.458  1.00  0.00     0.225 C 
HETATM    4  O   UNL     1       4.579  26.615  54.734  1.00  0.00    -0.273 OA
HETATM    5  C   UNL     1       7.907  26.769  56.099  1.00  0.00     0.132 C 
HETATM    6  C   UNL     1       8.053  25.283  56.511  1.00  0.00     0.061 C 
HETATM    7  C   UNL     1       7.910  24.389  55.318  1.00  0.00    -0.019 A 
HETATM    8  C   UNL     1       7.508  24.869  54.080  1.00  0.00     0.046 A 
HETATM    9  N   UNL     1       7.501  23.815  53.207  1.00  0.00    -0.356 N 
HETATM   10  H   UNL     1       7.282  23.866  52.220  1.00  0.00     0.166 HD
HETATM   11  C   UNL     1       7.793  22.647  53.881  1.00  0.00     0.043 A 
HETATM   12  C   UNL     1       8.070  22.984  55.208  1.00  0.00    -0.001 A 
HETATM   13  C   UNL     1       7.832  21.325  53.420  1.00  0.00     0.030 A 
HETATM   14  C   UNL     1       8.164  20.326  54.341  1.00  0.00     0.002 A 
HETATM   15  C   UNL     1       8.451  20.636  55.668  1.00  0.00     0.001 A 
HETATM   16  C   UNL     1       8.410  21.961  56.114  1.00  0.00     0.014 A 
ENDROOT
BRANCH   1  17
HETATM   17  C   UNL     1       6.400  26.697  52.545  1.00  0.00     0.063 A 
HETATM   18  N   UNL     1       6.236  28.035  52.322  1.00  0.00    -0.256 NA
HETATM   19  C   UNL     1       5.506  28.432  51.253  1.00  0.00     0.031 A 
HETATM   20  C   UNL     1       5.313  29.906  51.061  1.00  0.00     0.070 C 
HETATM   21  C   UNL     1       4.937  27.532  50.360  1.00  0.00     0.027 A 
HETATM   22  C   UNL     1       5.110  26.173  50.585  1.00  0.00     0.004 A 
HETATM   23  C   UNL     1       5.841  25.748  51.690  1.00  0.00     0.030 A 
ENDBRANCH   1  17
BRANCH   3  24
HETATM   24  C   UNL     1       5.164  27.508  56.848  1.00  0.00     0.141 C 
BRANCH  24  25
HETATM   25  C   UNL     1       5.270  29.004  57.042  1.00  0.00    -0.047 A 
HETATM   26  C   UNL     1       6.365  29.596  57.688  1.00  0.00     0.047 A 
HETATM   27  C   UNL     1       6.441  30.986  57.850  1.00  0.00     0.102 A 
HETATM   28  C   UNL     1       5.422  31.804  57.324  1.00  0.00     0.101 A 
HETATM   29  C   UNL     1       4.347  31.217  56.651  1.00  0.00     0.040 A 
HETATM   30  C   UNL     1       4.275  29.830  56.508  1.00  0.00     0.010 A 
BRANCH  27  31
HETATM   31  O   UNL     1       7.469  31.633  58.491  1.00  0.00    -0.353 OA
HETATM   32  C   UNL     1       8.141  30.925  59.525  1.00  0.00     0.210 C 
ENDBRANCH  27  31
BRANCH  28  33
HETATM   33  O   UNL     1       5.568  33.156  57.517  1.00  0.00    -0.353 OA
HETATM   34  C   UNL     1       4.476  33.992  57.162  1.00  0.00     0.210 C 
ENDBRANCH  28  33
ENDBRANCH  24  25
ENDBRANCH   3  24
TORSDOF 5
ENDMDL
MODEL 2
REMARK VINA RESULT:      -9.8      2.669      6.036
REMARK  5 active torsions:
REMARK  status: ('A' for Active; 'I' for Inactive)
REMARK    1  A    between atoms: C_4  and  C_5 
REMARK       I    between atoms: N_6  and  C_7 
REMARK    2  A    between atoms: C_7  and  C_8 
REMARK    3  A    between atoms: C_8  and  C_9 
REMARK    4  A    between atoms: C_11  and  O_12 
REMARK    5  A    between atoms: C_14  and  O_15 
ROOT
HETATM    1  C   UNL     1       5.400  26.385  54.724  1.00  0.00     0.189 C 
HETATM    2  N   UNL     1       5.078  26.765  53.321  1.00  0.00    -0.336 N 
HETATM    3  C   UNL     1       5.864  27.715  52.665  1.00  0.00     0.225 C 
HETATM    4  O   UNL     1       6.784  28.330  53.206  1.00  0.00    -0.273 OA
HETATM    5  C   UNL     1       4.464  25.652  52.566  1.00  0.00     0.132 C 
HETATM    6  C   UNL     1       5.489  24.516  52.325  1.00  0.00     0.061 C 
HETATM    7  C   UNL     1       6.350  24.317  53.534  1.00  0.00    -0.019 A 
HETATM    8  C   UNL     1       6.320  25.189  54.613  1.00  0.00     0.046 A 
HETATM    9  N   UNL     1       7.196  24.720  55.553  1.00  0.00    -0.356 N 
HETATM   10  H   UNL     1       7.364  25.129  56.463  1.00  0.00     0.166 HD
HETATM   11  C   UNL     1       7.865  23.618  55.060  1.00  0.00     0.043 A 
HETATM   12  C   UNL     1       7.339  23.336  53.796  1.00  0.00    -0.001 A 
HETATM   13  C   UNL     1       8.891  22.855  55.631  1.00  0.00     0.030 A 
HETATM   14  C   UNL     1       9.389  21.777  54.891  1.00  0.00     0.002 A 
HETATM   15  C   UNL     1       8.876  21.470  53.633  1.00  0.00     0.001 A 
HETATM   16  C   UNL     1       7.850  22.240  53.075  1.00  0.00     0.014 A 
ENDROOT
BRANCH   1  17
HETATM   17  C   UNL     1       5.718  27.502  55.714  1.00  0.00     0.063 A 
HETATM   18  N   UNL     1       7.024  27.604  56.100  1.00  0.00    -0.256 NA
HETATM   19  C   UNL     1       7.368  28.569  56.985  1.00  0.00     0.031 A 
HETATM   20  C   UNL     1       8.802  28.626  57.417  1.00  0.00     0.070 C 
HETATM   21  C   UNL     1       6.449  29.476  57.497  1.00  0.00     0.027 A 
HETATM   22  C   UNL     1       5.123  29.376  57.099  1.00  0.00     0.004 A 
HETATM   23  C   UNL     1       4.749  28.377  56.205  1.00  0.00     0.030 A 
ENDBRANCH   1  17
BRANCH   3  24
HETATM   24  C   UNL     1       5.581  27.998  51.194  1.00  0.00     0.141 C 
BRANCH  24  25
HETATM   25  C   UNL     1       4.308  28.756  50.892  1.00  0.00    -0.047 A 
HETATM   26  C   UNL     1       3.405  28.334  49.905  1.00  0.00     0.047 A 
HETATM   27  C   UNL     1       2.229  29.053  49.650  1.00  0.00     0.102 A 
HETATM   28  C   UNL     1       1.931  30.195  50.419  1.00  0.00     0.101 A 
HETATM   29  C   UNL     1       2.813  30.597  51.426  1.00  0.00     0.040 A 
HETATM   30  C   UNL     1       3.989  29.881  51.662  1.00  0.00     0.010 A 
BRANCH  27  31
HETATM   31  O   UNL     1       1.312  28.714  48.686  1.00  0.00    -0.353 OA
HETATM   32  C   UNL     1       1.341  27.379  48.198  1.00  0.00     0.210 C 
ENDBRANCH  27  31
BRANCH  28  33
HETATM   33  O   UNL     1       0.759  30.843  50.115  1.00  0.00    -0.353 OA
HETATM   34  C   UNL     1       0.655  32.214  50.471  1.00  0.00     0.210 C 
ENDBRANCH  28  33
ENDBRANCH  24  25
ENDBRANCH   3  24
TORSDOF 5
ENDMDL
MODEL 3
REMARK VINA RESULT:      -9.6      2.414      5.248
REMARK  5 active torsions:
REMARK  status: ('A' for Active; 'I' for Inactive)
REMARK    1  A    between atoms: C_4  and  C_5 
REMARK       I    between atoms: N_6  and  C_7 
REMARK    2  A    between atoms: C_7  and  C_8 
REMARK    3  A    between atoms: C_8  and  C_9 
REMARK    4  A    between atoms: C_11  and  O_12 
REMARK    5  A    between atoms: C_14  and  O_15 
ROOT
HETATM    1  C   UNL     1       5.650  26.478  54.957  1.00  0.00     0.189 C 
HETATM    2  N   UNL     1       5.221  26.875  53.589  1.00  0.00    -0.336 N 
HETATM    3  C   UNL     1       5.979  27.801  52.868  1.00  0.00     0.225 C 
HETATM    4  O   UNL     1       6.964  28.382  53.328  1.00  0.00    -0.273 OA
HETATM    5  C   UNL     1       4.506  25.787  52.888  1.00  0.00     0.132 C 
HETATM    6  C   UNL     1       5.466  24.618  52.557  1.00  0.00     0.061 C 
HETATM    7  C   UNL     1       6.422  24.385  53.686  1.00  0.00    -0.019 A 
HETATM    8  C   UNL     1       6.516  25.253  54.765  1.00  0.00     0.046 A 
HETATM    9  N   UNL     1       7.454  24.749  55.624  1.00  0.00    -0.356 N 
HETATM   10  H   UNL     1       7.714  25.149  56.517  1.00  0.00     0.166 HD
HETATM   11  C   UNL     1       8.039  23.627  55.073  1.00  0.00     0.043 A 
HETATM   12  C   UNL     1       7.396  23.369  53.860  1.00  0.00    -0.001 A 
HETATM   13  C   UNL     1       9.084  22.827  55.552  1.00  0.00     0.030 A 
HETATM   14  C   UNL     1       9.478  21.736  54.770  1.00  0.00     0.002 A 
HETATM   15  C   UNL     1       8.848  21.452  53.560  1.00  0.00     0.001 A 
HETATM   16  C   UNL     1       7.804  22.259  53.095  1.00  0.00     0.014 A 
ENDROOT
BRANCH   1  17
HETATM   17  C   UNL     1       6.091  27.580  55.918  1.00  0.00     0.063 A 
HETATM   18  N   UNL     1       7.438  27.695  56.117  1.00  0.00    -0.256 NA
HETATM   19  C   UNL     1       7.892  28.647  56.966  1.00  0.00     0.031 A 
HETATM   20  C   UNL     1       9.372  28.718  57.191  1.00  0.00     0.070 C 
HETATM   21  C   UNL     1       7.043  29.528  57.624  1.00  0.00     0.027 A 
HETATM   22  C   UNL     1       5.675  29.414  57.417  1.00  0.00     0.004 A 
HETATM   23  C   UNL     1       5.191  28.428  56.561  1.00  0.00     0.030 A 
ENDBRANCH   1  17
BRANCH   3  24
HETATM   24  C   UNL     1       5.579  28.100  51.427  1.00  0.00     0.141 C 
BRANCH  24  25
HETATM   25  C   UNL     1       5.213  29.535  51.120  1.00  0.00    -0.047 A 
HETATM   26  C   UNL     1       4.345  30.274  51.937  1.00  0.00     0.047 A 
HETATM   27  C   UNL     1       4.027  31.604  51.632  1.00  0.00     0.102 A 
HETATM   28  C   UNL     1       4.615  32.221  50.510  1.00  0.00     0.101 A 
HETATM   29  C   UNL     1       5.507  31.495  49.715  1.00  0.00     0.040 A 
HETATM   30  C   UNL     1       5.806  30.166  50.021  1.00  0.00     0.010 A 
BRANCH  27  31
HETATM   31  O   UNL     1       3.168  32.381  52.370  1.00  0.00    -0.353 OA
HETATM   32  C   UNL     1       2.917  31.981  53.711  1.00  0.00     0.210 C 
ENDBRANCH  27  31
BRANCH  28  33
HETATM   33  O   UNL     1       4.260  33.527  50.278  1.00  0.00    -0.353 OA
HETATM   34  C   UNL     1       5.223  34.370  49.664  1.00  0.00     0.210 C 
ENDBRANCH  28  33
ENDBRANCH  24  25
ENDBRANCH   3  24
TORSDOF 5
ENDMDL
MODEL 4
REMARK VINA RESULT:      -9.5      1.927      2.574
REMARK  5 active torsions:
REMARK  status: ('A' for Active; 'I' for Inactive)
REMARK    1  A    between atoms: C_4  and  C_5 
REMARK       I    between atoms: N_6  and  C_7 
REMARK    2  A    between atoms: C_7  and  C_8 
REMARK    3  A    between atoms: C_8  and  C_9 
REMARK    4  A    between atoms: C_11  and  O_12 
REMARK    5  A    between atoms: C_14  and  O_15 
ROOT
HETATM    1  C   UNL     1       6.491  27.971  53.010  1.00  0.00     0.189 C 
HETATM    2  N   UNL     1       5.902  28.469  54.283  1.00  0.00    -0.336 N 
HETATM    3  C   UNL     1       4.536  28.300  54.525  1.00  0.00     0.225 C 
HETATM    4  O   UNL     1       3.753  27.820  53.705  1.00  0.00    -0.273 OA
HETATM    5  C   UNL     1       6.870  28.433  55.400  1.00  0.00     0.132 C 
HETATM    6  C   UNL     1       7.206  26.974  55.794  1.00  0.00     0.061 C 
HETATM    7  C   UNL     1       7.320  26.111  54.575  1.00  0.00    -0.019 A 
HETATM    8  C   UNL     1       6.968  26.568  53.312  1.00  0.00     0.046 A 
HETATM    9  N   UNL     1       7.210  25.558  52.421  1.00  0.00    -0.356 N 
HETATM   10  H   UNL     1       7.081  25.610  51.419  1.00  0.00     0.166 HD
HETATM   11  C   UNL     1       7.615  24.425  53.097  1.00  0.00     0.043 A 
HETATM   12  C   UNL     1       7.707  24.753  54.452  1.00  0.00    -0.001 A 
HETATM   13  C   UNL     1       7.904  23.142  52.616  1.00  0.00     0.030 A 
HETATM   14  C   UNL     1       8.297  22.173  53.544  1.00  0.00     0.002 A 
HETATM   15  C   UNL     1       8.404  22.476  54.900  1.00  0.00     0.001 A 
HETATM   16  C   UNL     1       8.114  23.762  55.367  1.00  0.00     0.014 A 
ENDROOT
BRANCH   1  17
HETATM   17  C   UNL     1       5.740  28.259  51.712  1.00  0.00     0.063 A 
HETATM   18  N   UNL     1       5.303  27.165  51.021  1.00  0.00    -0.256 NA
HETATM   19  C   UNL     1       4.639  27.353  49.856  1.00  0.00     0.031 A 
HETATM   20  C   UNL     1       4.208  26.130  49.105  1.00  0.00     0.070 C 
HETATM   21  C   UNL     1       4.363  28.617  49.349  1.00  0.00     0.027 A 
HETATM   22  C   UNL     1       4.803  29.728  50.055  1.00  0.00     0.004 A 
HETATM   23  C   UNL     1       5.504  29.550  51.245  1.00  0.00     0.030 A 
ENDBRANCH   1  17
BRANCH   3  24
HETATM   24  C   UNL     1       3.985  28.715  55.885  1.00  0.00     0.141 C 
BRANCH  24  25
HETATM   25  C   UNL     1       3.679  30.185  56.060  1.00  0.00    -0.047 A 
HETATM   26  C   UNL     1       3.633  30.791  57.325  1.00  0.00     0.047 A 
HETATM   27  C   UNL     1       3.352  32.158  57.458  1.00  0.00     0.102 A 
HETATM   28  C   UNL     1       3.149  32.943  56.306  1.00  0.00     0.101 A 
HETATM   29  C   UNL     1       3.228  32.346  55.045  1.00  0.00     0.040 A 
HETATM   30  C   UNL     1       3.494  30.981  54.924  1.00  0.00     0.010 A 
BRANCH  27  31
HETATM   31  O   UNL     1       3.268  32.813  58.662  1.00  0.00    -0.353 OA
HETATM   32  C   UNL     1       3.497  32.049  59.839  1.00  0.00     0.210 C 
ENDBRANCH  27  31
BRANCH  28  33
HETATM   33  O   UNL     1       2.884  34.274  56.517  1.00  0.00    -0.353 OA
HETATM   34  C   UNL     1       3.820  35.217  56.017  1.00  0.00     0.210 C 
ENDBRANCH  28  33
ENDBRANCH  24  25
ENDBRANCH   3  24
TORSDOF 5
ENDMDL
MODEL 5
REMARK VINA RESULT:      -9.5      2.414      6.181
REMARK  5 active torsions:
REMARK  status: ('A' for Active; 'I' for Inactive)
REMARK    1  A    between atoms: C_4  and  C_5 
REMARK       I    between atoms: N_6  and  C_7 
REMARK    2  A    between atoms: C_7  and  C_8 
REMARK    3  A    between atoms: C_8  and  C_9 
REMARK    4  A    between atoms: C_11  and  O_12 
REMARK    5  A    between atoms: C_14  and  O_15 
ROOT
HETATM    1  C   UNL     1       6.787  28.213  57.740  1.00  0.00     0.189 C 
HETATM    2  N   UNL     1       5.603  28.626  56.938  1.00  0.00    -0.336 N 
HETATM    3  C   UNL     1       5.784  29.382  55.778  1.00  0.00     0.225 C 
HETATM    4  O   UNL     1       6.879  29.803  55.402  1.00  0.00    -0.273 OA
HETATM    5  C   UNL     1       4.496  27.651  57.031  1.00  0.00     0.132 C 
HETATM    6  C   UNL     1       4.868  26.324  56.324  1.00  0.00     0.061 C 
HETATM    7  C   UNL     1       6.301  25.973  56.582  1.00  0.00    -0.019 A 
HETATM    8  C   UNL     1       7.175  26.852  57.207  1.00  0.00     0.046 A 
HETATM    9  N   UNL     1       8.388  26.228  57.313  1.00  0.00    -0.356 N 
HETATM   10  H   UNL     1       9.213  26.610  57.756  1.00  0.00     0.166 HD
HETATM   11  C   UNL     1       8.341  25.003  56.678  1.00  0.00     0.043 A 
HETATM   12  C   UNL     1       7.034  24.814  56.223  1.00  0.00    -0.001 A 
HETATM   13  C   UNL     1       9.351  24.055  56.472  1.00  0.00     0.030 A 
HETATM   14  C   UNL     1       9.013  22.885  55.784  1.00  0.00     0.002 A 
HETATM   15  C   UNL     1       7.715  22.668  55.327  1.00  0.00     0.001 A 
HETATM   16  C   UNL     1       6.715  23.623  55.542  1.00  0.00     0.014 A 
ENDROOT
BRANCH   1  17
HETATM   17  C   UNL     1       7.864  29.258  58.019  1.00  0.00     0.063 A 
HETATM   18  N   UNL     1       9.080  29.030  57.440  1.00  0.00    -0.256 NA
HETATM   19  C   UNL     1      10.081  29.916  57.658  1.00  0.00     0.031 A 
HETATM   20  C   UNL     1      11.413  29.614  57.041  1.00  0.00     0.070 C 
HETATM   21  C   UNL     1       9.912  31.061  58.426  1.00  0.00     0.027 A 
HETATM   22  C   UNL     1       8.673  31.295  59.008  1.00  0.00     0.004 A 
HETATM   23  C   UNL     1       7.640  30.384  58.810  1.00  0.00     0.030 A 
ENDBRANCH   1  17
BRANCH   3  24
HETATM   24  C   UNL     1       4.563  29.691  54.917  1.00  0.00     0.141 C 
BRANCH  24  25
HETATM   25  C   UNL     1       4.541  29.066  53.541  1.00  0.00    -0.047 A 
HETATM   26  C   UNL     1       5.094  27.802  53.288  1.00  0.00     0.047 A 
HETATM   27  C   UNL     1       5.055  27.243  52.003  1.00  0.00     0.102 A 
HETATM   28  C   UNL     1       4.419  27.943  50.959  1.00  0.00     0.101 A 
HETATM   29  C   UNL     1       3.838  29.187  51.218  1.00  0.00     0.040 A 
HETATM   30  C   UNL     1       3.895  29.741  52.499  1.00  0.00     0.010 A 
BRANCH  27  31
HETATM   31  O   UNL     1       5.595  26.024  51.676  1.00  0.00    -0.353 OA
HETATM   32  C   UNL     1       5.034  24.874  52.295  1.00  0.00     0.210 C 
ENDBRANCH  27  31
BRANCH  28  33
HETATM   33  O   UNL     1       4.416  27.330  49.730  1.00  0.00    -0.353 OA
HETATM   34  C   UNL     1       4.240  28.152  48.586  1.00  0.00     0.210 C 
ENDBRANCH  28  33
ENDBRANCH  24  25
ENDBRANCH   3  24
TORSDOF 5
ENDMDL
MODEL 6
REMARK VINA RESULT:      -9.3      2.879      6.826
REMARK  5 active torsions:
REMARK  status: ('A' for Active; 'I' for Inactive)
REMARK    1  A    between atoms: C_4  and  C_5 
REMARK       I    between atoms: N_6  and  C_7 
REMARK    2  A    between atoms: C_7  and  C_8 
REMARK    3  A    between atoms: C_8  and  C_9 
REMARK    4  A    between atoms: C_11  and  O_12 
REMARK    5  A    between atoms: C_14  and  O_15 
ROOT
HETATM    1  C   UNL     1       4.923  26.781  54.004  1.00  0.00     0.189 C 
HETATM    2  N   UNL     1       4.841  26.683  52.521  1.00  0.00    -0.336 N 
HETATM    3  C   UNL     1       5.623  27.526  51.728  1.00  0.00     0.225 C 
HETATM    4  O   UNL     1       6.340  28.419  52.183  1.00  0.00    -0.273 OA
HETATM    5  C   UNL     1       4.524  25.312  52.068  1.00  0.00     0.132 C 
HETATM    6  C   UNL     1       5.703  24.349  52.353  1.00  0.00     0.061 C 
HETATM    7  C   UNL     1       6.327  24.656  53.679  1.00  0.00    -0.019 A 
HETATM    8  C   UNL     1       5.981  25.782  54.414  1.00  0.00     0.046 A 
HETATM    9  N   UNL     1       6.704  25.760  55.575  1.00  0.00    -0.356 N 
HETATM   10  H   UNL     1       6.639  26.435  56.326  1.00  0.00     0.166 HD
HETATM   11  C   UNL     1       7.583  24.695  55.559  1.00  0.00     0.043 A 
HETATM   12  C   UNL     1       7.353  23.977  54.383  1.00  0.00    -0.001 A 
HETATM   13  C   UNL     1       8.558  24.317  56.490  1.00  0.00     0.030 A 
HETATM   14  C   UNL     1       9.316  23.175  56.209  1.00  0.00     0.002 A 
HETATM   15  C   UNL     1       9.102  22.436  55.047  1.00  0.00     0.001 A 
HETATM   16  C   UNL     1       8.122  22.825  54.127  1.00  0.00     0.014 A 
ENDROOT
BRANCH   1  17
HETATM   17  C   UNL     1       4.904  28.173  54.632  1.00  0.00     0.063 A 
HETATM   18  N   UNL     1       5.966  28.479  55.435  1.00  0.00    -0.256 NA
HETATM   19  C   UNL     1       6.003  29.696  56.030  1.00  0.00     0.031 A 
HETATM   20  C   UNL     1       7.162  29.982  56.936  1.00  0.00     0.070 C 
HETATM   21  C   UNL     1       5.016  30.654  55.835  1.00  0.00     0.027 A 
HETATM   22  C   UNL     1       3.941  30.343  55.013  1.00  0.00     0.004 A 
HETATM   23  C   UNL     1       3.879  29.090  54.410  1.00  0.00     0.030 A 
ENDBRANCH   1  17
BRANCH   3  24
HETATM   24  C   UNL     1       5.604  27.323  50.217  1.00  0.00     0.141 C 
BRANCH  24  25
HETATM   25  C   UNL     1       4.241  27.298  49.564  1.00  0.00    -0.047 A 
HETATM   26  C   UNL     1       3.322  28.346  49.718  1.00  0.00     0.047 A 
HETATM   27  C   UNL     1       2.067  28.300  49.097  1.00  0.00     0.102 A 
HETATM   28  C   UNL     1       1.736  27.204  48.275  1.00  0.00     0.101 A 
HETATM   29  C   UNL     1       2.665  26.176  48.094  1.00  0.00     0.040 A 
HETATM   30  C   UNL     1       3.907  26.225  48.729  1.00  0.00     0.010 A 
BRANCH  27  31
HETATM   31  O   UNL     1       1.108  29.276  49.221  1.00  0.00    -0.353 OA
HETATM   32  C   UNL     1       1.549  30.628  49.218  1.00  0.00     0.210 C 
ENDBRANCH  27  31
BRANCH  28  33
HETATM   33  O   UNL     1       0.491  27.232  47.696  1.00  0.00    -0.353 OA
HETATM   34  C   UNL     1       0.426  27.392  46.287  1.00  0.00     0.210 C 
ENDBRANCH  28  33
ENDBRANCH  24  25
ENDBRANCH   3  24
TORSDOF 5
ENDMDL
MODEL 7
REMARK VINA RESULT:      -9.2      2.443      6.339
REMARK  5 active torsions:
REMARK  status: ('A' for Active; 'I' for Inactive)
REMARK    1  A    between atoms: C_4  and  C_5 
REMARK       I    between atoms: N_6  and  C_7 
REMARK    2  A    between atoms: C_7  and  C_8 
REMARK    3  A    between atoms: C_8  and  C_9 
REMARK    4  A    between atoms: C_11  and  O_12 
REMARK    5  A    between atoms: C_14  and  O_15 
ROOT
HETATM    1  C   UNL     1       6.761  28.214  57.683  1.00  0.00     0.189 C 
HETATM    2  N   UNL     1       5.605  28.614  56.835  1.00  0.00    -0.336 N 
HETATM    3  C   UNL     1       5.826  29.353  55.670  1.00  0.00     0.225 C 
HETATM    4  O   UNL     1       6.934  29.770  55.327  1.00  0.00    -0.273 OA
HETATM    5  C   UNL     1       4.497  27.639  56.903  1.00  0.00     0.132 C 
HETATM    6  C   UNL     1       4.893  26.302  56.230  1.00  0.00     0.061 C 
HETATM    7  C   UNL     1       6.317  25.957  56.542  1.00  0.00    -0.019 A 
HETATM    8  C   UNL     1       7.168  26.845  57.184  1.00  0.00     0.046 A 
HETATM    9  N   UNL     1       8.377  26.225  57.342  1.00  0.00    -0.356 N 
HETATM   10  H   UNL     1       9.186  26.614  57.808  1.00  0.00     0.166 HD
HETATM   11  C   UNL     1       8.353  24.991  56.724  1.00  0.00     0.043 A 
HETATM   12  C   UNL     1       7.062  24.793  56.227  1.00  0.00    -0.001 A 
HETATM   13  C   UNL     1       9.370  24.041  56.567  1.00  0.00     0.030 A 
HETATM   14  C   UNL     1       9.056  22.860  55.885  1.00  0.00     0.002 A 
HETATM   15  C   UNL     1       7.775  22.635  55.387  1.00  0.00     0.001 A 
HETATM   16  C   UNL     1       6.769  23.592  55.552  1.00  0.00     0.014 A 
ENDROOT
BRANCH   1  17
HETATM   17  C   UNL     1       7.827  29.265  57.984  1.00  0.00     0.063 A 
HETATM   18  N   UNL     1       9.057  29.040  57.434  1.00  0.00    -0.256 NA
HETATM   19  C   UNL     1      10.050  29.930  57.672  1.00  0.00     0.031 A 
HETATM   20  C   UNL     1      11.397  29.631  57.087  1.00  0.00     0.070 C 
HETATM   21  C   UNL     1       9.858  31.077  58.433  1.00  0.00     0.027 A 
HETATM   22  C   UNL     1       8.606  31.307  58.985  1.00  0.00     0.004 A 
HETATM   23  C   UNL     1       7.581  30.391  58.766  1.00  0.00     0.030 A 
ENDBRANCH   1  17
BRANCH   3  24
HETATM   24  C   UNL     1       4.637  29.648  54.763  1.00  0.00     0.141 C 
BRANCH  24  25
HETATM   25  C   UNL     1       4.725  29.116  53.351  1.00  0.00    -0.047 A 
HETATM   26  C   UNL     1       4.410  29.906  52.235  1.00  0.00     0.047 A 
HETATM   27  C   UNL     1       4.506  29.388  50.937  1.00  0.00     0.102 A 
HETATM   28  C   UNL     1       4.959  28.069  50.745  1.00  0.00     0.101 A 
HETATM   29  C   UNL     1       5.306  27.292  51.854  1.00  0.00     0.040 A 
HETATM   30  C   UNL     1       5.193  27.813  53.144  1.00  0.00     0.010 A 
BRANCH  27  31
HETATM   31  O   UNL     1       4.192  30.094  49.801  1.00  0.00    -0.353 OA
HETATM   32  C   UNL     1       2.872  30.613  49.699  1.00  0.00     0.210 C 
ENDBRANCH  27  31
BRANCH  28  33
HETATM   33  O   UNL     1       5.032  27.634  49.444  1.00  0.00    -0.353 OA
HETATM   34  C   UNL     1       4.300  26.467  49.099  1.00  0.00     0.210 C 
ENDBRANCH  28  33
ENDBRANCH  24  25
ENDBRANCH   3  24
TORSDOF 5
ENDMDL
MODEL 8
REMARK VINA RESULT:      -9.0      1.961      5.570
REMARK  5 active torsions:
REMARK  status: ('A' for Active; 'I' for Inactive)
REMARK    1  A    between atoms: C_4  and  C_5 
REMARK       I    between atoms: N_6  and  C_7 
REMARK    2  A    between atoms: C_7  and  C_8 
REMARK    3  A    between atoms: C_8  and  C_9 
REMARK    4  A    between atoms: C_11  and  O_12 
REMARK    5  A    between atoms: C_14  and  O_15 
ROOT
HETATM    1  C   UNL     1       5.377  26.798  55.277  1.00  0.00     0.189 C 
HETATM    2  N   UNL     1       5.377  28.178  55.835  1.00  0.00    -0.336 N 
HETATM    3  C   UNL     1       6.570  28.904  55.883  1.00  0.00     0.225 C 
HETATM    4  O   UNL     1       7.663  28.441  55.553  1.00  0.00    -0.273 OA
HETATM    5  C   UNL     1       4.089  28.870  55.619  1.00  0.00     0.132 C 
HETATM    6  C   UNL     1       3.868  29.171  54.116  1.00  0.00     0.061 C 
HETATM    7  C   UNL     1       4.342  28.027  53.274  1.00  0.00    -0.019 A 
HETATM    8  C   UNL     1       5.051  26.960  53.809  1.00  0.00     0.046 A 
HETATM    9  N   UNL     1       5.312  26.082  52.794  1.00  0.00    -0.356 N 
HETATM   10  H   UNL     1       5.786  25.192  52.887  1.00  0.00     0.166 HD
HETATM   11  C   UNL     1       4.874  26.608  51.595  1.00  0.00     0.043 A 
HETATM   12  C   UNL     1       4.246  27.825  51.874  1.00  0.00    -0.001 A 
HETATM   13  C   UNL     1       4.986  26.104  50.294  1.00  0.00     0.030 A 
HETATM   14  C   UNL     1       4.441  26.864  49.253  1.00  0.00     0.002 A 
HETATM   15  C   UNL     1       3.803  28.076  49.505  1.00  0.00     0.001 A 
HETATM   16  C   UNL     1       3.697  28.567  50.811  1.00  0.00     0.014 A 
ENDROOT
BRANCH   1  17
HETATM   17  C   UNL     1       6.492  25.850  55.711  1.00  0.00     0.063 A 
HETATM   18  N   UNL     1       6.949  24.989  54.753  1.00  0.00    -0.256 NA
HETATM   19  C   UNL     1       7.931  24.115  55.078  1.00  0.00     0.031 A 
HETATM   20  C   UNL     1       8.380  23.159  54.015  1.00  0.00     0.070 C 
HETATM   21  C   UNL     1       8.509  24.076  56.341  1.00  0.00     0.027 A 
HETATM   22  C   UNL     1       8.048  24.956  57.311  1.00  0.00     0.004 A 
HETATM   23  C   UNL     1       7.026  25.847  56.998  1.00  0.00     0.030 A 
ENDBRANCH   1  17
BRANCH   3  24
HETATM   24  C   UNL     1       6.517  30.354  56.351  1.00  0.00     0.141 C 
BRANCH  24  25
HETATM   25  C   UNL     1       7.024  30.622  57.750  1.00  0.00    -0.047 A 
HETATM   26  C   UNL     1       6.416  31.562  58.596  1.00  0.00     0.047 A 
HETATM   27  C   UNL     1       6.903  31.787  59.890  1.00  0.00     0.102 A 
HETATM   28  C   UNL     1       7.996  31.035  60.363  1.00  0.00     0.101 A 
HETATM   29  C   UNL     1       8.581  30.075  59.533  1.00  0.00     0.040 A 
HETATM   30  C   UNL     1       8.096  29.868  58.240  1.00  0.00     0.010 A 
BRANCH  27  31
HETATM   31  O   UNL     1       6.375  32.706  60.764  1.00  0.00    -0.353 OA
HETATM   32  C   UNL     1       5.053  33.164  60.509  1.00  0.00     0.210 C 
ENDBRANCH  27  31
BRANCH  28  33
HETATM   33  O   UNL     1       8.414  31.308  61.643  1.00  0.00    -0.353 OA
HETATM   34  C   UNL     1       9.426  30.480  62.194  1.00  0.00     0.210 C 
ENDBRANCH  28  33
ENDBRANCH  24  25
ENDBRANCH   3  24
TORSDOF 5
ENDMDL
MODEL 9
REMARK VINA RESULT:      -9.0      2.667      8.587
REMARK  5 active torsions:
REMARK  status: ('A' for Active; 'I' for Inactive)
REMARK    1  A    between atoms: C_4  and  C_5 
REMARK       I    between atoms: N_6  and  C_7 
REMARK    2  A    between atoms: C_7  and  C_8 
REMARK    3  A    between atoms: C_8  and  C_9 
REMARK    4  A    between atoms: C_11  and  O_12 
REMARK    5  A    between atoms: C_14  and  O_15 
ROOT
HETATM    1  C   UNL     1       7.068  29.340  55.284  1.00  0.00     0.189 C 
HETATM    2  N   UNL     1       6.508  27.979  55.063  1.00  0.00    -0.336 N 
HETATM    3  C   UNL     1       6.255  27.149  56.158  1.00  0.00     0.225 C 
HETATM    4  O   UNL     1       6.541  27.447  57.319  1.00  0.00    -0.273 OA
HETATM    5  C   UNL     1       5.647  27.917  53.863  1.00  0.00     0.132 C 
HETATM    6  C   UNL     1       4.346  28.729  54.073  1.00  0.00     0.061 C 
HETATM    7  C   UNL     1       4.630  29.996  54.820  1.00  0.00    -0.019 A 
HETATM    8  C   UNL     1       5.868  30.255  55.390  1.00  0.00     0.046 A 
HETATM    9  N   UNL     1       5.809  31.491  55.972  1.00  0.00    -0.356 N 
HETATM   10  H   UNL     1       6.574  31.964  56.437  1.00  0.00     0.166 HD
HETATM   11  C   UNL     1       4.527  31.993  55.876  1.00  0.00     0.043 A 
HETATM   12  C   UNL     1       3.770  31.077  55.141  1.00  0.00    -0.001 A 
HETATM   13  C   UNL     1       3.982  33.180  56.381  1.00  0.00     0.030 A 
HETATM   14  C   UNL     1       2.630  33.434  56.127  1.00  0.00     0.002 A 
HETATM   15  C   UNL     1       1.855  32.541  55.391  1.00  0.00     0.001 A 
HETATM   16  C   UNL     1       2.413  31.359  54.891  1.00  0.00     0.014 A 
ENDROOT
BRANCH   1  17
HETATM   17  C   UNL     1       8.227  29.487  56.267  1.00  0.00     0.063 A 
HETATM   18  N   UNL     1       7.899  29.939  57.514  1.00  0.00    -0.256 NA
HETATM   19  C   UNL     1       8.885  30.100  58.429  1.00  0.00     0.031 A 
HETATM   20  C   UNL     1       8.494  30.636  59.773  1.00  0.00     0.070 C 
HETATM   21  C   UNL     1      10.213  29.800  58.157  1.00  0.00     0.027 A 
HETATM   22  C   UNL     1      10.545  29.334  56.891  1.00  0.00     0.004 A 
HETATM   23  C   UNL     1       9.546  29.182  55.934  1.00  0.00     0.030 A 
ENDBRANCH   1  17
BRANCH   3  24
HETATM   24  C   UNL     1       5.575  25.808  55.908  1.00  0.00     0.141 C 
BRANCH  24  25
HETATM   25  C   UNL     1       6.430  24.732  55.280  1.00  0.00    -0.047 A 
HETATM   26  C   UNL     1       7.279  23.915  56.041  1.00  0.00     0.047 A 
HETATM   27  C   UNL     1       8.057  22.921  55.433  1.00  0.00     0.102 A 
HETATM   28  C   UNL     1       7.960  22.713  54.043  1.00  0.00     0.101 A 
HETATM   29  C   UNL     1       7.089  23.504  53.289  1.00  0.00     0.040 A 
HETATM   30  C   UNL     1       6.328  24.501  53.903  1.00  0.00     0.010 A 
BRANCH  27  31
HETATM   31  O   UNL     1       8.926  22.100  56.110  1.00  0.00    -0.353 OA
HETATM   32  C   UNL     1       8.369  20.997  56.812  1.00  0.00     0.210 C 
ENDBRANCH  27  31
BRANCH  28  33
HETATM   33  O   UNL     1       8.748  21.718  53.520  1.00  0.00    -0.353 OA
HETATM   34  C   UNL     1       8.098  20.557  53.025  1.00  0.00     0.210 C 
ENDBRANCH  28  33
ENDBRANCH  24  25
ENDBRANCH   3  24
TORSDOF 5
ENDMDL
MODEL 10
REMARK VINA RESULT:      -8.9      2.811      8.792
REMARK  5 active torsions:
REMARK  status: ('A' for Active; 'I' for Inactive)
REMARK    1  A    between atoms: C_4  and  C_5 
REMARK       I    between atoms: N_6  and  C_7 
REMARK    2  A    between atoms: C_7  and  C_8 
REMARK    3  A    between atoms: C_8  and  C_9 
REMARK    4  A    between atoms: C_11  and  O_12 
REMARK    5  A    between atoms: C_14  and  O_15 
ROOT
HETATM    1  C   UNL     1       6.827  30.135  56.697  1.00  0.00     0.189 C 
HETATM    2  N   UNL     1       6.078  28.867  56.478  1.00  0.00    -0.336 N 
HETATM    3  C   UNL     1       6.386  27.741  57.246  1.00  0.00     0.225 C 
HETATM    4  O   UNL     1       7.308  27.704  58.062  1.00  0.00    -0.273 OA
HETATM    5  C   UNL     1       4.692  29.107  56.024  1.00  0.00     0.132 C 
HETATM    6  C   UNL     1       3.844  29.746  57.150  1.00  0.00     0.061 C 
HETATM    7  C   UNL     1       4.650  30.755  57.910  1.00  0.00    -0.019 A 
HETATM    8  C   UNL     1       6.015  30.908  57.713  1.00  0.00     0.046 A 
HETATM    9  N   UNL     1       6.444  31.916  58.532  1.00  0.00    -0.356 N 
HETATM   10  H   UNL     1       7.388  32.277  58.582  1.00  0.00     0.166 HD
HETATM   11  C   UNL     1       5.402  32.349  59.327  1.00  0.00     0.043 A 
HETATM   12  C   UNL     1       4.258  31.644  58.943  1.00  0.00    -0.001 A 
HETATM   13  C   UNL     1       5.384  33.304  60.350  1.00  0.00     0.030 A 
HETATM   14  C   UNL     1       4.166  33.542  60.996  1.00  0.00     0.002 A 
HETATM   15  C   UNL     1       3.010  32.858  60.627  1.00  0.00     0.001 A 
HETATM   16  C   UNL     1       3.042  31.908  59.601  1.00  0.00     0.014 A 
ENDROOT
BRANCH   1  17
HETATM   17  C   UNL     1       8.345  30.056  56.835  1.00  0.00     0.063 A 
HETATM   18  N   UNL     1       8.883  30.720  57.900  1.00  0.00    -0.256 NA
HETATM   19  C   UNL     1      10.226  30.697  58.072  1.00  0.00     0.031 A 
HETATM   20  C   UNL     1      10.785  31.470  59.228  1.00  0.00     0.070 C 
HETATM   21  C   UNL     1      11.077  30.003  57.221  1.00  0.00     0.027 A 
HETATM   22  C   UNL     1      10.528  29.322  56.142  1.00  0.00     0.004 A 
HETATM   23  C   UNL     1       9.151  29.353  55.941  1.00  0.00     0.030 A 
ENDBRANCH   1  17
BRANCH   3  24
HETATM   24  C   UNL     1       5.526  26.494  57.079  1.00  0.00     0.141 C 
BRANCH  24  25
HETATM   25  C   UNL     1       6.034  25.458  56.102  1.00  0.00    -0.047 A 
HETATM   26  C   UNL     1       5.661  25.463  54.749  1.00  0.00     0.047 A 
HETATM   27  C   UNL     1       6.152  24.494  53.863  1.00  0.00     0.102 A 
HETATM   28  C   UNL     1       7.060  23.523  54.328  1.00  0.00     0.101 A 
HETATM   29  C   UNL     1       7.458  23.537  55.668  1.00  0.00     0.040 A 
HETATM   30  C   UNL     1       6.952  24.499  56.544  1.00  0.00     0.010 A 
BRANCH  27  31
HETATM   31  O   UNL     1       5.813  24.423  52.534  1.00  0.00    -0.353 OA
HETATM   32  C   UNL     1       5.539  25.646  51.864  1.00  0.00     0.210 C 
ENDBRANCH  27  31
BRANCH  28  33
HETATM   33  O   UNL     1       7.501  22.610  53.401  1.00  0.00    -0.353 OA
HETATM   34  C   UNL     1       8.796  22.060  53.585  1.00  0.00     0.210 C 
ENDBRANCH  28  33
ENDBRANCH  24  25
ENDBRANCH   3  24
TORSDOF 5
ENDMDL
