MODEL 1
REMARK VINA RESULT:     -10.3      0.000      0.000
REMARK  7 active torsions:
REMARK  status: ('A' for Active; 'I' for Inactive)
REMARK    1  A    between atoms: O_2  and  C_3 
REMARK    2  A    between atoms: C_5  and  C_6 
REMARK    3  A    between atoms: C_10  and  C_11 
REMARK    4  A    between atoms: C_10  and  C_15 
REMARK    5  A    between atoms: N_19  and  C_20 
REMARK    6  A    between atoms: C_20  and  C_21 
REMARK    7  A    between atoms: C_21  and  C_22 
ROOT
HETATM    1  C   UNL     1       7.282  29.097  55.763  1.00  0.00     0.114 C 
HETATM    2  N   UNL     1       7.263  27.937  55.135  1.00  0.00    -0.327 N 
HETATM    3  C   UNL     1       6.189  27.502  54.389  1.00  0.00     0.128 A 
HETATM    4  C   UNL     1       5.079  28.254  54.347  1.00  0.00     0.100 A 
HETATM    5  C   UNL     1       4.883  29.524  55.138  1.00  0.00     0.264 C 
HETATM    6  N   UNL     1       6.273  26.304  53.699  1.00  0.00    -0.284 N 
HETATM    7  C   UNL     1       5.233  25.846  52.893  1.00  0.00     0.331 A 
HETATM    8  O   UNL     1       5.274  24.810  52.239  1.00  0.00    -0.246 OA
HETATM    9  N   UNL     1       4.124  26.634  52.852  1.00  0.00    -0.275 N 
HETATM   10  C   UNL     1       3.963  27.803  53.510  1.00  0.00     0.262 A 
HETATM   11  O   UNL     1       2.954  28.480  53.422  1.00  0.00    -0.267 OA
HETATM   12  N   UNL     1       6.234  29.889  55.754  1.00  0.00    -0.347 N 
HETATM   13  H   UNL     1       6.313  30.801  56.213  1.00  0.00     0.162 HD
HETATM   14  H   UNL     1       8.103  27.377  55.210  1.00  0.00     0.169 HD
HETATM   15  H   UNL     1       3.366  26.310  52.262  1.00  0.00     0.173 HD
ENDROOT
BRANCH   1  16
HETATM   16  C   UNL     1       8.492  29.534  56.479  1.00  0.00     0.010 A 
HETATM   17  C   UNL     1       8.382  30.138  57.742  1.00  0.00     0.052 A 
HETATM   18  C   UNL     1       9.505  30.611  58.427  1.00  0.00     0.069 A 
HETATM   19  C   UNL     1      10.766  30.450  57.860  1.00  0.00     0.037 A 
HETATM   20  C   UNL     1      10.896  29.836  56.612  1.00  0.00     0.004 A 
HETATM   21  C   UNL     1       9.769  29.386  55.921  1.00  0.00     0.015 A 
BRANCH  18  22
HETATM   22  O   UNL     1       9.224  31.200  59.626  1.00  0.00    -0.356 OA
HETATM   23  C   UNL     1       7.902  31.040  60.132  1.00  0.00     0.210 C 
ENDBRANCH  18  22
ENDBRANCH   1  16
BRANCH   5  24
HETATM   24  C   UNL     1       3.899  29.342  56.297  1.00  0.00     0.426 C 
HETATM   25  F   UNL     1       3.656  28.012  56.458  1.00  0.00    -0.168 F 
HETATM   26  F   UNL     1       4.450  29.769  57.457  1.00  0.00    -0.168 F 
HETATM   27  F   UNL     1       2.714  29.943  56.143  1.00  0.00    -0.168 F 
ENDBRANCH   5  24
BRANCH   5  28
HETATM   28  C   UNL     1       4.402  30.755  54.360  1.00  0.00     0.426 C 
HETATM   29  F   UNL     1       4.885  30.717  53.093  1.00  0.00    -0.168 F 
HETATM   30  F   UNL     1       3.081  30.947  54.313  1.00  0.00    -0.168 F 
HETATM   31  F   UNL     1       4.946  31.866  54.932  1.00  0.00    -0.168 F 
ENDBRANCH   5  28
BRANCH   6  32
HETATM   32  C   UNL     1       7.455  25.432  53.738  1.00  0.00     0.140 C 
BRANCH  32  33
HETATM   33  C   UNL     1       7.457  24.507  54.964  1.00  0.00     0.059 C 
BRANCH  33  34
HETATM   34  C   UNL     1       7.663  23.057  54.603  1.00  0.00    -0.057 A 
HETATM   35  C   UNL     1       7.934  22.674  53.281  1.00  0.00     0.007 A 
HETATM   36  C   UNL     1       8.136  21.332  52.956  1.00  0.00     0.001 A 
HETATM   37  C   UNL     1       8.086  20.359  53.949  1.00  0.00     0.000 A 
HETATM   38  C   UNL     1       7.841  20.727  55.271  1.00  0.00     0.001 A 
HETATM   39  C   UNL     1       7.634  22.069  55.597  1.00  0.00     0.007 A 
ENDBRANCH  33  34
ENDBRANCH  32  33
ENDBRANCH   6  32
TORSDOF 7
ENDMDL
MODEL 2
REMARK VINA RESULT:     -10.2      3.298      6.710
REMARK  7 active torsions:
REMARK  status: ('A' for Active; 'I' for Inactive)
REMARK    1  A    between atoms: O_2  and  C_3 
REMARK    2  A    between atoms: C_5  and  C_6 
REMARK    3  A    between atoms: C_10  and  C_11 
REMARK    4  A    between atoms: C_10  and  C_15 
REMARK    5  A    between atoms: N_19  and  C_20 
REMARK    6  A    between atoms: C_20  and  C_21 
REMARK    7  A    between atoms: C_21  and  C_22 
ROOT
HETATM    1  C   UNL     1       7.279  24.473  54.386  1.00  0.00     0.114 C 
HETATM    2  N   UNL     1       6.844  25.176  53.359  1.00  0.00    -0.327 N 
HETATM    3  C   UNL     1       6.487  26.504  53.452  1.00  0.00     0.128 A 
HETATM    4  C   UNL     1       6.514  27.102  54.652  1.00  0.00     0.100 A 
HETATM    5  C   UNL     1       6.832  26.395  55.946  1.00  0.00     0.264 C 
HETATM    6  N   UNL     1       6.107  27.194  52.312  1.00  0.00    -0.284 N 
HETATM    7  C   UNL     1       5.785  28.549  52.347  1.00  0.00     0.331 A 
HETATM    8  O   UNL     1       5.476  29.208  51.362  1.00  0.00    -0.246 OA
HETATM    9  N   UNL     1       5.836  29.138  53.572  1.00  0.00    -0.275 N 
HETATM   10  C   UNL     1       6.179  28.527  54.727  1.00  0.00     0.262 A 
HETATM   11  O   UNL     1       6.227  29.109  55.797  1.00  0.00    -0.267 OA
HETATM   12  N   UNL     1       7.343  24.999  55.588  1.00  0.00    -0.347 N 
HETATM   13  H   UNL     1       7.735  24.430  56.345  1.00  0.00     0.162 HD
HETATM   14  H   UNL     1       6.804  24.690  52.471  1.00  0.00     0.169 HD
HETATM   15  H   UNL     1       5.609  30.126  53.604  1.00  0.00     0.173 HD
ENDROOT
BRANCH   1  16
HETATM   16  C   UNL     1       7.718  23.079  54.200  1.00  0.00     0.010 A 
HETATM   17  C   UNL     1       8.078  22.302  55.313  1.00  0.00     0.052 A 
HETATM   18  C   UNL     1       8.547  20.993  55.169  1.00  0.00     0.069 A 
HETATM   19  C   UNL     1       8.629  20.435  53.897  1.00  0.00     0.037 A 
HETATM   20  C   UNL     1       8.258  21.187  52.780  1.00  0.00     0.004 A 
HETATM   21  C   UNL     1       7.812  22.503  52.927  1.00  0.00     0.015 A 
BRANCH  18  22
HETATM   22  O   UNL     1       8.885  20.386  56.344  1.00  0.00    -0.356 OA
HETATM   23  C   UNL     1       8.505  21.047  57.547  1.00  0.00     0.210 C 
ENDBRANCH  18  22
ENDBRANCH   1  16
BRANCH   5  24
HETATM   24  C   UNL     1       5.592  26.204  56.825  1.00  0.00     0.426 C 
HETATM   25  F   UNL     1       4.587  25.700  56.058  1.00  0.00    -0.168 F 
HETATM   26  F   UNL     1       5.832  25.282  57.787  1.00  0.00    -0.168 F 
HETATM   27  F   UNL     1       5.126  27.314  57.408  1.00  0.00    -0.168 F 
ENDBRANCH   5  24
BRANCH   5  28
HETATM   28  C   UNL     1       7.896  27.041  56.843  1.00  0.00     0.426 C 
HETATM   29  F   UNL     1       8.697  27.845  56.101  1.00  0.00    -0.168 F 
HETATM   30  F   UNL     1       7.443  27.733  57.893  1.00  0.00    -0.168 F 
HETATM   31  F   UNL     1       8.703  26.058  57.331  1.00  0.00    -0.168 F 
ENDBRANCH   5  28
BRANCH   6  32
HETATM   32  C   UNL     1       6.033  26.575  50.981  1.00  0.00     0.140 C 
BRANCH  32  33
HETATM   33  C   UNL     1       4.722  25.803  50.770  1.00  0.00     0.059 C 
BRANCH  33  34
HETATM   34  C   UNL     1       4.061  26.122  49.452  1.00  0.00    -0.057 A 
HETATM   35  C   UNL     1       3.992  27.442  48.981  1.00  0.00     0.007 A 
HETATM   36  C   UNL     1       3.390  27.729  47.755  1.00  0.00     0.001 A 
HETATM   37  C   UNL     1       2.866  26.700  46.978  1.00  0.00     0.000 A 
HETATM   38  C   UNL     1       2.950  25.382  47.422  1.00  0.00     0.001 A 
HETATM   39  C   UNL     1       3.547  25.093  48.650  1.00  0.00     0.007 A 
ENDBRANCH  33  34
ENDBRANCH  32  33
ENDBRANCH   6  32
TORSDOF 7
ENDMDL
MODEL 3
REMARK VINA RESULT:      -9.7      2.870      5.973
REMARK  7 active torsions:
REMARK  status: ('A' for Active; 'I' for Inactive)
REMARK    1  A    between atoms: O_2  and  C_3 
REMARK    2  A    between atoms: C_5  and  C_6 
REMARK    3  A    between atoms: C_10  and  C_11 
REMARK    4  A    between atoms: C_10  and  C_15 
REMARK    5  A    between atoms: N_19  and  C_20 
REMARK    6  A    between atoms: C_20  and  C_21 
REMARK    7  A    between atoms: C_21  and  C_22 
ROOT
HETATM    1  C   UNL     1       7.403  28.263  55.793  1.00  0.00     0.114 C 
HETATM    2  N   UNL     1       6.489  28.872  55.065  1.00  0.00    -0.327 N 
HETATM    3  C   UNL     1       5.559  28.197  54.303  1.00  0.00     0.128 A 
HETATM    4  C   UNL     1       5.622  26.859  54.237  1.00  0.00     0.100 A 
HETATM    5  C   UNL     1       6.703  26.027  54.880  1.00  0.00     0.264 C 
HETATM    6  N   UNL     1       4.584  28.906  53.621  1.00  0.00    -0.284 N 
HETATM    7  C   UNL     1       3.595  28.266  52.878  1.00  0.00     0.331 A 
HETATM    8  O   UNL     1       2.694  28.848  52.286  1.00  0.00    -0.246 OA
HETATM    9  N   UNL     1       3.668  26.908  52.840  1.00  0.00    -0.275 N 
HETATM   10  C   UNL     1       4.598  26.151  53.462  1.00  0.00     0.262 A 
HETATM   11  O   UNL     1       4.605  24.934  53.411  1.00  0.00    -0.267 OA
HETATM   12  N   UNL     1       7.514  26.954  55.786  1.00  0.00    -0.347 N 
HETATM   13  H   UNL     1       8.206  26.524  56.407  1.00  0.00     0.162 HD
HETATM   14  H   UNL     1       6.485  29.884  55.109  1.00  0.00     0.169 HD
HETATM   15  H   UNL     1       2.947  26.435  52.306  1.00  0.00     0.173 HD
ENDROOT
BRANCH   1  16
HETATM   16  C   UNL     1       8.315  29.045  56.645  1.00  0.00     0.010 A 
HETATM   17  C   UNL     1       7.921  29.415  57.942  1.00  0.00     0.052 A 
HETATM   18  C   UNL     1       8.740  30.200  58.759  1.00  0.00     0.069 A 
HETATM   19  C   UNL     1       9.989  30.596  58.291  1.00  0.00     0.037 A 
HETATM   20  C   UNL     1      10.406  30.221  57.011  1.00  0.00     0.004 A 
HETATM   21  C   UNL     1       9.574  29.457  56.189  1.00  0.00     0.015 A 
BRANCH  18  22
HETATM   22  O   UNL     1       8.198  30.498  59.975  1.00  0.00    -0.356 OA
HETATM   23  C   UNL     1       9.099  30.627  61.071  1.00  0.00     0.210 C 
ENDBRANCH  18  22
ENDBRANCH   1  16
BRANCH   5  24
HETATM   24  C   UNL     1       7.678  25.444  53.852  1.00  0.00     0.426 C 
HETATM   25  F   UNL     1       8.283  26.471  53.193  1.00  0.00    -0.168 F 
HETATM   26  F   UNL     1       8.668  24.760  54.473  1.00  0.00    -0.168 F 
HETATM   27  F   UNL     1       7.130  24.650  52.926  1.00  0.00    -0.168 F 
ENDBRANCH   5  24
BRANCH   5  28
HETATM   28  C   UNL     1       6.245  24.848  55.748  1.00  0.00     0.426 C 
HETATM   29  F   UNL     1       5.009  25.098  56.249  1.00  0.00    -0.168 F 
HETATM   30  F   UNL     1       6.236  23.648  55.160  1.00  0.00    -0.168 F 
HETATM   31  F   UNL     1       7.073  24.757  56.826  1.00  0.00    -0.168 F 
ENDBRANCH   5  28
BRANCH   6  32
HETATM   32  C   UNL     1       4.493  30.373  53.638  1.00  0.00     0.140 C 
BRANCH  32  33
HETATM   33  C   UNL     1       3.402  30.878  54.593  1.00  0.00     0.059 C 
BRANCH  33  34
HETATM   34  C   UNL     1       3.918  31.130  55.988  1.00  0.00    -0.057 A 
HETATM   35  C   UNL     1       5.041  31.942  56.208  1.00  0.00     0.007 A 
HETATM   36  C   UNL     1       5.504  32.181  57.502  1.00  0.00     0.001 A 
HETATM   37  C   UNL     1       4.843  31.625  58.594  1.00  0.00     0.000 A 
HETATM   38  C   UNL     1       3.711  30.837  58.392  1.00  0.00     0.001 A 
HETATM   39  C   UNL     1       3.249  30.593  57.098  1.00  0.00     0.007 A 
ENDBRANCH  33  34
ENDBRANCH  32  33
ENDBRANCH   6  32
TORSDOF 7
ENDMDL
MODEL 4
REMARK VINA RESULT:      -9.2      7.774     10.304
REMARK  7 active torsions:
REMARK  status: ('A' for Active; 'I' for Inactive)
REMARK    1  A    between atoms: O_2  and  C_3 
REMARK    2  A    between atoms: C_5  and  C_6 
REMARK    3  A    between atoms: C_10  and  C_11 
REMARK    4  A    between atoms: C_10  and  C_15 
REMARK    5  A    between atoms: N_19  and  C_20 
REMARK    6  A    between atoms: C_20  and  C_21 
REMARK    7  A    between atoms: C_21  and  C_22 
ROOT
HETATM    1  C   UNL     1       5.250  36.422  61.944  1.00  0.00     0.114 C 
HETATM    2  N   UNL     1       5.426  35.313  62.636  1.00  0.00    -0.327 N 
HETATM    3  C   UNL     1       4.881  34.101  62.269  1.00  0.00     0.128 A 
HETATM    4  C   UNL     1       4.077  34.048  61.197  1.00  0.00     0.100 A 
HETATM    5  C   UNL     1       3.649  35.253  60.396  1.00  0.00     0.264 C 
HETATM    6  N   UNL     1       5.171  32.967  63.009  1.00  0.00    -0.284 N 
HETATM    7  C   UNL     1       4.684  31.712  62.649  1.00  0.00     0.331 A 
HETATM    8  O   UNL     1       4.939  30.676  63.252  1.00  0.00    -0.246 OA
HETATM    9  N   UNL     1       3.885  31.679  61.548  1.00  0.00    -0.275 N 
HETATM   10  C   UNL     1       3.544  32.744  60.790  1.00  0.00     0.262 A 
HETATM   11  O   UNL     1       2.839  32.656  59.800  1.00  0.00    -0.267 OA
HETATM   12  N   UNL     1       4.485  36.440  60.876  1.00  0.00    -0.347 N 
HETATM   13  H   UNL     1       4.420  37.312  60.343  1.00  0.00     0.162 HD
HETATM   14  H   UNL     1       6.012  35.389  63.458  1.00  0.00     0.169 HD
HETATM   15  H   UNL     1       3.532  30.768  61.277  1.00  0.00     0.173 HD
ENDROOT
BRANCH   1  16
HETATM   16  C   UNL     1       5.926  37.666  62.350  1.00  0.00     0.010 A 
HETATM   17  C   UNL     1       5.766  38.157  63.657  1.00  0.00     0.052 A 
HETATM   18  C   UNL     1       6.351  39.361  64.061  1.00  0.00     0.069 A 
HETATM   19  C   UNL     1       7.136  40.073  63.160  1.00  0.00     0.037 A 
HETATM   20  C   UNL     1       7.321  39.590  61.862  1.00  0.00     0.004 A 
HETATM   21  C   UNL     1       6.715  38.399  61.455  1.00  0.00     0.015 A 
BRANCH  18  22
HETATM   22  O   UNL     1       6.074  39.714  65.350  1.00  0.00    -0.356 OA
HETATM   23  C   UNL     1       6.306  41.072  65.713  1.00  0.00     0.210 C 
ENDBRANCH  18  22
ENDBRANCH   1  16
BRANCH   5  24
HETATM   24  C   UNL     1       2.180  35.618  60.633  1.00  0.00     0.426 C 
HETATM   25  F   UNL     1       1.910  35.498  61.962  1.00  0.00    -0.168 F 
HETATM   26  F   UNL     1       1.958  36.915  60.318  1.00  0.00    -0.168 F 
HETATM   27  F   UNL     1       1.289  34.863  59.981  1.00  0.00    -0.168 F 
ENDBRANCH   5  24
BRANCH   5  28
HETATM   28  C   UNL     1       3.827  35.171  58.875  1.00  0.00     0.426 C 
HETATM   29  F   UNL     1       4.873  34.360  58.577  1.00  0.00    -0.168 F 
HETATM   30  F   UNL     1       2.761  34.773  58.174  1.00  0.00    -0.168 F 
HETATM   31  F   UNL     1       4.170  36.406  58.413  1.00  0.00    -0.168 F 
ENDBRANCH   5  28
BRANCH   6  32
HETATM   32  C   UNL     1       6.021  32.980  64.207  1.00  0.00     0.140 C 
BRANCH  32  33
HETATM   33  C   UNL     1       7.488  33.291  63.877  1.00  0.00     0.059 C 
BRANCH  33  34
HETATM   34  C   UNL     1       8.027  32.444  62.751  1.00  0.00    -0.057 A 
HETATM   35  C   UNL     1       8.194  32.976  61.464  1.00  0.00     0.007 A 
HETATM   36  C   UNL     1       8.705  32.190  60.430  1.00  0.00     0.001 A 
HETATM   37  C   UNL     1       9.070  30.869  60.673  1.00  0.00     0.000 A 
HETATM   38  C   UNL     1       8.933  30.335  61.953  1.00  0.00     0.001 A 
HETATM   39  C   UNL     1       8.418  31.118  62.987  1.00  0.00     0.007 A 
ENDBRANCH  33  34
ENDBRANCH  32  33
ENDBRANCH   6  32
TORSDOF 7
ENDMDL
MODEL 5
REMARK VINA RESULT:      -9.1      3.032      6.512
REMARK  7 active torsions:
REMARK  status: ('A' for Active; 'I' for Inactive)
REMARK    1  A    between atoms: O_2  and  C_3 
REMARK    2  A    between atoms: C_5  and  C_6 
REMARK    3  A    between atoms: C_10  and  C_11 
REMARK    4  A    between atoms: C_10  and  C_15 
REMARK    5  A    between atoms: N_19  and  C_20 
REMARK    6  A    between atoms: C_20  and  C_21 
REMARK    7  A    between atoms: C_21  and  C_22 
ROOT
HETATM    1  C   UNL     1       6.947  26.010  54.598  1.00  0.00     0.114 C 
HETATM    2  N   UNL     1       5.993  26.636  53.938  1.00  0.00    -0.327 N 
HETATM    3  C   UNL     1       5.637  27.944  54.187  1.00  0.00     0.128 A 
HETATM    4  C   UNL     1       6.236  28.600  55.193  1.00  0.00     0.100 A 
HETATM    5  C   UNL     1       7.229  27.975  56.142  1.00  0.00     0.264 C 
HETATM    6  N   UNL     1       4.674  28.556  53.402  1.00  0.00    -0.284 N 
HETATM    7  C   UNL     1       4.316  29.890  53.584  1.00  0.00     0.331 A 
HETATM    8  O   UNL     1       3.494  30.482  52.895  1.00  0.00    -0.246 OA
HETATM    9  N   UNL     1       4.949  30.540  54.598  1.00  0.00    -0.275 N 
HETATM   10  C   UNL     1       5.883  30.006  55.415  1.00  0.00     0.262 A 
HETATM   11  O   UNL     1       6.433  30.640  56.298  1.00  0.00    -0.267 OA
HETATM   12  N   UNL     1       7.584  26.596  55.587  1.00  0.00    -0.347 N 
HETATM   13  H   UNL     1       8.351  26.088  56.036  1.00  0.00     0.162 HD
HETATM   14  H   UNL     1       5.537  26.107  53.205  1.00  0.00     0.169 HD
HETATM   15  H   UNL     1       4.698  31.513  54.733  1.00  0.00     0.173 HD
ENDROOT
BRANCH   1  16
HETATM   16  C   UNL     1       7.329  24.637  54.227  1.00  0.00     0.010 A 
HETATM   17  C   UNL     1       7.317  23.618  55.194  1.00  0.00     0.052 A 
HETATM   18  C   UNL     1       7.722  22.316  54.889  1.00  0.00     0.069 A 
HETATM   19  C   UNL     1       8.115  22.012  53.590  1.00  0.00     0.037 A 
HETATM   20  C   UNL     1       8.116  23.008  52.610  1.00  0.00     0.004 A 
HETATM   21  C   UNL     1       7.733  24.314  52.925  1.00  0.00     0.015 A 
BRANCH  18  22
HETATM   22  O   UNL     1       7.682  21.454  55.947  1.00  0.00    -0.356 OA
HETATM   23  C   UNL     1       8.858  20.693  56.206  1.00  0.00     0.210 C 
ENDBRANCH  18  22
ENDBRANCH   1  16
BRANCH   5  24
HETATM   24  C   UNL     1       6.639  27.756  57.539  1.00  0.00     0.426 C 
HETATM   25  F   UNL     1       7.010  28.795  58.337  1.00  0.00    -0.168 F 
HETATM   26  F   UNL     1       5.287  27.780  57.491  1.00  0.00    -0.168 F 
HETATM   27  F   UNL     1       7.022  26.631  58.153  1.00  0.00    -0.168 F 
ENDBRANCH   5  24
BRANCH   5  28
HETATM   28  C   UNL     1       8.551  28.724  56.350  1.00  0.00     0.426 C 
HETATM   29  F   UNL     1       8.329  29.862  57.054  1.00  0.00    -0.168 F 
HETATM   30  F   UNL     1       9.534  28.037  56.940  1.00  0.00    -0.168 F 
HETATM   31  F   UNL     1       9.018  29.123  55.134  1.00  0.00    -0.168 F 
ENDBRANCH   5  28
BRANCH   6  32
HETATM   32  C   UNL     1       3.969  27.870  52.310  1.00  0.00     0.140 C 
BRANCH  32  33
HETATM   33  C   UNL     1       4.704  28.004  50.968  1.00  0.00     0.059 C 
BRANCH  33  34
HETATM   34  C   UNL     1       3.892  27.495  49.803  1.00  0.00    -0.057 A 
HETATM   35  C   UNL     1       4.234  26.300  49.152  1.00  0.00     0.007 A 
HETATM   36  C   UNL     1       3.471  25.827  48.084  1.00  0.00     0.001 A 
HETATM   37  C   UNL     1       2.348  26.534  47.663  1.00  0.00     0.000 A 
HETATM   38  C   UNL     1       1.981  27.709  48.316  1.00  0.00     0.001 A 
HETATM   39  C   UNL     1       2.746  28.186  49.382  1.00  0.00     0.007 A 
ENDBRANCH  33  34
ENDBRANCH  32  33
ENDBRANCH   6  32
TORSDOF 7
ENDMDL
MODEL 6
REMARK VINA RESULT:      -9.0      4.086      8.465
REMARK  7 active torsions:
REMARK  status: ('A' for Active; 'I' for Inactive)
REMARK    1  A    between atoms: O_2  and  C_3 
REMARK    2  A    between atoms: C_5  and  C_6 
REMARK    3  A    between atoms: C_10  and  C_11 
REMARK    4  A    between atoms: C_10  and  C_15 
REMARK    5  A    between atoms: N_19  and  C_20 
REMARK    6  A    between atoms: C_20  and  C_21 
REMARK    7  A    between atoms: C_21  and  C_22 
ROOT
HETATM    1  C   UNL     1       5.138  27.578  51.323  1.00  0.00     0.114 C 
HETATM    2  N   UNL     1       4.566  28.322  52.249  1.00  0.00    -0.327 N 
HETATM    3  C   UNL     1       4.797  28.157  53.597  1.00  0.00     0.128 A 
HETATM    4  C   UNL     1       5.584  27.150  54.003  1.00  0.00     0.100 A 
HETATM    5  C   UNL     1       6.182  26.115  53.083  1.00  0.00     0.264 C 
HETATM    6  N   UNL     1       4.214  29.026  54.505  1.00  0.00    -0.284 N 
HETATM    7  C   UNL     1       4.455  28.929  55.874  1.00  0.00     0.331 A 
HETATM    8  O   UNL     1       3.989  29.693  56.710  1.00  0.00    -0.246 OA
HETATM    9  N   UNL     1       5.271  27.911  56.261  1.00  0.00    -0.275 N 
HETATM   10  C   UNL     1       5.860  27.016  55.437  1.00  0.00     0.262 A 
HETATM   11  O   UNL     1       6.599  26.134  55.836  1.00  0.00    -0.267 OA
HETATM   12  N   UNL     1       5.931  26.582  51.649  1.00  0.00    -0.347 N 
HETATM   13  H   UNL     1       6.392  26.064  50.895  1.00  0.00     0.162 HD
HETATM   14  H   UNL     1       3.952  29.055  51.914  1.00  0.00     0.169 HD
HETATM   15  H   UNL     1       5.457  27.838  57.255  1.00  0.00     0.173 HD
ENDROOT
BRANCH   1  16
HETATM   16  C   UNL     1       4.908  27.860  49.896  1.00  0.00     0.010 A 
HETATM   17  C   UNL     1       4.395  26.858  49.055  1.00  0.00     0.052 A 
HETATM   18  C   UNL     1       4.212  27.075  47.687  1.00  0.00     0.069 A 
HETATM   19  C   UNL     1       4.513  28.322  47.149  1.00  0.00     0.037 A 
HETATM   20  C   UNL     1       5.008  29.336  47.973  1.00  0.00     0.004 A 
HETATM   21  C   UNL     1       5.212  29.107  49.336  1.00  0.00     0.015 A 
BRANCH  18  22
HETATM   22  O   UNL     1       3.736  25.992  47.006  1.00  0.00    -0.356 OA
HETATM   23  C   UNL     1       3.009  25.024  47.756  1.00  0.00     0.210 C 
ENDBRANCH  18  22
ENDBRANCH   1  16
BRANCH   5  24
HETATM   24  C   UNL     1       5.510  24.747  53.230  1.00  0.00     0.426 C 
HETATM   25  F   UNL     1       4.277  24.924  53.779  1.00  0.00    -0.168 F 
HETATM   26  F   UNL     1       5.305  24.187  52.015  1.00  0.00    -0.168 F 
HETATM   27  F   UNL     1       6.162  23.867  53.999  1.00  0.00    -0.168 F 
ENDBRANCH   5  24
BRANCH   5  28
HETATM   28  C   UNL     1       7.690  25.865  53.211  1.00  0.00     0.426 C 
HETATM   29  F   UNL     1       8.337  27.041  53.411  1.00  0.00    -0.168 F 
HETATM   30  F   UNL     1       8.069  24.999  54.155  1.00  0.00    -0.168 F 
HETATM   31  F   UNL     1       8.151  25.384  52.022  1.00  0.00    -0.168 F 
ENDBRANCH   5  28
BRANCH   6  32
HETATM   32  C   UNL     1       3.320  30.124  54.111  1.00  0.00     0.140 C 
BRANCH  32  33
HETATM   33  C   UNL     1       4.094  31.363  53.638  1.00  0.00     0.059 C 
BRANCH  33  34
HETATM   34  C   UNL     1       3.826  31.703  52.193  1.00  0.00    -0.057 A 
HETATM   35  C   UNL     1       4.748  32.450  51.444  1.00  0.00     0.007 A 
HETATM   36  C   UNL     1       4.499  32.749  50.103  1.00  0.00     0.001 A 
HETATM   37  C   UNL     1       3.335  32.293  49.491  1.00  0.00     0.000 A 
HETATM   38  C   UNL     1       2.423  31.530  50.216  1.00  0.00     0.001 A 
HETATM   39  C   UNL     1       2.667  31.233  51.558  1.00  0.00     0.007 A 
ENDBRANCH  33  34
ENDBRANCH  32  33
ENDBRANCH   6  32
TORSDOF 7
ENDMDL
MODEL 7
REMARK VINA RESULT:      -8.9      3.153      6.482
REMARK  7 active torsions:
REMARK  status: ('A' for Active; 'I' for Inactive)
REMARK    1  A    between atoms: O_2  and  C_3 
REMARK    2  A    between atoms: C_5  and  C_6 
REMARK    3  A    between atoms: C_10  and  C_11 
REMARK    4  A    between atoms: C_10  and  C_15 
REMARK    5  A    between atoms: N_19  and  C_20 
REMARK    6  A    between atoms: C_20  and  C_21 
REMARK    7  A    between atoms: C_21  and  C_22 
ROOT
HETATM    1  C   UNL     1       6.441  28.354  54.800  1.00  0.00     0.114 C 
HETATM    2  N   UNL     1       5.854  28.997  53.810  1.00  0.00    -0.327 N 
HETATM    3  C   UNL     1       5.376  28.366  52.681  1.00  0.00     0.128 A 
HETATM    4  C   UNL     1       5.573  27.047  52.541  1.00  0.00     0.100 A 
HETATM    5  C   UNL     1       6.364  26.199  53.506  1.00  0.00     0.264 C 
HETATM    6  N   UNL     1       4.708  29.101  51.716  1.00  0.00    -0.284 N 
HETATM    7  C   UNL     1       4.165  28.501  50.582  1.00  0.00     0.331 A 
HETATM    8  O   UNL     1       3.538  29.103  49.718  1.00  0.00    -0.246 OA
HETATM    9  N   UNL     1       4.360  27.159  50.470  1.00  0.00    -0.275 N 
HETATM   10  C   UNL     1       5.016  26.381  51.359  1.00  0.00     0.262 A 
HETATM   11  O   UNL     1       5.146  25.178  51.219  1.00  0.00    -0.267 OA
HETATM   12  N   UNL     1       6.654  27.059  54.736  1.00  0.00    -0.347 N 
HETATM   13  H   UNL     1       7.067  26.596  55.551  1.00  0.00     0.162 HD
HETATM   14  H   UNL     1       5.748  29.997  53.928  1.00  0.00     0.169 HD
HETATM   15  H   UNL     1       3.962  26.714  49.650  1.00  0.00     0.173 HD
ENDROOT
BRANCH   1  16
HETATM   16  C   UNL     1       6.857  29.080  56.012  1.00  0.00     0.010 A 
HETATM   17  C   UNL     1       8.207  29.078  56.404  1.00  0.00     0.052 A 
HETATM   18  C   UNL     1       8.629  29.712  57.575  1.00  0.00     0.069 A 
HETATM   19  C   UNL     1       7.698  30.391  58.356  1.00  0.00     0.037 A 
HETATM   20  C   UNL     1       6.354  30.418  57.973  1.00  0.00     0.004 A 
HETATM   21  C   UNL     1       5.933  29.762  56.814  1.00  0.00     0.015 A 
BRANCH  18  22
HETATM   22  O   UNL     1       9.964  29.591  57.829  1.00  0.00    -0.356 OA
HETATM   23  C   UNL     1      10.847  29.689  56.715  1.00  0.00     0.210 C 
ENDBRANCH  18  22
ENDBRANCH   1  16
BRANCH   5  24
HETATM   24  C   UNL     1       7.718  25.773  52.931  1.00  0.00     0.426 C 
HETATM   25  F   UNL     1       8.523  26.869  52.852  1.00  0.00    -0.168 F 
HETATM   26  F   UNL     1       8.338  24.909  53.769  1.00  0.00    -0.168 F 
HETATM   27  F   UNL     1       7.677  25.226  51.711  1.00  0.00    -0.168 F 
ENDBRANCH   5  24
BRANCH   5  28
HETATM   28  C   UNL     1       5.693  24.915  54.010  1.00  0.00     0.426 C 
HETATM   29  F   UNL     1       4.346  25.022  53.888  1.00  0.00    -0.168 F 
HETATM   30  F   UNL     1       6.088  23.776  53.435  1.00  0.00    -0.168 F 
HETATM   31  F   UNL     1       5.938  24.795  55.345  1.00  0.00    -0.168 F 
ENDBRANCH   5  28
BRANCH   6  32
HETATM   32  C   UNL     1       4.495  30.552  51.809  1.00  0.00     0.140 C 
BRANCH  32  33
HETATM   33  C   UNL     1       3.221  30.905  52.591  1.00  0.00     0.059 C 
BRANCH  33  34
HETATM   34  C   UNL     1       3.509  31.633  53.880  1.00  0.00    -0.057 A 
HETATM   35  C   UNL     1       2.846  31.288  55.068  1.00  0.00     0.007 A 
HETATM   36  C   UNL     1       3.127  31.957  56.260  1.00  0.00     0.001 A 
HETATM   37  C   UNL     1       4.084  32.968  56.283  1.00  0.00     0.000 A 
HETATM   38  C   UNL     1       4.768  33.304  55.116  1.00  0.00     0.001 A 
HETATM   39  C   UNL     1       4.485  32.639  53.922  1.00  0.00     0.007 A 
ENDBRANCH  33  34
ENDBRANCH  32  33
ENDBRANCH   6  32
TORSDOF 7
ENDMDL
MODEL 8
REMARK VINA RESULT:      -8.9      2.418      3.651
REMARK  7 active torsions:
REMARK  status: ('A' for Active; 'I' for Inactive)
REMARK    1  A    between atoms: O_2  and  C_3 
REMARK    2  A    between atoms: C_5  and  C_6 
REMARK    3  A    between atoms: C_10  and  C_11 
REMARK    4  A    between atoms: C_10  and  C_15 
REMARK    5  A    between atoms: N_19  and  C_20 
REMARK    6  A    between atoms: C_20  and  C_21 
REMARK    7  A    between atoms: C_21  and  C_22 
ROOT
HETATM    1  C   UNL     1       6.862  31.279  58.613  1.00  0.00     0.114 C 
HETATM    2  N   UNL     1       7.213  30.260  57.853  1.00  0.00    -0.327 N 
HETATM    3  C   UNL     1       6.591  29.960  56.661  1.00  0.00     0.128 A 
HETATM    4  C   UNL     1       5.533  30.690  56.278  1.00  0.00     0.100 A 
HETATM    5  C   UNL     1       4.910  31.783  57.109  1.00  0.00     0.264 C 
HETATM    6  N   UNL     1       7.064  28.915  55.884  1.00  0.00    -0.284 N 
HETATM    7  C   UNL     1       6.499  28.605  54.648  1.00  0.00     0.331 A 
HETATM    8  O   UNL     1       6.904  27.712  53.912  1.00  0.00    -0.246 OA
HETATM    9  N   UNL     1       5.439  29.370  54.272  1.00  0.00    -0.275 N 
HETATM   10  C   UNL     1       4.912  30.390  54.984  1.00  0.00     0.262 A 
HETATM   11  O   UNL     1       3.971  31.057  54.590  1.00  0.00    -0.267 OA
HETATM   12  N   UNL     1       5.843  32.044  58.292  1.00  0.00    -0.347 N 
HETATM   13  H   UNL     1       5.640  32.853  58.886  1.00  0.00     0.162 HD
HETATM   14  H   UNL     1       7.995  29.707  58.183  1.00  0.00     0.169 HD
HETATM   15  H   UNL     1       5.027  29.153  53.371  1.00  0.00     0.173 HD
ENDROOT
BRANCH   1  16
HETATM   16  C   UNL     1       7.621  31.589  59.836  1.00  0.00     0.010 A 
HETATM   17  C   UNL     1       6.943  31.983  61.003  1.00  0.00     0.052 A 
HETATM   18  C   UNL     1       7.634  32.333  62.166  1.00  0.00     0.069 A 
HETATM   19  C   UNL     1       9.023  32.260  62.181  1.00  0.00     0.037 A 
HETATM   20  C   UNL     1       9.713  31.854  61.036  1.00  0.00     0.004 A 
HETATM   21  C   UNL     1       9.020  31.527  59.868  1.00  0.00     0.015 A 
BRANCH  18  22
HETATM   22  O   UNL     1       6.831  32.722  63.199  1.00  0.00    -0.356 OA
HETATM   23  C   UNL     1       7.477  33.179  64.384  1.00  0.00     0.210 C 
ENDBRANCH  18  22
ENDBRANCH   1  16
BRANCH   5  24
HETATM   24  C   UNL     1       3.555  31.371  57.693  1.00  0.00     0.426 C 
HETATM   25  F   UNL     1       3.693  30.161  58.302  1.00  0.00    -0.168 F 
HETATM   26  F   UNL     1       3.172  32.238  58.658  1.00  0.00    -0.168 F 
HETATM   27  F   UNL     1       2.560  31.255  56.807  1.00  0.00    -0.168 F 
ENDBRANCH   5  24
BRANCH   5  28
HETATM   28  C   UNL     1       4.682  33.133  56.417  1.00  0.00     0.426 C 
HETATM   29  F   UNL     1       5.557  33.278  55.391  1.00  0.00    -0.168 F 
HETATM   30  F   UNL     1       3.446  33.366  55.966  1.00  0.00    -0.168 F 
HETATM   31  F   UNL     1       4.977  34.127  57.302  1.00  0.00    -0.168 F 
ENDBRANCH   5  28
BRANCH   6  32
HETATM   32  C   UNL     1       8.200  28.068  56.275  1.00  0.00     0.140 C 
BRANCH  32  33
HETATM   33  C   UNL     1       7.816  27.040  57.350  1.00  0.00     0.059 C 
BRANCH  33  34
HETATM   34  C   UNL     1       7.807  25.625  56.829  1.00  0.00    -0.057 A 
HETATM   35  C   UNL     1       8.785  24.702  57.229  1.00  0.00     0.007 A 
HETATM   36  C   UNL     1       8.763  23.390  56.753  1.00  0.00     0.001 A 
HETATM   37  C   UNL     1       7.756  22.981  55.884  1.00  0.00     0.000 A 
HETATM   38  C   UNL     1       6.764  23.880  55.497  1.00  0.00     0.001 A 
HETATM   39  C   UNL     1       6.787  25.194  55.969  1.00  0.00     0.007 A 
ENDBRANCH  33  34
ENDBRANCH  32  33
ENDBRANCH   6  32
TORSDOF 7
ENDMDL
MODEL 9
REMARK VINA RESULT:      -8.9      3.335      6.346
REMARK  7 active torsions:
REMARK  status: ('A' for Active; 'I' for Inactive)
REMARK    1  A    between atoms: O_2  and  C_3 
REMARK    2  A    between atoms: C_5  and  C_6 
REMARK    3  A    between atoms: C_10  and  C_11 
REMARK    4  A    between atoms: C_10  and  C_15 
REMARK    5  A    between atoms: N_19  and  C_20 
REMARK    6  A    between atoms: C_20  and  C_21 
REMARK    7  A    between atoms: C_21  and  C_22 
ROOT
HETATM    1  C   UNL     1       5.377  27.252  52.399  1.00  0.00     0.114 C 
HETATM    2  N   UNL     1       5.007  28.086  53.351  1.00  0.00    -0.327 N 
HETATM    3  C   UNL     1       4.221  29.194  53.119  1.00  0.00     0.128 A 
HETATM    4  C   UNL     1       3.866  29.487  51.860  1.00  0.00     0.100 A 
HETATM    5  C   UNL     1       4.339  28.727  50.646  1.00  0.00     0.264 C 
HETATM    6  N   UNL     1       3.815  29.982  54.184  1.00  0.00    -0.284 N 
HETATM    7  C   UNL     1       2.980  31.083  54.005  1.00  0.00     0.331 A 
HETATM    8  O   UNL     1       2.569  31.790  54.918  1.00  0.00    -0.246 OA
HETATM    9  N   UNL     1       2.618  31.351  52.721  1.00  0.00    -0.275 N 
HETATM   10  C   UNL     1       2.989  30.640  51.633  1.00  0.00     0.262 A 
HETATM   11  O   UNL     1       2.620  30.913  50.505  1.00  0.00    -0.267 OA
HETATM   12  N   UNL     1       5.054  27.471  51.144  1.00  0.00    -0.347 N 
HETATM   13  H   UNL     1       5.320  26.769  50.447  1.00  0.00     0.162 HD
HETATM   14  H   UNL     1       5.316  27.857  54.288  1.00  0.00     0.169 HD
HETATM   15  H   UNL     1       2.006  32.147  52.584  1.00  0.00     0.173 HD
ENDROOT
BRANCH   1  16
HETATM   16  C   UNL     1       6.152  26.044  52.729  1.00  0.00     0.010 A 
HETATM   17  C   UNL     1       6.074  25.490  54.018  1.00  0.00     0.052 A 
HETATM   18  C   UNL     1       6.835  24.374  54.380  1.00  0.00     0.069 A 
HETATM   19  C   UNL     1       7.664  23.779  53.435  1.00  0.00     0.037 A 
HETATM   20  C   UNL     1       7.741  24.306  52.143  1.00  0.00     0.004 A 
HETATM   21  C   UNL     1       6.996  25.435  51.792  1.00  0.00     0.015 A 
BRANCH  18  22
HETATM   22  O   UNL     1       6.669  23.979  55.676  1.00  0.00    -0.356 OA
HETATM   23  C   UNL     1       7.777  23.343  56.306  1.00  0.00     0.210 C 
ENDBRANCH  18  22
ENDBRANCH   1  16
BRANCH   5  24
HETATM   24  C   UNL     1       5.358  29.522  49.822  1.00  0.00     0.426 C 
HETATM   25  F   UNL     1       6.200  30.167  50.675  1.00  0.00    -0.168 F 
HETATM   26  F   UNL     1       6.130  28.685  49.090  1.00  0.00    -0.168 F 
HETATM   27  F   UNL     1       4.840  30.445  49.005  1.00  0.00    -0.168 F 
ENDBRANCH   5  24
BRANCH   5  28
HETATM   28  C   UNL     1       3.262  28.262  49.657  1.00  0.00     0.426 C 
HETATM   29  F   UNL     1       3.553  27.014  49.212  1.00  0.00    -0.168 F 
HETATM   30  F   UNL     1       2.003  28.278  50.103  1.00  0.00    -0.168 F 
HETATM   31  F   UNL     1       3.307  29.069  48.560  1.00  0.00    -0.168 F 
ENDBRANCH   5  28
BRANCH   6  32
HETATM   32  C   UNL     1       4.203  29.719  55.577  1.00  0.00     0.140 C 
BRANCH  32  33
HETATM   33  C   UNL     1       5.595  30.276  55.908  1.00  0.00     0.059 C 
BRANCH  33  34
HETATM   34  C   UNL     1       6.558  29.209  56.365  1.00  0.00    -0.057 A 
HETATM   35  C   UNL     1       7.943  29.431  56.348  1.00  0.00     0.007 A 
HETATM   36  C   UNL     1       8.827  28.443  56.785  1.00  0.00     0.001 A 
HETATM   37  C   UNL     1       8.338  27.229  57.258  1.00  0.00     0.000 A 
HETATM   38  C   UNL     1       6.964  27.004  57.304  1.00  0.00     0.001 A 
HETATM   39  C   UNL     1       6.078  27.989  56.863  1.00  0.00     0.007 A 
ENDBRANCH  33  34
ENDBRANCH  32  33
ENDBRANCH   6  32
TORSDOF 7
ENDMDL
MODEL 10
REMARK VINA RESULT:      -8.8      4.377      7.413
REMARK  7 active torsions:
REMARK  status: ('A' for Active; 'I' for Inactive)
REMARK    1  A    between atoms: O_2  and  C_3 
REMARK    2  A    between atoms: C_5  and  C_6 
REMARK    3  A    between atoms: C_10  and  C_11 
REMARK    4  A    between atoms: C_10  and  C_15 
REMARK    5  A    between atoms: N_19  and  C_20 
REMARK    6  A    between atoms: C_20  and  C_21 
REMARK    7  A    between atoms: C_21  and  C_22 
ROOT
HETATM    1  C   UNL     1       5.216  26.895  51.167  1.00  0.00     0.114 C 
HETATM    2  N   UNL     1       4.891  28.092  51.614  1.00  0.00    -0.327 N 
HETATM    3  C   UNL     1       4.142  28.991  50.885  1.00  0.00     0.128 A 
HETATM    4  C   UNL     1       3.779  28.670  49.635  1.00  0.00     0.100 A 
HETATM    5  C   UNL     1       4.207  27.411  48.922  1.00  0.00     0.264 C 
HETATM    6  N   UNL     1       3.780  30.202  51.452  1.00  0.00    -0.284 N 
HETATM    7  C   UNL     1       2.983  31.121  50.773  1.00  0.00     0.331 A 
HETATM    8  O   UNL     1       2.611  32.189  51.245  1.00  0.00    -0.246 OA
HETATM    9  N   UNL     1       2.612  30.767  49.513  1.00  0.00    -0.275 N 
HETATM   10  C   UNL     1       2.941  29.615  48.889  1.00  0.00     0.262 A 
HETATM   11  O   UNL     1       2.565  29.339  47.764  1.00  0.00    -0.267 OA
HETATM   12  N   UNL     1       4.883  26.510  49.956  1.00  0.00    -0.347 N 
HETATM   13  H   UNL     1       5.114  25.554  49.672  1.00  0.00     0.162 HD
HETATM   14  H   UNL     1       5.205  28.319  52.550  1.00  0.00     0.169 HD
HETATM   15  H   UNL     1       2.026  31.429  49.015  1.00  0.00     0.173 HD
ENDROOT
BRANCH   1  16
HETATM   16  C   UNL     1       5.953  25.956  52.030  1.00  0.00     0.010 A 
HETATM   17  C   UNL     1       5.552  25.764  53.363  1.00  0.00     0.052 A 
HETATM   18  C   UNL     1       6.258  24.918  54.224  1.00  0.00     0.069 A 
HETATM   19  C   UNL     1       7.364  24.225  53.741  1.00  0.00     0.037 A 
HETATM   20  C   UNL     1       7.766  24.389  52.414  1.00  0.00     0.004 A 
HETATM   21  C   UNL     1       7.072  25.254  51.563  1.00  0.00     0.015 A 
BRANCH  18  22
HETATM   22  O   UNL     1       5.759  24.867  55.493  1.00  0.00    -0.356 OA
HETATM   23  C   UNL     1       6.702  24.754  56.555  1.00  0.00     0.210 C 
ENDBRANCH  18  22
ENDBRANCH   1  16
BRANCH   5  24
HETATM   24  C   UNL     1       5.241  27.686  47.826  1.00  0.00     0.426 C 
HETATM   25  F   UNL     1       6.291  28.356  48.375  1.00  0.00    -0.168 F 
HETATM   26  F   UNL     1       5.743  26.523  47.348  1.00  0.00    -0.168 F 
HETATM   27  F   UNL     1       4.804  28.416  46.794  1.00  0.00    -0.168 F 
ENDBRANCH   5  24
BRANCH   5  28
HETATM   28  C   UNL     1       3.099  26.579  48.264  1.00  0.00     0.426 C 
HETATM   29  F   UNL     1       1.897  26.906  48.801  1.00  0.00    -0.168 F 
HETATM   30  F   UNL     1       3.012  26.656  46.933  1.00  0.00    -0.168 F 
HETATM   31  F   UNL     1       3.302  25.268  48.575  1.00  0.00    -0.168 F 
ENDBRANCH   5  28
BRANCH   6  32
HETATM   32  C   UNL     1       4.179  30.610  52.807  1.00  0.00     0.140 C 
BRANCH  32  33
HETATM   33  C   UNL     1       3.459  29.800  53.895  1.00  0.00     0.059 C 
BRANCH  33  34
HETATM   34  C   UNL     1       4.316  29.570  55.115  1.00  0.00    -0.057 A 
HETATM   35  C   UNL     1       4.366  28.312  55.734  1.00  0.00     0.007 A 
HETATM   36  C   UNL     1       5.171  28.103  56.855  1.00  0.00     0.001 A 
HETATM   37  C   UNL     1       5.947  29.143  57.361  1.00  0.00     0.000 A 
HETATM   38  C   UNL     1       5.925  30.390  56.741  1.00  0.00     0.001 A 
HETATM   39  C   UNL     1       5.117  30.603  55.622  1.00  0.00     0.007 A 
ENDBRANCH  33  34
ENDBRANCH  32  33
ENDBRANCH   6  32
TORSDOF 7
ENDMDL
