MODEL 1
REMARK VINA RESULT:      -9.4      0.000      0.000
REMARK  6 active torsions:
REMARK  status: ('A' for Active; 'I' for Inactive)
REMARK    1  A    between atoms: C_2  and  C_3 
REMARK    2  A    between atoms: C_3  and  C_4 
REMARK    3  A    between atoms: C_3  and  C_10 
REMARK    4  A    between atoms: C_10  and  C_11 
REMARK       I    between atoms: C_11  and  N_12 
REMARK    5  A    between atoms: N_12  and  C_13 
REMARK    6  A    between atoms: C_20  and  C_21 
REMARK       I    between atoms: C_21  and  N_22 
ROOT
HETATM    1  C   UNL     1       8.427  28.336  57.229  1.00  0.00     0.035 A 
HETATM    2  C   UNL     1       7.855  29.222  58.153  1.00  0.00     0.046 A 
HETATM    3  C   UNL     1       8.561  30.384  58.533  1.00  0.00     0.030 A 
HETATM    4  C   UNL     1       9.821  30.611  57.994  1.00  0.00     0.063 A 
HETATM    5  N   UNL     1      10.248  31.783  58.552  1.00  0.00    -0.277 N 
HETATM    6  H   UNL     1      11.133  32.251  58.393  1.00  0.00     0.189 HD
HETATM    7  N   UNL     1       9.368  32.356  59.388  1.00  0.00    -0.168 NA
HETATM    8  C   UNL     1       8.316  31.505  59.384  1.00  0.00     0.156 A 
HETATM    9  C   UNL     1      10.423  29.747  57.077  1.00  0.00     0.034 A 
HETATM   10  C   UNL     1       9.693  28.612  56.699  1.00  0.00     0.032 A 
ENDROOT
BRANCH   1  11
HETATM   11  N   UNL     1       7.780  27.170  56.762  1.00  0.00    -0.327 N 
HETATM   12  C   UNL     1       7.660  25.958  57.415  1.00  0.00     0.223 C 
HETATM   13  O   UNL     1       8.191  25.651  58.477  1.00  0.00    -0.273 OA
HETATM   14  H   UNL     1       7.332  27.247  55.857  1.00  0.00     0.169 HD
BRANCH  12  15
HETATM   15  C   UNL     1       6.769  24.966  56.687  1.00  0.00     0.116 C 
BRANCH  15  16
HETATM   16  C   UNL     1       7.463  24.228  55.527  1.00  0.00     0.049 C 
BRANCH  16  17
HETATM   17  C   UNL     1       7.488  22.723  55.707  1.00  0.00    -0.027 C 
HETATM   18  C   UNL     1       7.818  21.848  54.747  1.00  0.00     0.007 C 
ENDBRANCH  16  17
BRANCH  16  19
HETATM   19  C   UNL     1       6.940  24.665  54.163  1.00  0.00    -0.050 A 
HETATM   20  C   UNL     1       7.792  24.913  53.075  1.00  0.00     0.008 A 
HETATM   21  C   UNL     1       7.275  25.287  51.833  1.00  0.00     0.001 A 
HETATM   22  C   UNL     1       5.901  25.428  51.661  1.00  0.00     0.000 A 
HETATM   23  C   UNL     1       5.041  25.190  52.729  1.00  0.00     0.001 A 
HETATM   24  C   UNL     1       5.555  24.807  53.969  1.00  0.00     0.008 A 
ENDBRANCH  16  19
ENDBRANCH  15  16
ENDBRANCH  12  15
ENDBRANCH   1  11
BRANCH   8  25
HETATM   25  C   UNL     1       7.107  31.784  60.173  1.00  0.00     0.270 C 
HETATM   26  N   UNL     1       7.091  31.181  61.402  1.00  0.00    -0.365 N 
HETATM   27  H   UNL     1       7.887  30.621  61.678  1.00  0.00     0.159 HD
HETATM   28  H   UNL     1       6.312  31.338  62.022  1.00  0.00     0.159 HD
HETATM   29  O   UNL     1       6.181  32.496  59.805  1.00  0.00    -0.266 OA
ENDBRANCH   8  25
TORSDOF 6
ENDMDL
MODEL 2
REMARK VINA RESULT:      -9.4      0.962      2.529
REMARK  6 active torsions:
REMARK  status: ('A' for Active; 'I' for Inactive)
REMARK    1  A    between atoms: C_2  and  C_3 
REMARK    2  A    between atoms: C_3  and  C_4 
REMARK    3  A    between atoms: C_3  and  C_10 
REMARK    4  A    between atoms: C_10  and  C_11 
REMARK       I    between atoms: C_11  and  N_12 
REMARK    5  A    between atoms: N_12  and  C_13 
REMARK    6  A    between atoms: C_20  and  C_21 
REMARK       I    between atoms: C_21  and  N_22 
ROOT
HETATM    1  C   UNL     1       8.208  28.296  57.151  1.00  0.00     0.035 A 
HETATM    2  C   UNL     1       7.713  29.182  58.119  1.00  0.00     0.046 A 
HETATM    3  C   UNL     1       8.478  30.310  58.488  1.00  0.00     0.030 A 
HETATM    4  C   UNL     1       9.719  30.503  57.894  1.00  0.00     0.063 A 
HETATM    5  N   UNL     1      10.214  31.647  58.454  1.00  0.00    -0.277 N 
HETATM    6  H   UNL     1      11.106  32.087  58.262  1.00  0.00     0.189 HD
HETATM    7  N   UNL     1       9.395  32.232  59.343  1.00  0.00    -0.168 NA
HETATM    8  C   UNL     1       8.315  31.419  59.372  1.00  0.00     0.156 A 
HETATM    9  C   UNL     1      10.245  29.639  56.931  1.00  0.00     0.034 A 
HETATM   10  C   UNL     1       9.457  28.540  56.566  1.00  0.00     0.032 A 
ENDROOT
BRANCH   1  11
HETATM   11  N   UNL     1       7.498  27.165  56.692  1.00  0.00    -0.327 N 
HETATM   12  C   UNL     1       7.857  25.837  56.828  1.00  0.00     0.223 C 
HETATM   13  O   UNL     1       8.915  25.414  57.282  1.00  0.00    -0.273 OA
HETATM   14  H   UNL     1       6.613  27.354  56.236  1.00  0.00     0.169 HD
BRANCH  12  15
HETATM   15  C   UNL     1       6.786  24.871  56.351  1.00  0.00     0.116 C 
BRANCH  15  16
HETATM   16  C   UNL     1       6.893  24.495  54.861  1.00  0.00     0.049 C 
BRANCH  16  17
HETATM   17  C   UNL     1       7.663  25.512  54.043  1.00  0.00    -0.027 C 
HETATM   18  C   UNL     1       7.108  26.359  53.164  1.00  0.00     0.007 C 
ENDBRANCH  16  17
BRANCH  16  19
HETATM   19  C   UNL     1       7.374  23.063  54.655  1.00  0.00    -0.050 A 
HETATM   20  C   UNL     1       7.537  22.163  55.720  1.00  0.00     0.008 A 
HETATM   21  C   UNL     1       7.955  20.850  55.489  1.00  0.00     0.001 A 
HETATM   22  C   UNL     1       8.225  20.420  54.193  1.00  0.00     0.000 A 
HETATM   23  C   UNL     1       8.072  21.299  53.125  1.00  0.00     0.001 A 
HETATM   24  C   UNL     1       7.646  22.609  53.352  1.00  0.00     0.008 A 
ENDBRANCH  16  19
ENDBRANCH  15  16
ENDBRANCH  12  15
ENDBRANCH   1  11
BRANCH   8  25
HETATM   25  C   UNL     1       7.156  31.723  60.224  1.00  0.00     0.270 C 
HETATM   26  N   UNL     1       7.202  31.139  61.461  1.00  0.00    -0.365 N 
HETATM   27  H   UNL     1       8.007  30.574  61.701  1.00  0.00     0.159 HD
HETATM   28  H   UNL     1       6.461  31.314  62.121  1.00  0.00     0.159 HD
HETATM   29  O   UNL     1       6.217  32.441  59.899  1.00  0.00    -0.266 OA
ENDBRANCH   8  25
TORSDOF 6
ENDMDL
MODEL 3
REMARK VINA RESULT:      -9.2      1.844      3.329
REMARK  6 active torsions:
REMARK  status: ('A' for Active; 'I' for Inactive)
REMARK    1  A    between atoms: C_2  and  C_3 
REMARK    2  A    between atoms: C_3  and  C_4 
REMARK    3  A    between atoms: C_3  and  C_10 
REMARK    4  A    between atoms: C_10  and  C_11 
REMARK       I    between atoms: C_11  and  N_12 
REMARK    5  A    between atoms: N_12  and  C_13 
REMARK    6  A    between atoms: C_20  and  C_21 
REMARK       I    between atoms: C_21  and  N_22 
ROOT
HETATM    1  C   UNL     1       7.268  28.107  56.911  1.00  0.00     0.035 A 
HETATM    2  C   UNL     1       7.924  28.934  57.834  1.00  0.00     0.046 A 
HETATM    3  C   UNL     1       7.369  30.191  58.160  1.00  0.00     0.030 A 
HETATM    4  C   UNL     1       6.192  30.588  57.538  1.00  0.00     0.063 A 
HETATM    5  N   UNL     1       5.918  31.829  58.039  1.00  0.00    -0.277 N 
HETATM    6  H   UNL     1       5.135  32.427  57.802  1.00  0.00     0.189 HD
HETATM    7  N   UNL     1       6.799  32.269  58.952  1.00  0.00    -0.168 NA
HETATM    8  C   UNL     1       7.701  31.264  59.042  1.00  0.00     0.156 A 
HETATM    9  C   UNL     1       5.516  29.792  56.611  1.00  0.00     0.034 A 
HETATM   10  C   UNL     1       6.074  28.540  56.320  1.00  0.00     0.032 A 
ENDROOT
BRANCH   1  11
HETATM   11  N   UNL     1       7.727  26.820  56.552  1.00  0.00    -0.327 N 
HETATM   12  C   UNL     1       7.095  25.612  56.776  1.00  0.00     0.223 C 
HETATM   13  O   UNL     1       6.068  25.439  57.425  1.00  0.00    -0.273 OA
HETATM   14  H   UNL     1       8.607  26.789  56.051  1.00  0.00     0.169 HD
BRANCH  12  15
HETATM   15  C   UNL     1       7.798  24.433  56.125  1.00  0.00     0.116 C 
BRANCH  15  16
HETATM   16  C   UNL     1       6.967  23.724  55.040  1.00  0.00     0.049 C 
BRANCH  16  17
HETATM   17  C   UNL     1       6.627  24.621  53.866  1.00  0.00    -0.027 C 
HETATM   18  C   UNL     1       5.382  24.967  53.509  1.00  0.00     0.007 C 
ENDBRANCH  16  17
BRANCH  16  19
HETATM   19  C   UNL     1       7.571  22.387  54.625  1.00  0.00    -0.050 A 
HETATM   20  C   UNL     1       7.814  22.055  53.282  1.00  0.00     0.008 A 
HETATM   21  C   UNL     1       8.393  20.830  52.941  1.00  0.00     0.001 A 
HETATM   22  C   UNL     1       8.730  19.916  53.935  1.00  0.00     0.000 A 
HETATM   23  C   UNL     1       8.494  20.225  55.272  1.00  0.00     0.001 A 
HETATM   24  C   UNL     1       7.923  21.452  55.615  1.00  0.00     0.008 A 
ENDBRANCH  16  19
ENDBRANCH  15  16
ENDBRANCH  12  15
ENDBRANCH   1  11
BRANCH   8  25
HETATM   25  C   UNL     1       8.840  31.344  59.968  1.00  0.00     0.270 C 
HETATM   26  N   UNL     1       8.798  30.428  60.985  1.00  0.00    -0.365 N 
HETATM   27  H   UNL     1       8.025  29.775  61.018  1.00  0.00     0.159 HD
HETATM   28  H   UNL     1       9.551  30.393  61.653  1.00  0.00     0.159 HD
HETATM   29  O   UNL     1       9.770  32.135  59.868  1.00  0.00    -0.266 OA
ENDBRANCH   8  25
TORSDOF 6
ENDMDL
MODEL 4
REMARK VINA RESULT:      -9.0      2.182      3.364
REMARK  6 active torsions:
REMARK  status: ('A' for Active; 'I' for Inactive)
REMARK    1  A    between atoms: C_2  and  C_3 
REMARK    2  A    between atoms: C_3  and  C_4 
REMARK    3  A    between atoms: C_3  and  C_10 
REMARK    4  A    between atoms: C_10  and  C_11 
REMARK       I    between atoms: C_11  and  N_12 
REMARK    5  A    between atoms: N_12  and  C_13 
REMARK    6  A    between atoms: C_20  and  C_21 
REMARK       I    between atoms: C_21  and  N_22 
ROOT
HETATM    1  C   UNL     1       7.693  28.235  56.469  1.00  0.00     0.035 A 
HETATM    2  C   UNL     1       6.580  29.004  56.837  1.00  0.00     0.046 A 
HETATM    3  C   UNL     1       6.756  30.134  57.665  1.00  0.00     0.030 A 
HETATM    4  C   UNL     1       8.034  30.445  58.114  1.00  0.00     0.063 A 
HETATM    5  N   UNL     1       7.884  31.560  58.890  1.00  0.00    -0.277 N 
HETATM    6  H   UNL     1       8.609  32.062  59.388  1.00  0.00     0.189 HD
HETATM    7  N   UNL     1       6.625  32.020  58.967  1.00  0.00    -0.168 NA
HETATM    8  C   UNL     1       5.915  31.151  58.211  1.00  0.00     0.156 A 
HETATM    9  C   UNL     1       9.163  29.699  57.772  1.00  0.00     0.034 A 
HETATM   10  C   UNL     1       8.965  28.595  56.931  1.00  0.00     0.032 A 
ENDROOT
BRANCH   1  11
HETATM   11  N   UNL     1       7.619  27.113  55.616  1.00  0.00    -0.327 N 
HETATM   12  C   UNL     1       7.554  27.111  54.235  1.00  0.00     0.223 C 
HETATM   13  O   UNL     1       7.443  28.096  53.513  1.00  0.00    -0.273 OA
HETATM   14  H   UNL     1       7.643  26.209  56.072  1.00  0.00     0.169 HD
BRANCH  12  15
HETATM   15  C   UNL     1       7.637  25.721  53.629  1.00  0.00     0.116 C 
BRANCH  15  16
HETATM   16  C   UNL     1       6.677  24.697  54.262  1.00  0.00     0.049 C 
BRANCH  16  17
HETATM   17  C   UNL     1       5.270  24.771  53.702  1.00  0.00    -0.027 C 
HETATM   18  C   UNL     1       4.976  24.932  52.404  1.00  0.00     0.007 C 
ENDBRANCH  16  17
BRANCH  16  19
HETATM   19  C   UNL     1       7.252  23.285  54.269  1.00  0.00    -0.050 A 
HETATM   20  C   UNL     1       7.380  22.529  55.445  1.00  0.00     0.008 A 
HETATM   21  C   UNL     1       7.889  21.229  55.408  1.00  0.00     0.001 A 
HETATM   22  C   UNL     1       8.284  20.667  54.197  1.00  0.00     0.000 A 
HETATM   23  C   UNL     1       8.167  21.401  53.021  1.00  0.00     0.001 A 
HETATM   24  C   UNL     1       7.652  22.698  53.054  1.00  0.00     0.008 A 
ENDBRANCH  16  19
ENDBRANCH  15  16
ENDBRANCH  12  15
ENDBRANCH   1  11
BRANCH   8  25
HETATM   25  C   UNL     1       4.468  31.317  58.016  1.00  0.00     0.270 C 
HETATM   26  N   UNL     1       3.706  30.395  58.681  1.00  0.00    -0.365 N 
HETATM   27  H   UNL     1       4.171  29.700  59.251  1.00  0.00     0.159 HD
HETATM   28  H   UNL     1       2.701  30.448  58.625  1.00  0.00     0.159 HD
HETATM   29  O   UNL     1       3.949  32.196  57.338  1.00  0.00    -0.266 OA
ENDBRANCH   8  25
TORSDOF 6
ENDMDL
MODEL 5
REMARK VINA RESULT:      -8.9      4.973      8.080
REMARK  6 active torsions:
REMARK  status: ('A' for Active; 'I' for Inactive)
REMARK    1  A    between atoms: C_2  and  C_3 
REMARK    2  A    between atoms: C_3  and  C_4 
REMARK    3  A    between atoms: C_3  and  C_10 
REMARK    4  A    between atoms: C_10  and  C_11 
REMARK       I    between atoms: C_11  and  N_12 
REMARK    5  A    between atoms: N_12  and  C_13 
REMARK    6  A    between atoms: C_20  and  C_21 
REMARK       I    between atoms: C_21  and  N_22 
ROOT
HETATM    1  C   UNL     1       4.575  26.925  52.500  1.00  0.00     0.035 A 
HETATM    2  C   UNL     1       4.754  26.750  51.121  1.00  0.00     0.046 A 
HETATM    3  C   UNL     1       4.325  27.757  50.228  1.00  0.00     0.030 A 
HETATM    4  C   UNL     1       3.712  28.893  50.742  1.00  0.00     0.063 A 
HETATM    5  N   UNL     1       3.403  29.661  49.655  1.00  0.00    -0.277 N 
HETATM    6  H   UNL     1       2.939  30.561  49.653  1.00  0.00     0.189 HD
HETATM    7  N   UNL     1       3.782  29.138  48.478  1.00  0.00    -0.168 NA
HETATM    8  C   UNL     1       4.359  27.962  48.816  1.00  0.00     0.156 A 
HETATM    9  C   UNL     1       3.512  29.097  52.109  1.00  0.00     0.034 A 
HETATM   10  C   UNL     1       3.967  28.094  52.975  1.00  0.00     0.032 A 
ENDROOT
BRANCH   1  11
HETATM   11  N   UNL     1       5.006  25.991  53.468  1.00  0.00    -0.327 N 
HETATM   12  C   UNL     1       6.230  25.950  54.107  1.00  0.00     0.223 C 
HETATM   13  O   UNL     1       7.200  26.661  53.864  1.00  0.00    -0.273 OA
HETATM   14  H   UNL     1       4.326  25.291  53.740  1.00  0.00     0.169 HD
BRANCH  12  15
HETATM   15  C   UNL     1       6.305  24.901  55.204  1.00  0.00     0.116 C 
BRANCH  15  16
HETATM   16  C   UNL     1       7.703  24.288  55.397  1.00  0.00     0.049 C 
BRANCH  16  17
HETATM   17  C   UNL     1       8.180  24.329  56.836  1.00  0.00    -0.027 C 
HETATM   18  C   UNL     1       8.247  25.441  57.583  1.00  0.00     0.007 C 
ENDBRANCH  16  17
BRANCH  16  19
HETATM   19  C   UNL     1       7.829  22.909  54.758  1.00  0.00    -0.050 A 
HETATM   20  C   UNL     1       7.923  22.730  53.369  1.00  0.00     0.008 A 
HETATM   21  C   UNL     1       8.062  21.452  52.820  1.00  0.00     0.001 A 
HETATM   22  C   UNL     1       8.102  20.336  53.651  1.00  0.00     0.000 A 
HETATM   23  C   UNL     1       8.007  20.494  55.030  1.00  0.00     0.001 A 
HETATM   24  C   UNL     1       7.876  21.770  55.581  1.00  0.00     0.008 A 
ENDBRANCH  16  19
ENDBRANCH  15  16
ENDBRANCH  12  15
ENDBRANCH   1  11
BRANCH   8  25
HETATM   25  C   UNL     1       4.936  27.076  47.795  1.00  0.00     0.270 C 
HETATM   26  N   UNL     1       6.104  27.537  47.251  1.00  0.00    -0.365 N 
HETATM   27  H   UNL     1       6.483  28.413  47.587  1.00  0.00     0.159 HD
HETATM   28  H   UNL     1       6.584  26.981  46.561  1.00  0.00     0.159 HD
HETATM   29  O   UNL     1       4.453  26.006  47.443  1.00  0.00    -0.266 OA
ENDBRANCH   8  25
TORSDOF 6
ENDMDL
MODEL 6
REMARK VINA RESULT:      -8.7      3.063      8.603
REMARK  6 active torsions:
REMARK  status: ('A' for Active; 'I' for Inactive)
REMARK    1  A    between atoms: C_2  and  C_3 
REMARK    2  A    between atoms: C_3  and  C_4 
REMARK    3  A    between atoms: C_3  and  C_10 
REMARK    4  A    between atoms: C_10  and  C_11 
REMARK       I    between atoms: C_11  and  N_12 
REMARK    5  A    between atoms: N_12  and  C_13 
REMARK    6  A    between atoms: C_20  and  C_21 
REMARK       I    between atoms: C_21  and  N_22 
ROOT
HETATM    1  C   UNL     1       7.457  25.450  54.891  1.00  0.00     0.035 A 
HETATM    2  C   UNL     1       7.781  24.217  55.474  1.00  0.00     0.046 A 
HETATM    3  C   UNL     1       8.004  23.093  54.650  1.00  0.00     0.030 A 
HETATM    4  C   UNL     1       7.873  23.233  53.274  1.00  0.00     0.063 A 
HETATM    5  N   UNL     1       8.130  21.995  52.757  1.00  0.00    -0.277 N 
HETATM    6  H   UNL     1       8.118  21.723  51.781  1.00  0.00     0.189 HD
HETATM    7  N   UNL     1       8.442  21.063  53.672  1.00  0.00    -0.168 NA
HETATM    8  C   UNL     1       8.373  21.728  54.848  1.00  0.00     0.156 A 
HETATM    9  C   UNL     1       7.546  24.444  52.660  1.00  0.00     0.034 A 
HETATM   10  C   UNL     1       7.352  25.550  53.498  1.00  0.00     0.032 A 
ENDROOT
BRANCH   1  11
HETATM   11  N   UNL     1       7.255  26.635  55.633  1.00  0.00    -0.327 N 
HETATM   12  C   UNL     1       7.807  26.964  56.856  1.00  0.00     0.223 C 
HETATM   13  O   UNL     1       8.489  26.231  57.564  1.00  0.00    -0.273 OA
HETATM   14  H   UNL     1       6.658  27.330  55.200  1.00  0.00     0.169 HD
BRANCH  12  15
HETATM   15  C   UNL     1       7.495  28.384  57.297  1.00  0.00     0.116 C 
BRANCH  15  16
HETATM   16  C   UNL     1       8.712  29.159  57.833  1.00  0.00     0.049 C 
BRANCH  16  17
HETATM   17  C   UNL     1       9.680  29.580  56.745  1.00  0.00    -0.027 C 
HETATM   18  C   UNL     1      11.015  29.547  56.860  1.00  0.00     0.007 C 
ENDBRANCH  16  17
BRANCH  16  19
HETATM   19  C   UNL     1       8.313  30.301  58.762  1.00  0.00    -0.050 A 
HETATM   20  C   UNL     1       7.125  31.030  58.590  1.00  0.00     0.008 A 
HETATM   21  C   UNL     1       6.780  32.053  59.476  1.00  0.00     0.001 A 
HETATM   22  C   UNL     1       7.619  32.369  60.541  1.00  0.00     0.000 A 
HETATM   23  C   UNL     1       8.802  31.660  60.725  1.00  0.00     0.001 A 
HETATM   24  C   UNL     1       9.145  30.631  59.846  1.00  0.00     0.008 A 
ENDBRANCH  16  19
ENDBRANCH  15  16
ENDBRANCH  12  15
ENDBRANCH   1  11
BRANCH   8  25
HETATM   25  C   UNL     1       8.671  21.056  56.122  1.00  0.00     0.270 C 
HETATM   26  N   UNL     1       9.533  20.000  56.007  1.00  0.00    -0.365 N 
HETATM   27  H   UNL     1       9.904  19.772  55.093  1.00  0.00     0.159 HD
HETATM   28  H   UNL     1       9.815  19.496  56.833  1.00  0.00     0.159 HD
HETATM   29  O   UNL     1       8.220  21.389  57.211  1.00  0.00    -0.266 OA
ENDBRANCH   8  25
TORSDOF 6
ENDMDL
MODEL 7
REMARK VINA RESULT:      -8.6      2.499      3.796
REMARK  6 active torsions:
REMARK  status: ('A' for Active; 'I' for Inactive)
REMARK    1  A    between atoms: C_2  and  C_3 
REMARK    2  A    between atoms: C_3  and  C_4 
REMARK    3  A    between atoms: C_3  and  C_10 
REMARK    4  A    between atoms: C_10  and  C_11 
REMARK       I    between atoms: C_11  and  N_12 
REMARK    5  A    between atoms: N_12  and  C_13 
REMARK    6  A    between atoms: C_20  and  C_21 
REMARK       I    between atoms: C_21  and  N_22 
ROOT
HETATM    1  C   UNL     1       5.416  28.246  56.528  1.00  0.00     0.035 A 
HETATM    2  C   UNL     1       6.361  28.882  57.346  1.00  0.00     0.046 A 
HETATM    3  C   UNL     1       6.183  30.240  57.690  1.00  0.00     0.030 A 
HETATM    4  C   UNL     1       5.080  30.920  57.189  1.00  0.00     0.063 A 
HETATM    5  N   UNL     1       5.187  32.193  57.675  1.00  0.00    -0.277 N 
HETATM    6  H   UNL     1       4.558  32.969  57.507  1.00  0.00     0.189 HD
HETATM    7  N   UNL     1       6.249  32.397  58.471  1.00  0.00    -0.168 NA
HETATM    8  C   UNL     1       6.873  31.197  58.494  1.00  0.00     0.156 A 
HETATM    9  C   UNL     1       4.123  30.320  56.368  1.00  0.00     0.034 A 
HETATM   10  C   UNL     1       4.311  28.966  56.059  1.00  0.00     0.032 A 
ENDROOT
BRANCH   1  11
HETATM   11  N   UNL     1       5.491  26.883  56.164  1.00  0.00    -0.327 N 
HETATM   12  C   UNL     1       6.046  26.351  55.016  1.00  0.00     0.223 C 
HETATM   13  O   UNL     1       6.479  26.983  54.058  1.00  0.00    -0.273 OA
HETATM   14  H   UNL     1       5.118  26.225  56.837  1.00  0.00     0.169 HD
BRANCH  12  15
HETATM   15  C   UNL     1       6.092  24.832  55.015  1.00  0.00     0.116 C 
BRANCH  15  16
HETATM   16  C   UNL     1       7.459  24.242  55.409  1.00  0.00     0.049 C 
BRANCH  16  17
HETATM   17  C   UNL     1       7.717  24.278  56.902  1.00  0.00    -0.027 C 
HETATM   18  C   UNL     1       8.457  25.209  57.523  1.00  0.00     0.007 C 
ENDBRANCH  16  17
BRANCH  16  19
HETATM   19  C   UNL     1       7.702  22.871  54.787  1.00  0.00    -0.050 A 
HETATM   20  C   UNL     1       7.766  21.697  55.553  1.00  0.00     0.008 A 
HETATM   21  C   UNL     1       7.965  20.455  54.945  1.00  0.00     0.001 A 
HETATM   22  C   UNL     1       8.112  20.369  53.564  1.00  0.00     0.000 A 
HETATM   23  C   UNL     1       8.055  21.522  52.787  1.00  0.00     0.001 A 
HETATM   24  C   UNL     1       7.847  22.763  53.392  1.00  0.00     0.008 A 
ENDBRANCH  16  19
ENDBRANCH  15  16
ENDBRANCH  12  15
ENDBRANCH   1  11
BRANCH   8  25
HETATM   25  C   UNL     1       8.094  30.988  59.286  1.00  0.00     0.270 C 
HETATM   26  N   UNL     1       9.248  31.008  58.550  1.00  0.00    -0.365 N 
HETATM   27  H   UNL     1       9.185  31.176  57.554  1.00  0.00     0.159 HD
HETATM   28  H   UNL     1      10.135  30.899  59.015  1.00  0.00     0.159 HD
HETATM   29  O   UNL     1       8.121  30.819  60.500  1.00  0.00    -0.266 OA
ENDBRANCH   8  25
TORSDOF 6
ENDMDL
MODEL 8
REMARK VINA RESULT:      -8.4      5.588      8.049
REMARK  6 active torsions:
REMARK  status: ('A' for Active; 'I' for Inactive)
REMARK    1  A    between atoms: C_2  and  C_3 
REMARK    2  A    between atoms: C_3  and  C_4 
REMARK    3  A    between atoms: C_3  and  C_10 
REMARK    4  A    between atoms: C_10  and  C_11 
REMARK       I    between atoms: C_11  and  N_12 
REMARK    5  A    between atoms: N_12  and  C_13 
REMARK    6  A    between atoms: C_20  and  C_21 
REMARK       I    between atoms: C_21  and  N_22 
ROOT
HETATM    1  C   UNL     1       4.767  26.538  50.444  1.00  0.00     0.035 A 
HETATM    2  C   UNL     1       4.768  27.935  50.562  1.00  0.00     0.046 A 
HETATM    3  C   UNL     1       4.611  28.732  49.408  1.00  0.00     0.030 A 
HETATM    4  C   UNL     1       4.480  28.108  48.173  1.00  0.00     0.063 A 
HETATM    5  N   UNL     1       4.362  29.121  47.265  1.00  0.00    -0.277 N 
HETATM    6  H   UNL     1       4.257  29.036  46.261  1.00  0.00     0.189 HD
HETATM    7  N   UNL     1       4.378  30.353  47.799  1.00  0.00    -0.168 NA
HETATM    8  C   UNL     1       4.527  30.129  49.125  1.00  0.00     0.156 A 
HETATM    9  C   UNL     1       4.481  26.720  48.019  1.00  0.00     0.034 A 
HETATM   10  C   UNL     1       4.616  25.951  49.182  1.00  0.00     0.032 A 
ENDROOT
BRANCH   1  11
HETATM   11  N   UNL     1       4.880  25.662  51.547  1.00  0.00    -0.327 N 
HETATM   12  C   UNL     1       5.990  25.453  52.343  1.00  0.00     0.223 C 
HETATM   13  O   UNL     1       7.110  25.918  52.162  1.00  0.00    -0.273 OA
HETATM   14  H   UNL     1       4.039  25.152  51.792  1.00  0.00     0.169 HD
BRANCH  12  15
HETATM   15  C   UNL     1       5.716  24.552  53.535  1.00  0.00     0.116 C 
BRANCH  15  16
HETATM   16  C   UNL     1       6.953  24.266  54.407  1.00  0.00     0.049 C 
BRANCH  16  17
HETATM   17  C   UNL     1       6.783  24.706  55.848  1.00  0.00    -0.027 C 
HETATM   18  C   UNL     1       5.692  25.316  56.333  1.00  0.00     0.007 C 
ENDBRANCH  16  17
BRANCH  16  19
HETATM   19  C   UNL     1       7.445  22.829  54.267  1.00  0.00    -0.050 A 
HETATM   20  C   UNL     1       7.829  22.282  53.033  1.00  0.00     0.008 A 
HETATM   21  C   UNL     1       8.299  20.970  52.947  1.00  0.00     0.001 A 
HETATM   22  C   UNL     1       8.384  20.182  54.092  1.00  0.00     0.000 A 
HETATM   23  C   UNL     1       8.004  20.705  55.324  1.00  0.00     0.001 A 
HETATM   24  C   UNL     1       7.542  22.020  55.413  1.00  0.00     0.008 A 
ENDBRANCH  16  19
ENDBRANCH  15  16
ENDBRANCH  12  15
ENDBRANCH   1  11
BRANCH   8  25
HETATM   25  C   UNL     1       4.571  31.242  50.085  1.00  0.00     0.270 C 
HETATM   26  N   UNL     1       5.764  31.363  50.745  1.00  0.00    -0.365 N 
HETATM   27  H   UNL     1       6.509  30.715  50.524  1.00  0.00     0.159 HD
HETATM   28  H   UNL     1       5.893  32.115  51.404  1.00  0.00     0.159 HD
HETATM   29  O   UNL     1       3.649  32.021  50.297  1.00  0.00    -0.266 OA
ENDBRANCH   8  25
TORSDOF 6
ENDMDL
MODEL 9
REMARK VINA RESULT:      -8.4      5.362      8.021
REMARK  6 active torsions:
REMARK  status: ('A' for Active; 'I' for Inactive)
REMARK    1  A    between atoms: C_2  and  C_3 
REMARK    2  A    between atoms: C_3  and  C_4 
REMARK    3  A    between atoms: C_3  and  C_10 
REMARK    4  A    between atoms: C_10  and  C_11 
REMARK       I    between atoms: C_11  and  N_12 
REMARK    5  A    between atoms: N_12  and  C_13 
REMARK    6  A    between atoms: C_20  and  C_21 
REMARK       I    between atoms: C_21  and  N_22 
ROOT
HETATM    1  C   UNL     1       5.545  25.627  51.966  1.00  0.00     0.035 A 
HETATM    2  C   UNL     1       5.204  25.949  50.645  1.00  0.00     0.046 A 
HETATM    3  C   UNL     1       4.490  27.137  50.379  1.00  0.00     0.030 A 
HETATM    4  C   UNL     1       4.122  27.951  51.442  1.00  0.00     0.063 A 
HETATM    5  N   UNL     1       3.444  28.996  50.881  1.00  0.00    -0.277 N 
HETATM    6  H   UNL     1       3.022  29.782  51.361  1.00  0.00     0.189 HD
HETATM    7  N   UNL     1       3.359  28.950  49.541  1.00  0.00    -0.168 NA
HETATM    8  C   UNL     1       4.005  27.807  49.215  1.00  0.00     0.156 A 
HETATM    9  C   UNL     1       4.439  27.659  52.770  1.00  0.00     0.034 A 
HETATM   10  C   UNL     1       5.168  26.486  53.006  1.00  0.00     0.032 A 
ENDROOT
BRANCH   1  11
HETATM   11  N   UNL     1       6.290  24.481  52.324  1.00  0.00    -0.327 N 
HETATM   12  C   UNL     1       7.595  24.437  52.778  1.00  0.00     0.223 C 
HETATM   13  O   UNL     1       8.371  25.384  52.849  1.00  0.00    -0.273 OA
HETATM   14  H   UNL     1       5.798  23.598  52.263  1.00  0.00     0.169 HD
BRANCH  12  15
HETATM   15  C   UNL     1       8.035  23.050  53.214  1.00  0.00     0.116 C 
BRANCH  15  16
HETATM   16  C   UNL     1       7.466  22.605  54.574  1.00  0.00     0.049 C 
BRANCH  16  17
HETATM   17  C   UNL     1       8.013  21.272  55.043  1.00  0.00    -0.027 C 
HETATM   18  C   UNL     1       7.388  20.453  55.901  1.00  0.00     0.007 C 
ENDBRANCH  16  17
BRANCH  16  19
HETATM   19  C   UNL     1       7.557  23.702  55.630  1.00  0.00    -0.050 A 
HETATM   20  C   UNL     1       8.749  23.991  56.314  1.00  0.00     0.008 A 
HETATM   21  C   UNL     1       8.801  25.020  57.258  1.00  0.00     0.001 A 
HETATM   22  C   UNL     1       7.661  25.769  57.537  1.00  0.00     0.000 A 
HETATM   23  C   UNL     1       6.470  25.496  56.871  1.00  0.00     0.001 A 
HETATM   24  C   UNL     1       6.419  24.473  55.922  1.00  0.00     0.008 A 
ENDBRANCH  16  19
ENDBRANCH  15  16
ENDBRANCH  12  15
ENDBRANCH   1  11
BRANCH   8  25
HETATM   25  C   UNL     1       4.157  27.392  47.813  1.00  0.00     0.270 C 
HETATM   26  N   UNL     1       2.977  27.309  47.124  1.00  0.00    -0.365 N 
HETATM   27  H   UNL     1       2.117  27.546  47.603  1.00  0.00     0.159 HD
HETATM   28  H   UNL     1       2.988  27.057  46.148  1.00  0.00     0.159 HD
HETATM   29  O   UNL     1       5.226  27.145  47.268  1.00  0.00    -0.266 OA
ENDBRANCH   8  25
TORSDOF 6
ENDMDL
MODEL 10
REMARK VINA RESULT:      -8.0      5.187      8.183
REMARK  6 active torsions:
REMARK  status: ('A' for Active; 'I' for Inactive)
REMARK    1  A    between atoms: C_2  and  C_3 
REMARK    2  A    between atoms: C_3  and  C_4 
REMARK    3  A    between atoms: C_3  and  C_10 
REMARK    4  A    between atoms: C_10  and  C_11 
REMARK       I    between atoms: C_11  and  N_12 
REMARK    5  A    between atoms: N_12  and  C_13 
REMARK    6  A    between atoms: C_20  and  C_21 
REMARK       I    between atoms: C_21  and  N_22 
ROOT
HETATM    1  C   UNL     1       7.188  25.070  53.543  1.00  0.00     0.035 A 
HETATM    2  C   UNL     1       7.484  23.705  53.667  1.00  0.00     0.046 A 
HETATM    3  C   UNL     1       7.814  23.176  54.934  1.00  0.00     0.030 A 
HETATM    4  C   UNL     1       7.858  24.031  56.028  1.00  0.00     0.063 A 
HETATM    5  N   UNL     1       8.212  23.245  57.088  1.00  0.00    -0.277 N 
HETATM    6  H   UNL     1       8.347  23.536  58.049  1.00  0.00     0.189 HD
HETATM    7  N   UNL     1       8.378  21.947  56.788  1.00  0.00    -0.168 NA
HETATM    8  C   UNL     1       8.132  21.887  55.459  1.00  0.00     0.156 A 
HETATM    9  C   UNL     1       7.574  25.395  55.939  1.00  0.00     0.034 A 
HETATM   10  C   UNL     1       7.228  25.892  54.676  1.00  0.00     0.032 A 
ENDROOT
BRANCH   1  11
HETATM   11  N   UNL     1       6.811  25.679  52.326  1.00  0.00    -0.327 N 
HETATM   12  C   UNL     1       5.603  26.280  52.027  1.00  0.00     0.223 C 
HETATM   13  O   UNL     1       4.604  26.294  52.738  1.00  0.00    -0.273 OA
HETATM   14  H   UNL     1       7.521  25.699  51.603  1.00  0.00     0.169 HD
BRANCH  12  15
HETATM   15  C   UNL     1       5.590  26.969  50.673  1.00  0.00     0.116 C 
BRANCH  15  16
HETATM   16  C   UNL     1       4.296  27.747  50.373  1.00  0.00     0.049 C 
BRANCH  16  17
HETATM   17  C   UNL     1       4.493  29.250  50.353  1.00  0.00    -0.027 C 
HETATM   18  C   UNL     1       5.637  29.862  50.014  1.00  0.00     0.007 C 
ENDBRANCH  16  17
BRANCH  16  19
HETATM   19  C   UNL     1       3.569  27.216  49.142  1.00  0.00    -0.050 A 
HETATM   20  C   UNL     1       2.666  27.998  48.405  1.00  0.00     0.008 A 
HETATM   21  C   UNL     1       2.038  27.486  47.268  1.00  0.00     0.001 A 
HETATM   22  C   UNL     1       2.296  26.182  46.854  1.00  0.00     0.000 A 
HETATM   23  C   UNL     1       3.186  25.390  47.573  1.00  0.00     0.001 A 
HETATM   24  C   UNL     1       3.822  25.903  48.706  1.00  0.00     0.008 A 
ENDBRANCH  16  19
ENDBRANCH  15  16
ENDBRANCH  12  15
ENDBRANCH   1  11
BRANCH   8  25
HETATM   25  C   UNL     1       8.189  20.611  54.731  1.00  0.00     0.270 C 
HETATM   26  N   UNL     1       8.914  19.638  55.364  1.00  0.00    -0.365 N 
HETATM   27  H   UNL     1       9.330  19.850  56.262  1.00  0.00     0.159 HD
HETATM   28  H   UNL     1       8.986  18.723  54.949  1.00  0.00     0.159 HD
HETATM   29  O   UNL     1       7.641  20.393  53.656  1.00  0.00    -0.266 OA
ENDBRANCH   8  25
TORSDOF 6
ENDMDL
