MODEL 1
REMARK VINA RESULT:      -9.5      0.000      0.000
REMARK  5 active torsions:
REMARK  status: ('A' for Active; 'I' for Inactive)
REMARK    1  A    between atoms: C_2  and  C_3 
REMARK    2  A    between atoms: N_4  and  C_5 
REMARK    3  A    between atoms: C_5  and  C_6 
REMARK    4  A    between atoms: C_11  and  N_12 
REMARK       I    between atoms: N_12  and  C_13 
REMARK       I    between atoms: C_13  and  N_14 
REMARK    5  A    between atoms: N_14  and  C_15 
ROOT
HETATM    1  N   UNL     1       7.501  28.665  54.491  1.00  0.00    -0.306 N 
HETATM    2  C   UNL     1       7.207  27.421  54.013  1.00  0.00     0.321 C 
HETATM    3  N   UNL     1       7.104  26.424  54.941  1.00  0.00    -0.333 N 
HETATM    4  O   UNL     1       6.984  27.267  52.817  1.00  0.00    -0.247 OA
HETATM    5  H   UNL     1       7.365  29.389  53.801  1.00  0.00     0.171 HD
HETATM    6  H   UNL     1       6.784  26.754  55.843  1.00  0.00     0.165 HD
ENDROOT
BRANCH   1   7
HETATM    7  C   UNL     1       8.211  29.009  55.627  1.00  0.00     0.080 A 
HETATM    8  C   UNL     1       7.689  29.096  56.910  1.00  0.00     0.058 A 
HETATM    9  N   UNL     1       8.721  29.615  57.674  1.00  0.00    -0.272 N 
HETATM   10  N   UNL     1       9.880  29.738  57.004  1.00  0.00    -0.182 NA
HETATM   11  C   UNL     1       9.560  29.405  55.756  1.00  0.00     0.170 A 
BRANCH   8  12
HETATM   12  C   UNL     1       6.362  28.769  57.533  1.00  0.00     0.057 C 
HETATM   13  C   UNL     1       5.203  29.684  57.178  1.00  0.00     0.011 C 
ENDBRANCH   8  12
BRANCH   9  14
HETATM   14  C   UNL     1       8.689  30.051  59.063  1.00  0.00     0.155 C 
BRANCH  14  15
HETATM   15  C   UNL     1       8.509  31.572  59.225  1.00  0.00    -0.003 C 
HETATM   16  C   UNL     1       7.059  31.954  59.527  1.00  0.00     0.011 C 
HETATM   17  C   UNL     1       9.420  32.086  60.341  1.00  0.00     0.011 C 
ENDBRANCH  14  15
ENDBRANCH   9  14
ENDBRANCH   1   7
BRANCH   3  18
HETATM   18  C   UNL     1       6.778  25.032  54.588  1.00  0.00     0.039 C 
HETATM   19  C   UNL     1       5.308  24.957  54.122  1.00  0.00     0.039 C 
HETATM   20  C   UNL     1       7.707  24.534  53.433  1.00  0.00     0.070 C 
HETATM   21  C   UNL     1       7.866  23.077  53.742  1.00  0.00    -0.049 A 
HETATM   22  C   UNL     1       7.481  22.797  55.055  1.00  0.00    -0.049 A 
HETATM   23  C   UNL     1       8.360  22.081  52.916  1.00  0.00     0.007 A 
HETATM   24  C   UNL     1       7.030  24.037  55.763  1.00  0.00     0.070 C 
HETATM   25  C   UNL     1       7.574  21.515  55.569  1.00  0.00     0.007 A 
HETATM   26  C   UNL     1       8.057  20.501  54.741  1.00  0.00     0.001 A 
HETATM   27  C   UNL     1       8.449  20.783  53.424  1.00  0.00     0.001 A 
ENDBRANCH   3  18
TORSDOF 5
ENDMDL
MODEL 2
REMARK VINA RESULT:      -9.2      1.314      2.064
REMARK  5 active torsions:
REMARK  status: ('A' for Active; 'I' for Inactive)
REMARK    1  A    between atoms: C_2  and  C_3 
REMARK    2  A    between atoms: N_4  and  C_5 
REMARK    3  A    between atoms: C_5  and  C_6 
REMARK    4  A    between atoms: C_11  and  N_12 
REMARK       I    between atoms: N_12  and  C_13 
REMARK       I    between atoms: C_13  and  N_14 
REMARK    5  A    between atoms: N_14  and  C_15 
ROOT
HETATM    1  N   UNL     1       7.274  29.085  55.083  1.00  0.00    -0.306 N 
HETATM    2  C   UNL     1       7.361  27.745  54.840  1.00  0.00     0.321 C 
HETATM    3  N   UNL     1       6.762  26.923  55.751  1.00  0.00    -0.333 N 
HETATM    4  O   UNL     1       7.894  27.348  53.808  1.00  0.00    -0.247 OA
HETATM    5  H   UNL     1       7.547  29.644  54.288  1.00  0.00     0.171 HD
HETATM    6  H   UNL     1       5.960  27.347  56.200  1.00  0.00     0.165 HD
ENDROOT
BRANCH   1   7
HETATM    7  C   UNL     1       7.162  29.738  56.297  1.00  0.00     0.080 A 
HETATM    8  C   UNL     1       8.129  29.763  57.292  1.00  0.00     0.058 A 
HETATM    9  N   UNL     1       7.517  30.396  58.361  1.00  0.00    -0.272 N 
HETATM   10  N   UNL     1       6.296  30.882  58.073  1.00  0.00    -0.182 NA
HETATM   11  C   UNL     1       6.069  30.451  56.835  1.00  0.00     0.170 A 
BRANCH   8  12
HETATM   12  C   UNL     1       9.547  29.277  57.398  1.00  0.00     0.057 C 
HETATM   13  C   UNL     1      10.632  30.269  57.018  1.00  0.00     0.011 C 
ENDBRANCH   8  12
BRANCH   9  14
HETATM   14  C   UNL     1       8.014  30.568  59.718  1.00  0.00     0.155 C 
BRANCH  14  15
HETATM   15  C   UNL     1       8.384  32.023  60.058  1.00  0.00    -0.003 C 
HETATM   16  C   UNL     1       7.378  32.669  61.013  1.00  0.00     0.011 C 
HETATM   17  C   UNL     1       9.783  32.073  60.673  1.00  0.00     0.011 C 
ENDBRANCH  14  15
ENDBRANCH   9  14
ENDBRANCH   1   7
BRANCH   3  18
HETATM   18  C   UNL     1       6.756  25.456  55.624  1.00  0.00     0.039 C 
HETATM   19  C   UNL     1       5.610  24.877  56.482  1.00  0.00     0.039 C 
HETATM   20  C   UNL     1       6.539  25.042  54.134  1.00  0.00     0.070 C 
HETATM   21  C   UNL     1       7.331  23.774  54.024  1.00  0.00    -0.049 A 
HETATM   22  C   UNL     1       8.218  23.643  55.094  1.00  0.00    -0.049 A 
HETATM   23  C   UNL     1       7.286  22.827  53.014  1.00  0.00     0.007 A 
HETATM   24  C   UNL     1       8.118  24.810  56.027  1.00  0.00     0.070 C 
HETATM   25  C   UNL     1       9.076  22.559  55.183  1.00  0.00     0.007 A 
HETATM   26  C   UNL     1       9.029  21.592  54.178  1.00  0.00     0.001 A 
HETATM   27  C   UNL     1       8.141  21.726  53.100  1.00  0.00     0.001 A 
ENDBRANCH   3  18
TORSDOF 5
ENDMDL
MODEL 3
REMARK VINA RESULT:      -8.7      2.459      3.961
REMARK  5 active torsions:
REMARK  status: ('A' for Active; 'I' for Inactive)
REMARK    1  A    between atoms: C_2  and  C_3 
REMARK    2  A    between atoms: N_4  and  C_5 
REMARK    3  A    between atoms: C_5  and  C_6 
REMARK    4  A    between atoms: C_11  and  N_12 
REMARK       I    between atoms: N_12  and  C_13 
REMARK       I    between atoms: C_13  and  N_14 
REMARK    5  A    between atoms: N_14  and  C_15 
ROOT
HETATM    1  N   UNL     1       8.525  30.274  57.959  1.00  0.00    -0.306 N 
HETATM    2  C   UNL     1       8.349  29.009  57.480  1.00  0.00     0.321 C 
HETATM    3  N   UNL     1       7.059  28.579  57.361  1.00  0.00    -0.333 N 
HETATM    4  O   UNL     1       9.323  28.355  57.118  1.00  0.00    -0.247 OA
HETATM    5  H   UNL     1       9.468  30.610  57.834  1.00  0.00     0.171 HD
HETATM    6  H   UNL     1       6.406  29.330  57.175  1.00  0.00     0.165 HD
ENDROOT
BRANCH   1   7
HETATM    7  C   UNL     1       7.713  30.994  58.817  1.00  0.00     0.080 A 
HETATM    8  C   UNL     1       7.906  31.134  60.184  1.00  0.00     0.058 A 
HETATM    9  N   UNL     1       6.775  31.798  60.632  1.00  0.00    -0.272 N 
HETATM   10  N   UNL     1       5.957  32.197  59.642  1.00  0.00    -0.182 NA
HETATM   11  C   UNL     1       6.508  31.678  58.547  1.00  0.00     0.170 A 
BRANCH   8  12
HETATM   12  C   UNL     1       8.991  30.735  61.143  1.00  0.00     0.057 C 
HETATM   13  C   UNL     1      10.086  31.758  61.390  1.00  0.00     0.011 C 
ENDBRANCH   8  12
BRANCH   9  14
HETATM   14  C   UNL     1       6.374  32.081  62.002  1.00  0.00     0.155 C 
BRANCH  14  15
HETATM   15  C   UNL     1       7.030  33.346  62.585  1.00  0.00    -0.003 C 
HETATM   16  C   UNL     1       6.029  34.491  62.755  1.00  0.00     0.011 C 
HETATM   17  C   UNL     1       7.674  33.021  63.934  1.00  0.00     0.011 C 
ENDBRANCH  14  15
ENDBRANCH   9  14
ENDBRANCH   1   7
BRANCH   3  18
HETATM   18  C   UNL     1       6.702  27.245  56.847  1.00  0.00     0.039 C 
HETATM   19  C   UNL     1       5.171  27.061  56.933  1.00  0.00     0.039 C 
HETATM   20  C   UNL     1       7.152  27.100  55.358  1.00  0.00     0.070 C 
HETATM   21  C   UNL     1       7.497  25.646  55.256  1.00  0.00    -0.049 A 
HETATM   22  C   UNL     1       7.652  25.078  56.523  1.00  0.00    -0.049 A 
HETATM   23  C   UNL     1       7.697  24.896  54.110  1.00  0.00     0.007 A 
HETATM   24  C   UNL     1       7.434  26.092  57.602  1.00  0.00     0.070 C 
HETATM   25  C   UNL     1       8.003  23.746  56.672  1.00  0.00     0.007 A 
HETATM   26  C   UNL     1       8.194  22.978  55.522  1.00  0.00     0.001 A 
HETATM   27  C   UNL     1       8.043  23.550  54.250  1.00  0.00     0.001 A 
ENDBRANCH   3  18
TORSDOF 5
ENDMDL
MODEL 4
REMARK VINA RESULT:      -8.4      1.892      2.668
REMARK  5 active torsions:
REMARK  status: ('A' for Active; 'I' for Inactive)
REMARK    1  A    between atoms: C_2  and  C_3 
REMARK    2  A    between atoms: N_4  and  C_5 
REMARK    3  A    between atoms: C_5  and  C_6 
REMARK    4  A    between atoms: C_11  and  N_12 
REMARK       I    between atoms: N_12  and  C_13 
REMARK       I    between atoms: C_13  and  N_14 
REMARK    5  A    between atoms: N_14  and  C_15 
ROOT
HETATM    1  N   UNL     1       7.673  29.717  56.483  1.00  0.00    -0.306 N 
HETATM    2  C   UNL     1       7.594  28.449  55.986  1.00  0.00     0.321 C 
HETATM    3  N   UNL     1       6.970  27.525  56.775  1.00  0.00    -0.333 N 
HETATM    4  O   UNL     1       8.010  28.212  54.856  1.00  0.00    -0.247 OA
HETATM    5  H   UNL     1       7.953  30.391  55.787  1.00  0.00     0.171 HD
HETATM    6  H   UNL     1       6.252  27.928  57.363  1.00  0.00     0.165 HD
ENDROOT
BRANCH   1   7
HETATM    7  C   UNL     1       7.716  30.127  57.803  1.00  0.00     0.080 A 
HETATM    8  C   UNL     1       6.805  30.977  58.415  1.00  0.00     0.058 A 
HETATM    9  N   UNL     1       7.337  31.216  59.672  1.00  0.00    -0.272 N 
HETATM   10  N   UNL     1       8.433  30.485  59.941  1.00  0.00    -0.182 NA
HETATM   11  C   UNL     1       8.682  29.854  58.796  1.00  0.00     0.170 A 
BRANCH   8  12
HETATM   12  C   UNL     1       5.506  31.608  57.999  1.00  0.00     0.057 C 
HETATM   13  C   UNL     1       4.339  30.665  57.768  1.00  0.00     0.011 C 
ENDBRANCH   8  12
BRANCH   9  14
HETATM   14  C   UNL     1       6.876  32.151  60.687  1.00  0.00     0.155 C 
BRANCH  14  15
HETATM   15  C   UNL     1       7.046  31.628  62.126  1.00  0.00    -0.003 C 
HETATM   16  C   UNL     1       8.132  32.385  62.893  1.00  0.00     0.011 C 
HETATM   17  C   UNL     1       5.718  31.734  62.876  1.00  0.00     0.011 C 
ENDBRANCH  14  15
ENDBRANCH   9  14
ENDBRANCH   1   7
BRANCH   3  18
HETATM   18  C   UNL     1       6.793  26.119  56.375  1.00  0.00     0.039 C 
HETATM   19  C   UNL     1       5.636  25.502  57.192  1.00  0.00     0.039 C 
HETATM   20  C   UNL     1       6.450  26.027  54.854  1.00  0.00     0.070 C 
HETATM   21  C   UNL     1       7.087  24.733  54.449  1.00  0.00    -0.049 A 
HETATM   22  C   UNL     1       8.011  24.307  55.406  1.00  0.00    -0.049 A 
HETATM   23  C   UNL     1       6.882  24.010  53.286  1.00  0.00     0.007 A 
HETATM   24  C   UNL     1       8.093  25.274  56.547  1.00  0.00     0.070 C 
HETATM   25  C   UNL     1       8.745  23.147  55.226  1.00  0.00     0.007 A 
HETATM   26  C   UNL     1       8.536  22.403  54.063  1.00  0.00     0.001 A 
HETATM   27  C   UNL     1       7.612  22.833  53.099  1.00  0.00     0.001 A 
ENDBRANCH   3  18
TORSDOF 5
ENDMDL
MODEL 5
REMARK VINA RESULT:      -8.2      2.404      3.184
REMARK  5 active torsions:
REMARK  status: ('A' for Active; 'I' for Inactive)
REMARK    1  A    between atoms: C_2  and  C_3 
REMARK    2  A    between atoms: N_4  and  C_5 
REMARK    3  A    between atoms: C_5  and  C_6 
REMARK    4  A    between atoms: C_11  and  N_12 
REMARK       I    between atoms: N_12  and  C_13 
REMARK       I    between atoms: C_13  and  N_14 
REMARK    5  A    between atoms: N_14  and  C_15 
ROOT
HETATM    1  N   UNL     1       4.169  26.803  53.487  1.00  0.00    -0.306 N 
HETATM    2  C   UNL     1       5.048  25.859  53.040  1.00  0.00     0.321 C 
HETATM    3  N   UNL     1       6.173  25.674  53.791  1.00  0.00    -0.333 N 
HETATM    4  O   UNL     1       4.766  25.185  52.054  1.00  0.00    -0.247 OA
HETATM    5  H   UNL     1       3.276  26.755  53.020  1.00  0.00     0.171 HD
HETATM    6  H   UNL     1       6.029  25.866  54.774  1.00  0.00     0.165 HD
ENDROOT
BRANCH   1   7
HETATM    7  C   UNL     1       4.427  27.941  54.229  1.00  0.00     0.080 A 
HETATM    8  C   UNL     1       4.677  27.976  55.594  1.00  0.00     0.058 A 
HETATM    9  N   UNL     1       4.722  29.325  55.908  1.00  0.00    -0.272 N 
HETATM   10  N   UNL     1       4.650  30.131  54.834  1.00  0.00    -0.182 NA
HETATM   11  C   UNL     1       4.436  29.294  53.823  1.00  0.00     0.170 A 
BRANCH   8  12
HETATM   12  C   UNL     1       4.877  26.934  56.657  1.00  0.00     0.057 C 
HETATM   13  C   UNL     1       6.313  26.627  57.043  1.00  0.00     0.011 C 
ENDBRANCH   8  12
BRANCH   9  14
HETATM   14  C   UNL     1       4.810  29.947  57.221  1.00  0.00     0.155 C 
BRANCH  14  15
HETATM   15  C   UNL     1       6.027  30.876  57.380  1.00  0.00    -0.003 C 
HETATM   16  C   UNL     1       5.690  32.141  58.174  1.00  0.00     0.011 C 
HETATM   17  C   UNL     1       7.167  30.125  58.070  1.00  0.00     0.011 C 
ENDBRANCH  14  15
ENDBRANCH   9  14
ENDBRANCH   1   7
BRANCH   3  18
HETATM   18  C   UNL     1       7.210  24.685  53.450  1.00  0.00     0.039 C 
HETATM   19  C   UNL     1       8.136  25.274  52.363  1.00  0.00     0.039 C 
HETATM   20  C   UNL     1       8.062  24.336  54.713  1.00  0.00     0.070 C 
HETATM   21  C   UNL     1       8.418  22.899  54.485  1.00  0.00    -0.049 A 
HETATM   22  C   UNL     1       7.602  22.329  53.504  1.00  0.00    -0.049 A 
HETATM   23  C   UNL     1       9.377  22.145  55.140  1.00  0.00     0.007 A 
HETATM   24  C   UNL     1       6.613  23.323  52.979  1.00  0.00     0.070 C 
HETATM   25  C   UNL     1       7.732  20.996  53.151  1.00  0.00     0.007 A 
HETATM   26  C   UNL     1       8.707  20.232  53.795  1.00  0.00     0.001 A 
HETATM   27  C   UNL     1       9.522  20.802  54.784  1.00  0.00     0.001 A 
ENDBRANCH   3  18
TORSDOF 5
ENDMDL
MODEL 6
REMARK VINA RESULT:      -8.1      4.593      8.043
REMARK  5 active torsions:
REMARK  status: ('A' for Active; 'I' for Inactive)
REMARK    1  A    between atoms: C_2  and  C_3 
REMARK    2  A    between atoms: N_4  and  C_5 
REMARK    3  A    between atoms: C_5  and  C_6 
REMARK    4  A    between atoms: C_11  and  N_12 
REMARK       I    between atoms: N_12  and  C_13 
REMARK       I    between atoms: C_13  and  N_14 
REMARK    5  A    between atoms: N_14  and  C_15 
ROOT
HETATM    1  N   UNL     1       6.323  27.005  53.242  1.00  0.00    -0.306 N 
HETATM    2  C   UNL     1       5.776  27.688  52.195  1.00  0.00     0.321 C 
HETATM    3  N   UNL     1       5.337  26.935  51.143  1.00  0.00    -0.333 N 
HETATM    4  O   UNL     1       5.640  28.905  52.269  1.00  0.00    -0.247 OA
HETATM    5  H   UNL     1       6.440  27.579  54.063  1.00  0.00     0.171 HD
HETATM    6  H   UNL     1       5.023  26.014  51.419  1.00  0.00     0.165 HD
ENDROOT
BRANCH   1   7
HETATM    7  C   UNL     1       6.982  25.788  53.231  1.00  0.00     0.080 A 
HETATM    8  C   UNL     1       7.041  24.892  54.290  1.00  0.00     0.058 A 
HETATM    9  N   UNL     1       7.924  23.911  53.870  1.00  0.00    -0.272 N 
HETATM   10  N   UNL     1       8.320  24.052  52.592  1.00  0.00    -0.182 NA
HETATM   11  C   UNL     1       7.777  25.208  52.219  1.00  0.00     0.170 A 
BRANCH   8  12
HETATM   12  C   UNL     1       6.396  24.816  55.644  1.00  0.00     0.057 C 
HETATM   13  C   UNL     1       7.120  25.518  56.779  1.00  0.00     0.011 C 
ENDBRANCH   8  12
BRANCH   9  14
HETATM   14  C   UNL     1       8.473  22.800  54.633  1.00  0.00     0.155 C 
BRANCH  14  15
HETATM   15  C   UNL     1       7.661  21.499  54.493  1.00  0.00    -0.003 C 
HETATM   16  C   UNL     1       8.148  20.634  53.328  1.00  0.00     0.011 C 
HETATM   17  C   UNL     1       7.736  20.698  55.794  1.00  0.00     0.011 C 
ENDBRANCH  14  15
ENDBRANCH   9  14
ENDBRANCH   1   7
BRANCH   3  18
HETATM   18  C   UNL     1       4.711  27.521  49.945  1.00  0.00     0.039 C 
HETATM   19  C   UNL     1       5.715  28.477  49.265  1.00  0.00     0.039 C 
HETATM   20  C   UNL     1       4.313  26.395  48.937  1.00  0.00     0.070 C 
HETATM   21  C   UNL     1       3.079  26.950  48.293  1.00  0.00    -0.049 A 
HETATM   22  C   UNL     1       2.555  28.007  49.040  1.00  0.00    -0.049 A 
HETATM   23  C   UNL     1       2.449  26.511  47.140  1.00  0.00     0.007 A 
HETATM   24  C   UNL     1       3.378  28.266  50.264  1.00  0.00     0.070 C 
HETATM   25  C   UNL     1       1.394  28.653  48.649  1.00  0.00     0.007 A 
HETATM   26  C   UNL     1       0.759  28.228  47.481  1.00  0.00     0.001 A 
HETATM   27  C   UNL     1       1.283  27.163  46.733  1.00  0.00     0.001 A 
ENDBRANCH   3  18
TORSDOF 5
ENDMDL
MODEL 7
REMARK VINA RESULT:      -7.8      3.370      8.013
REMARK  5 active torsions:
REMARK  status: ('A' for Active; 'I' for Inactive)
REMARK    1  A    between atoms: C_2  and  C_3 
REMARK    2  A    between atoms: N_4  and  C_5 
REMARK    3  A    between atoms: C_5  and  C_6 
REMARK    4  A    between atoms: C_11  and  N_12 
REMARK       I    between atoms: N_12  and  C_13 
REMARK       I    between atoms: C_13  and  N_14 
REMARK    5  A    between atoms: N_14  and  C_15 
ROOT
HETATM    1  N   UNL     1       4.680  26.628  54.682  1.00  0.00    -0.306 N 
HETATM    2  C   UNL     1       5.534  26.810  55.730  1.00  0.00     0.321 C 
HETATM    3  N   UNL     1       6.586  27.654  55.516  1.00  0.00    -0.333 N 
HETATM    4  O   UNL     1       5.291  26.282  56.811  1.00  0.00    -0.247 OA
HETATM    5  H   UNL     1       3.823  26.169  54.953  1.00  0.00     0.171 HD
HETATM    6  H   UNL     1       6.379  28.384  54.846  1.00  0.00     0.165 HD
ENDROOT
BRANCH   1   7
HETATM    7  C   UNL     1       4.945  26.708  53.327  1.00  0.00     0.080 A 
HETATM    8  C   UNL     1       4.356  27.599  52.440  1.00  0.00     0.058 A 
HETATM    9  N   UNL     1       4.812  27.205  51.192  1.00  0.00    -0.272 N 
HETATM   10  N   UNL     1       5.734  26.227  51.239  1.00  0.00    -0.182 NA
HETATM   11  C   UNL     1       5.787  25.904  52.529  1.00  0.00     0.170 A 
BRANCH   8  12
HETATM   12  C   UNL     1       3.423  28.768  52.582  1.00  0.00     0.057 C 
HETATM   13  C   UNL     1       3.904  29.916  53.453  1.00  0.00     0.011 C 
ENDBRANCH   8  12
BRANCH   9  14
HETATM   14  C   UNL     1       4.404  27.693  49.883  1.00  0.00     0.155 C 
BRANCH  14  15
HETATM   15  C   UNL     1       4.685  26.698  48.742  1.00  0.00    -0.003 C 
HETATM   16  C   UNL     1       3.462  25.843  48.404  1.00  0.00     0.011 C 
HETATM   17  C   UNL     1       5.144  27.455  47.495  1.00  0.00     0.011 C 
ENDBRANCH  14  15
ENDBRANCH   9  14
ENDBRANCH   1   7
BRANCH   3  18
HETATM   18  C   UNL     1       7.588  27.965  56.550  1.00  0.00     0.039 C 
HETATM   19  C   UNL     1       8.219  26.650  57.056  1.00  0.00     0.039 C 
HETATM   20  C   UNL     1       8.710  28.878  55.961  1.00  0.00     0.070 C 
HETATM   21  C   UNL     1       9.101  29.722  57.135  1.00  0.00    -0.049 A 
HETATM   22  C   UNL     1       8.133  29.662  58.140  1.00  0.00    -0.049 A 
HETATM   23  C   UNL     1      10.225  30.519  57.275  1.00  0.00     0.007 A 
HETATM   24  C   UNL     1       6.992  28.778  57.741  1.00  0.00     0.070 C 
HETATM   25  C   UNL     1       8.270  30.391  59.310  1.00  0.00     0.007 A 
HETATM   26  C   UNL     1       9.406  31.186  59.467  1.00  0.00     0.001 A 
HETATM   27  C   UNL     1      10.376  31.251  58.455  1.00  0.00     0.001 A 
ENDBRANCH   3  18
TORSDOF 5
ENDMDL
MODEL 8
REMARK VINA RESULT:      -7.8      2.302      8.894
REMARK  5 active torsions:
REMARK  status: ('A' for Active; 'I' for Inactive)
REMARK    1  A    between atoms: C_2  and  C_3 
REMARK    2  A    between atoms: N_4  and  C_5 
REMARK    3  A    between atoms: C_5  and  C_6 
REMARK    4  A    between atoms: C_11  and  N_12 
REMARK       I    between atoms: N_12  and  C_13 
REMARK       I    between atoms: C_13  and  N_14 
REMARK    5  A    between atoms: N_14  and  C_15 
ROOT
HETATM    1  N   UNL     1       9.261  28.396  56.812  1.00  0.00    -0.306 N 
HETATM    2  C   UNL     1       9.528  29.467  57.615  1.00  0.00     0.321 C 
HETATM    3  N   UNL     1       8.521  29.869  58.445  1.00  0.00    -0.333 N 
HETATM    4  O   UNL     1      10.650  29.965  57.611  1.00  0.00    -0.247 OA
HETATM    5  H   UNL     1      10.090  28.019  56.377  1.00  0.00     0.171 HD
HETATM    6  H   UNL     1       7.915  29.109  58.729  1.00  0.00     0.165 HD
ENDROOT
BRANCH   1   7
HETATM    7  C   UNL     1       8.044  27.978  56.305  1.00  0.00     0.080 A 
HETATM    8  C   UNL     1       7.647  26.658  56.144  1.00  0.00     0.058 A 
HETATM    9  N   UNL     1       6.439  26.735  55.471  1.00  0.00    -0.272 N 
HETATM   10  N   UNL     1       5.988  27.992  55.312  1.00  0.00    -0.182 NA
HETATM   11  C   UNL     1       6.978  28.745  55.786  1.00  0.00     0.170 A 
BRANCH   8  12
HETATM   12  C   UNL     1       8.231  25.327  56.524  1.00  0.00     0.057 C 
HETATM   13  C   UNL     1       8.288  25.011  58.008  1.00  0.00     0.011 C 
ENDBRANCH   8  12
BRANCH   9  14
HETATM   14  C   UNL     1       5.643  25.652  54.913  1.00  0.00     0.155 C 
BRANCH  14  15
HETATM   15  C   UNL     1       6.103  25.211  53.511  1.00  0.00    -0.003 C 
HETATM   16  C   UNL     1       6.810  23.854  53.534  1.00  0.00     0.011 C 
HETATM   17  C   UNL     1       4.902  25.150  52.566  1.00  0.00     0.011 C 
ENDBRANCH  14  15
ENDBRANCH   9  14
ENDBRANCH   1   7
BRANCH   3  18
HETATM   18  C   UNL     1       8.657  30.998  59.381  1.00  0.00     0.039 C 
HETATM   19  C   UNL     1       9.773  31.941  58.880  1.00  0.00     0.039 C 
HETATM   20  C   UNL     1       7.315  31.794  59.468  1.00  0.00     0.070 C 
HETATM   21  C   UNL     1       7.305  32.273  60.887  1.00  0.00    -0.049 A 
HETATM   22  C   UNL     1       8.229  31.567  61.661  1.00  0.00    -0.049 A 
HETATM   23  C   UNL     1       6.498  33.246  61.452  1.00  0.00     0.007 A 
HETATM   24  C   UNL     1       8.946  30.538  60.843  1.00  0.00     0.070 C 
HETATM   25  C   UNL     1       8.370  31.821  63.015  1.00  0.00     0.007 A 
HETATM   26  C   UNL     1       7.571  32.809  63.591  1.00  0.00     0.001 A 
HETATM   27  C   UNL     1       6.640  33.516  62.815  1.00  0.00     0.001 A 
ENDBRANCH   3  18
TORSDOF 5
ENDMDL
MODEL 9
REMARK VINA RESULT:      -7.7      2.558      3.495
REMARK  5 active torsions:
REMARK  status: ('A' for Active; 'I' for Inactive)
REMARK    1  A    between atoms: C_2  and  C_3 
REMARK    2  A    between atoms: N_4  and  C_5 
REMARK    3  A    between atoms: C_5  and  C_6 
REMARK    4  A    between atoms: C_11  and  N_12 
REMARK       I    between atoms: N_12  and  C_13 
REMARK       I    between atoms: C_13  and  N_14 
REMARK    5  A    between atoms: N_14  and  C_15 
ROOT
HETATM    1  N   UNL     1       5.839  29.605  55.124  1.00  0.00    -0.306 N 
HETATM    2  C   UNL     1       6.324  28.331  55.183  1.00  0.00     0.321 C 
HETATM    3  N   UNL     1       5.557  27.420  55.851  1.00  0.00    -0.333 N 
HETATM    4  O   UNL     1       7.362  28.048  54.592  1.00  0.00    -0.247 OA
HETATM    5  H   UNL     1       6.332  30.179  54.456  1.00  0.00     0.171 HD
HETATM    6  H   UNL     1       4.567  27.627  55.806  1.00  0.00     0.165 HD
ENDROOT
BRANCH   1   7
HETATM    7  C   UNL     1       5.014  30.259  56.021  1.00  0.00     0.080 A 
HETATM    8  C   UNL     1       5.409  30.793  57.240  1.00  0.00     0.058 A 
HETATM    9  N   UNL     1       4.231  31.199  57.844  1.00  0.00    -0.272 N 
HETATM   10  N   UNL     1       3.150  31.081  57.052  1.00  0.00    -0.182 NA
HETATM   11  C   UNL     1       3.621  30.478  55.963  1.00  0.00     0.170 A 
BRANCH   8  12
HETATM   12  C   UNL     1       6.730  30.979  57.932  1.00  0.00     0.057 C 
HETATM   13  C   UNL     1       7.476  29.714  58.317  1.00  0.00     0.011 C 
ENDBRANCH   8  12
BRANCH   9  14
HETATM   14  C   UNL     1       4.031  31.697  59.197  1.00  0.00     0.155 C 
BRANCH  14  15
HETATM   15  C   UNL     1       3.431  33.113  59.248  1.00  0.00    -0.003 C 
HETATM   16  C   UNL     1       3.008  33.513  60.664  1.00  0.00     0.011 C 
HETATM   17  C   UNL     1       4.442  34.126  58.708  1.00  0.00     0.011 C 
ENDBRANCH  14  15
ENDBRANCH   9  14
ENDBRANCH   1   7
BRANCH   3  18
HETATM   18  C   UNL     1       5.935  26.003  55.991  1.00  0.00     0.039 C 
HETATM   19  C   UNL     1       4.983  25.322  56.999  1.00  0.00     0.039 C 
HETATM   20  C   UNL     1       5.827  25.274  54.613  1.00  0.00     0.070 C 
HETATM   21  C   UNL     1       6.923  24.256  54.692  1.00  0.00    -0.049 A 
HETATM   22  C   UNL     1       7.819  24.560  55.720  1.00  0.00    -0.049 A 
HETATM   23  C   UNL     1       7.124  23.157  53.874  1.00  0.00     0.007 A 
HETATM   24  C   UNL     1       7.420  25.816  56.431  1.00  0.00     0.070 C 
HETATM   25  C   UNL     1       8.931  23.770  55.957  1.00  0.00     0.007 A 
HETATM   26  C   UNL     1       9.135  22.651  55.147  1.00  0.00     0.001 A 
HETATM   27  C   UNL     1       8.238  22.348  54.111  1.00  0.00     0.001 A 
ENDBRANCH   3  18
TORSDOF 5
ENDMDL
MODEL 10
REMARK VINA RESULT:      -7.7      4.300      6.268
REMARK  5 active torsions:
REMARK  status: ('A' for Active; 'I' for Inactive)
REMARK    1  A    between atoms: C_2  and  C_3 
REMARK    2  A    between atoms: N_4  and  C_5 
REMARK    3  A    between atoms: C_5  and  C_6 
REMARK    4  A    between atoms: C_11  and  N_12 
REMARK       I    between atoms: N_12  and  C_13 
REMARK       I    between atoms: C_13  and  N_14 
REMARK    5  A    between atoms: N_14  and  C_15 
ROOT
HETATM    1  N   UNL     1       4.236  26.757  50.725  1.00  0.00    -0.306 N 
HETATM    2  C   UNL     1       5.024  25.960  51.504  1.00  0.00     0.321 C 
HETATM    3  N   UNL     1       6.059  26.575  52.148  1.00  0.00    -0.333 N 
HETATM    4  O   UNL     1       4.737  24.776  51.648  1.00  0.00    -0.247 OA
HETATM    5  H   UNL     1       3.381  26.302  50.443  1.00  0.00     0.171 HD
HETATM    6  H   UNL     1       5.867  27.543  52.374  1.00  0.00     0.165 HD
ENDROOT
BRANCH   1   7
HETATM    7  C   UNL     1       4.575  27.921  50.059  1.00  0.00     0.080 A 
HETATM    8  C   UNL     1       4.293  29.209  50.490  1.00  0.00     0.058 A 
HETATM    9  N   UNL     1       4.681  30.024  49.439  1.00  0.00    -0.272 N 
HETATM   10  N   UNL     1       5.298  29.363  48.444  1.00  0.00    -0.182 NA
HETATM   11  C   UNL     1       5.201  28.086  48.804  1.00  0.00     0.170 A 
BRANCH   8  12
HETATM   12  C   UNL     1       3.708  29.798  51.742  1.00  0.00     0.057 C 
HETATM   13  C   UNL     1       4.557  29.698  52.998  1.00  0.00     0.011 C 
ENDBRANCH   8  12
BRANCH   9  14
HETATM   14  C   UNL     1       4.481  31.457  49.282  1.00  0.00     0.155 C 
BRANCH  14  15
HETATM   15  C   UNL     1       5.740  32.289  49.586  1.00  0.00    -0.003 C 
HETATM   16  C   UNL     1       6.223  33.076  48.365  1.00  0.00     0.011 C 
HETATM   17  C   UNL     1       5.459  33.253  50.740  1.00  0.00     0.011 C 
ENDBRANCH  14  15
ENDBRANCH   9  14
ENDBRANCH   1   7
BRANCH   3  18
HETATM   18  C   UNL     1       6.990  25.857  53.036  1.00  0.00     0.039 C 
HETATM   19  C   UNL     1       7.986  26.866  53.649  1.00  0.00     0.039 C 
HETATM   20  C   UNL     1       6.205  25.150  54.187  1.00  0.00     0.070 C 
HETATM   21  C   UNL     1       7.024  23.921  54.440  1.00  0.00    -0.049 A 
HETATM   22  C   UNL     1       7.901  23.676  53.380  1.00  0.00    -0.049 A 
HETATM   23  C   UNL     1       6.959  23.062  55.524  1.00  0.00     0.007 A 
HETATM   24  C   UNL     1       7.755  24.710  52.307  1.00  0.00     0.070 C 
HETATM   25  C   UNL     1       8.736  22.571  53.384  1.00  0.00     0.007 A 
HETATM   26  C   UNL     1       8.688  21.707  54.479  1.00  0.00     0.001 A 
HETATM   27  C   UNL     1       7.804  21.950  55.541  1.00  0.00     0.001 A 
ENDBRANCH   3  18
TORSDOF 5
ENDMDL
