MODEL 1
REMARK VINA RESULT:     -10.0      0.000      0.000
REMARK  4 active torsions:
REMARK  status: ('A' for Active; 'I' for Inactive)
REMARK    1  A    between atoms: C_7  and  C_8 
REMARK    2  A    between atoms: C_8  and  N_9 
REMARK    3  A    between atoms: N_15  and  C_17 
REMARK    4  A    between atoms: C_17  and  C_18 
ROOT
HETATM    1  N   UNL     1       8.705  28.363  56.952  1.00  0.00    -0.067 N 
HETATM    2  H   UNL     1       9.709  28.466  57.157  1.00  0.00     0.280 HD
HETATM    3  C   UNL     1       8.437  26.883  57.015  1.00  0.00     0.236 C 
HETATM    4  C   UNL     1       7.040  26.559  56.489  1.00  0.00     0.039 C 
HETATM    5  C   UNL     1       6.768  27.089  55.054  1.00  0.00    -0.013 C 
HETATM    6  C   UNL     1       7.582  26.335  53.969  1.00  0.00     0.244 C 
HETATM    7  N   UNL     1       7.137  24.902  53.860  1.00  0.00    -0.065 N 
HETATM    8  H   UNL     1       7.286  24.432  54.770  1.00  0.00     0.280 HD
HETATM    9  C   UNL     1       5.692  24.758  53.477  1.00  0.00     0.235 C 
HETATM   10  C   UNL     1       4.832  25.481  54.504  1.00  0.00     0.029 C 
HETATM   11  C   UNL     1       5.264  26.935  54.704  1.00  0.00     0.013 C 
HETATM   12  C   UNL     1       7.125  28.603  55.030  1.00  0.00     0.039 C 
HETATM   13  C   UNL     1       8.514  28.935  55.575  1.00  0.00     0.236 C 
ENDROOT
BRANCH   7  14
HETATM   14  C   UNL     1       8.068  24.073  52.970  1.00  0.00     0.293 C 
BRANCH  14  15
HETATM   15  C   UNL     1       8.340  22.718  53.593  1.00  0.00     0.060 A 
HETATM   16  N   UNL     1       8.893  22.732  54.846  1.00  0.00    -0.264 NA
HETATM   17  C   UNL     1       9.068  21.524  55.441  1.00  0.00     0.117 A 
HETATM   18  C   UNL     1       8.768  20.316  54.838  1.00  0.00     0.019 A 
HETATM   19  C   UNL     1       8.232  20.332  53.555  1.00  0.00     0.003 A 
HETATM   20  C   UNL     1       8.001  21.548  52.921  1.00  0.00     0.029 A 
ENDBRANCH  14  15
ENDBRANCH   7  14
BRANCH   1  21
HETATM   21  C   UNL     1       8.049  29.197  58.052  1.00  0.00     0.278 C 
BRANCH  21  22
HETATM   22  C   UNL     1       8.789  30.434  58.385  1.00  0.00     0.025 A 
HETATM   23  C   UNL     1       8.296  31.589  59.060  1.00  0.00     0.068 A 
HETATM   24  C   UNL     1       6.929  31.877  59.560  1.00  0.00     0.073 C 
HETATM   25  N   UNL     1       9.265  32.484  59.251  1.00  0.00    -0.133 NA
HETATM   26  O   UNL     1      10.388  31.975  58.644  1.00  0.00    -0.217 OA
HETATM   27  C   UNL     1      10.104  30.760  58.108  1.00  0.00     0.085 A 
HETATM   28  C   UNL     1      11.223  30.102  57.405  1.00  0.00     0.079 C 
ENDBRANCH  21  22
ENDBRANCH   1  21
TORSDOF 4
ENDMDL
MODEL 2
REMARK VINA RESULT:      -9.5      7.183     13.564
REMARK  4 active torsions:
REMARK  status: ('A' for Active; 'I' for Inactive)
REMARK    1  A    between atoms: C_7  and  C_8 
REMARK    2  A    between atoms: C_8  and  N_9 
REMARK    3  A    between atoms: N_15  and  C_17 
REMARK    4  A    between atoms: C_17  and  C_18 
ROOT
HETATM    1  N   UNL     1       6.841  32.389  62.899  1.00  0.00    -0.067 N 
HETATM    2  H   UNL     1       7.294  31.469  62.989  1.00  0.00     0.280 HD
HETATM    3  C   UNL     1       7.381  33.210  64.040  1.00  0.00     0.236 C 
HETATM    4  C   UNL     1       6.611  34.521  64.180  1.00  0.00     0.039 C 
HETATM    5  C   UNL     1       5.076  34.339  64.335  1.00  0.00    -0.013 C 
HETATM    6  C   UNL     1       4.678  33.714  65.699  1.00  0.00     0.244 C 
HETATM    7  N   UNL     1       4.995  34.649  66.834  1.00  0.00    -0.065 N 
HETATM    8  H   UNL     1       6.012  34.838  66.841  1.00  0.00     0.280 HD
HETATM    9  C   UNL     1       4.266  35.959  66.742  1.00  0.00     0.235 C 
HETATM   10  C   UNL     1       4.611  36.628  65.419  1.00  0.00     0.029 C 
HETATM   11  C   UNL     1       4.360  35.711  64.221  1.00  0.00     0.013 C 
HETATM   12  C   UNL     1       4.585  33.431  63.171  1.00  0.00     0.039 C 
HETATM   13  C   UNL     1       5.365  32.126  63.012  1.00  0.00     0.236 C 
ENDROOT
BRANCH   7  14
HETATM   14  C   UNL     1       4.831  33.978  68.200  1.00  0.00     0.293 C 
BRANCH  14  15
HETATM   15  C   UNL     1       5.921  34.428  69.153  1.00  0.00     0.060 A 
HETATM   16  N   UNL     1       5.554  34.564  70.466  1.00  0.00    -0.264 NA
HETATM   17  C   UNL     1       6.542  34.892  71.337  1.00  0.00     0.117 A 
HETATM   18  C   UNL     1       7.852  35.135  70.963  1.00  0.00     0.019 A 
HETATM   19  C   UNL     1       8.189  35.014  69.619  1.00  0.00     0.003 A 
HETATM   20  C   UNL     1       7.217  34.644  68.696  1.00  0.00     0.029 A 
ENDBRANCH  14  15
ENDBRANCH   7  14
BRANCH   1  21
HETATM   21  C   UNL     1       7.271  32.842  61.504  1.00  0.00     0.278 C 
BRANCH  21  22
HETATM   22  C   UNL     1       7.631  31.728  60.599  1.00  0.00     0.025 A 
HETATM   23  C   UNL     1       7.073  31.429  59.322  1.00  0.00     0.068 A 
HETATM   24  C   UNL     1       5.977  32.108  58.589  1.00  0.00     0.073 C 
HETATM   25  N   UNL     1       7.692  30.391  58.759  1.00  0.00    -0.133 NA
HETATM   26  O   UNL     1       8.610  29.942  59.678  1.00  0.00    -0.217 OA
HETATM   27  C   UNL     1       8.564  30.725  60.786  1.00  0.00     0.085 A 
HETATM   28  C   UNL     1       9.492  30.343  61.869  1.00  0.00     0.079 C 
ENDBRANCH  21  22
ENDBRANCH   1  21
TORSDOF 4
ENDMDL
MODEL 3
REMARK VINA RESULT:      -9.2      2.905      5.048
REMARK  4 active torsions:
REMARK  status: ('A' for Active; 'I' for Inactive)
REMARK    1  A    between atoms: C_7  and  C_8 
REMARK    2  A    between atoms: C_8  and  N_9 
REMARK    3  A    between atoms: N_15  and  C_17 
REMARK    4  A    between atoms: C_17  and  C_18 
ROOT
HETATM    1  N   UNL     1       6.833  29.050  57.210  1.00  0.00    -0.067 N 
HETATM    2  H   UNL     1       6.341  29.882  57.565  1.00  0.00     0.280 HD
HETATM    3  C   UNL     1       7.149  29.361  55.770  1.00  0.00     0.236 C 
HETATM    4  C   UNL     1       7.662  28.119  55.045  1.00  0.00     0.039 C 
HETATM    5  C   UNL     1       6.703  26.898  55.129  1.00  0.00    -0.013 C 
HETATM    6  C   UNL     1       5.401  27.099  54.310  1.00  0.00     0.244 C 
HETATM    7  N   UNL     1       5.693  27.162  52.836  1.00  0.00    -0.065 N 
HETATM    8  H   UNL     1       6.325  27.960  52.651  1.00  0.00     0.280 HD
HETATM    9  C   UNL     1       6.335  25.912  52.306  1.00  0.00     0.235 C 
HETATM   10  C   UNL     1       7.625  25.653  53.071  1.00  0.00     0.029 C 
HETATM   11  C   UNL     1       7.408  25.627  54.585  1.00  0.00     0.013 C 
HETATM   12  C   UNL     1       6.359  26.666  56.628  1.00  0.00     0.039 C 
HETATM   13  C   UNL     1       5.865  27.911  57.365  1.00  0.00     0.236 C 
ENDROOT
BRANCH   7  14
HETATM   14  C   UNL     1       4.469  27.587  52.020  1.00  0.00     0.293 C 
BRANCH  14  15
HETATM   15  C   UNL     1       4.834  27.765  50.559  1.00  0.00     0.060 A 
HETATM   16  N   UNL     1       4.433  26.765  49.713  1.00  0.00    -0.264 NA
HETATM   17  C   UNL     1       4.689  26.954  48.393  1.00  0.00     0.117 A 
HETATM   18  C   UNL     1       5.357  28.054  47.886  1.00  0.00     0.019 A 
HETATM   19  C   UNL     1       5.774  29.041  48.772  1.00  0.00     0.003 A 
HETATM   20  C   UNL     1       5.502  28.907  50.129  1.00  0.00     0.029 A 
ENDBRANCH  14  15
ENDBRANCH   7  14
BRANCH   1  21
HETATM   21  C   UNL     1       8.042  28.951  58.140  1.00  0.00     0.278 C 
BRANCH  21  22
HETATM   22  C   UNL     1       8.736  30.239  58.356  1.00  0.00     0.025 A 
HETATM   23  C   UNL     1      10.019  30.629  57.870  1.00  0.00     0.068 A 
HETATM   24  C   UNL     1      11.001  29.855  57.072  1.00  0.00     0.073 C 
HETATM   25  N   UNL     1      10.294  31.891  58.201  1.00  0.00    -0.133 NA
HETATM   26  O   UNL     1       9.243  32.328  58.971  1.00  0.00    -0.217 OA
HETATM   27  C   UNL     1       8.319  31.339  59.082  1.00  0.00     0.085 A 
HETATM   28  C   UNL     1       7.137  31.668  59.903  1.00  0.00     0.079 C 
ENDBRANCH  21  22
ENDBRANCH   1  21
TORSDOF 4
ENDMDL
MODEL 4
REMARK VINA RESULT:      -9.1      2.881      4.742
REMARK  4 active torsions:
REMARK  status: ('A' for Active; 'I' for Inactive)
REMARK    1  A    between atoms: C_7  and  C_8 
REMARK    2  A    between atoms: C_8  and  N_9 
REMARK    3  A    between atoms: N_15  and  C_17 
REMARK    4  A    between atoms: C_17  and  C_18 
ROOT
HETATM    1  N   UNL     1       6.899  29.091  57.254  1.00  0.00    -0.067 N 
HETATM    2  H   UNL     1       6.410  29.909  57.643  1.00  0.00     0.280 HD
HETATM    3  C   UNL     1       7.189  29.448  55.820  1.00  0.00     0.236 C 
HETATM    4  C   UNL     1       7.694  28.232  55.047  1.00  0.00     0.039 C 
HETATM    5  C   UNL     1       6.741  27.006  55.107  1.00  0.00    -0.013 C 
HETATM    6  C   UNL     1       5.424  27.226  54.318  1.00  0.00     0.244 C 
HETATM    7  N   UNL     1       5.691  27.337  52.841  1.00  0.00    -0.065 N 
HETATM    8  H   UNL     1       6.316  28.144  52.672  1.00  0.00     0.280 HD
HETATM    9  C   UNL     1       6.328  26.107  52.261  1.00  0.00     0.235 C 
HETATM   10  C   UNL     1       7.632  25.830  52.996  1.00  0.00     0.029 C 
HETATM   11  C   UNL     1       7.441  25.755  54.512  1.00  0.00     0.013 C 
HETATM   12  C   UNL     1       6.423  26.724  56.604  1.00  0.00     0.039 C 
HETATM   13  C   UNL     1       5.938  27.943  57.389  1.00  0.00     0.236 C 
ENDROOT
BRANCH   7  14
HETATM   14  C   UNL     1       4.452  27.784  52.060  1.00  0.00     0.293 C 
BRANCH  14  15
HETATM   15  C   UNL     1       4.756  27.875  50.578  1.00  0.00     0.060 A 
HETATM   16  N   UNL     1       5.487  28.963  50.180  1.00  0.00    -0.264 NA
HETATM   17  C   UNL     1       5.828  29.012  48.867  1.00  0.00     0.117 A 
HETATM   18  C   UNL     1       5.443  28.067  47.933  1.00  0.00     0.019 A 
HETATM   19  C   UNL     1       4.680  26.987  48.362  1.00  0.00     0.003 A 
HETATM   20  C   UNL     1       4.337  26.877  49.706  1.00  0.00     0.029 A 
ENDBRANCH  14  15
ENDBRANCH   7  14
BRANCH   1  21
HETATM   21  C   UNL     1       8.124  28.966  58.160  1.00  0.00     0.278 C 
BRANCH  21  22
HETATM   22  C   UNL     1       8.874  30.231  58.326  1.00  0.00     0.025 A 
HETATM   23  C   UNL     1       8.445  31.416  58.993  1.00  0.00     0.068 A 
HETATM   24  C   UNL     1       7.148  31.713  59.647  1.00  0.00     0.073 C 
HETATM   25  N   UNL     1       9.412  32.334  59.008  1.00  0.00    -0.133 NA
HETATM   26  O   UNL     1      10.459  31.807  58.291  1.00  0.00    -0.217 OA
HETATM   27  C   UNL     1      10.136  30.559  57.866  1.00  0.00     0.085 A 
HETATM   28  C   UNL     1      11.170  29.877  57.062  1.00  0.00     0.079 C 
ENDBRANCH  21  22
ENDBRANCH   1  21
TORSDOF 4
ENDMDL
MODEL 5
REMARK VINA RESULT:      -9.1      1.838      2.300
REMARK  4 active torsions:
REMARK  status: ('A' for Active; 'I' for Inactive)
REMARK    1  A    between atoms: C_7  and  C_8 
REMARK    2  A    between atoms: C_8  and  N_9 
REMARK    3  A    between atoms: N_15  and  C_17 
REMARK    4  A    between atoms: C_17  and  C_18 
ROOT
HETATM    1  N   UNL     1       6.758  28.172  56.926  1.00  0.00    -0.067 N 
HETATM    2  H   UNL     1       7.521  28.330  57.598  1.00  0.00     0.280 HD
HETATM    3  C   UNL     1       6.526  26.683  56.933  1.00  0.00     0.236 C 
HETATM    4  C   UNL     1       5.589  26.273  55.800  1.00  0.00     0.039 C 
HETATM    5  C   UNL     1       6.061  26.731  54.392  1.00  0.00    -0.013 C 
HETATM    6  C   UNL     1       7.325  25.975  53.905  1.00  0.00     0.244 C 
HETATM    7  N   UNL     1       7.027  24.519  53.672  1.00  0.00    -0.065 N 
HETATM    8  H   UNL     1       6.710  24.093  54.560  1.00  0.00     0.280 HD
HETATM    9  C   UNL     1       5.972  24.290  52.628  1.00  0.00     0.235 C 
HETATM   10  C   UNL     1       4.697  25.011  53.044  1.00  0.00     0.029 C 
HETATM   11  C   UNL     1       4.938  26.491  53.347  1.00  0.00     0.013 C 
HETATM   12  C   UNL     1       6.349  28.258  54.461  1.00  0.00     0.039 C 
HETATM   13  C   UNL     1       7.270  28.679  55.607  1.00  0.00     0.236 C 
ENDROOT
BRANCH   7  14
HETATM   14  C   UNL     1       8.297  23.701  53.416  1.00  0.00     0.293 C 
BRANCH  14  15
HETATM   15  C   UNL     1       8.322  22.462  54.288  1.00  0.00     0.060 A 
HETATM   16  N   UNL     1       8.570  21.278  53.645  1.00  0.00    -0.264 NA
HETATM   17  C   UNL     1       8.669  20.175  54.429  1.00  0.00     0.117 A 
HETATM   18  C   UNL     1       8.490  20.185  55.801  1.00  0.00     0.019 A 
HETATM   19  C   UNL     1       8.214  21.397  56.423  1.00  0.00     0.003 A 
HETATM   20  C   UNL     1       8.139  22.559  55.663  1.00  0.00     0.029 A 
ENDBRANCH  14  15
ENDBRANCH   7  14
BRANCH   1  21
HETATM   21  C   UNL     1       5.621  29.015  57.500  1.00  0.00     0.278 C 
BRANCH  21  22
HETATM   22  C   UNL     1       6.000  30.418  57.780  1.00  0.00     0.025 A 
HETATM   23  C   UNL     1       5.375  31.603  57.293  1.00  0.00     0.068 A 
HETATM   24  C   UNL     1       4.229  31.750  56.362  1.00  0.00     0.073 C 
HETATM   25  N   UNL     1       5.942  32.693  57.810  1.00  0.00    -0.133 NA
HETATM   26  O   UNL     1       6.993  32.254  58.580  1.00  0.00    -0.217 OA
HETATM   27  C   UNL     1       7.044  30.898  58.550  1.00  0.00     0.085 A 
HETATM   28  C   UNL     1       8.142  30.289  59.326  1.00  0.00     0.079 C 
ENDBRANCH  21  22
ENDBRANCH   1  21
TORSDOF 4
ENDMDL
MODEL 6
REMARK VINA RESULT:      -8.9      4.830      8.071
REMARK  4 active torsions:
REMARK  status: ('A' for Active; 'I' for Inactive)
REMARK    1  A    between atoms: C_7  and  C_8 
REMARK    2  A    between atoms: C_8  and  N_9 
REMARK    3  A    between atoms: N_15  and  C_17 
REMARK    4  A    between atoms: C_17  and  C_18 
ROOT
HETATM    1  N   UNL     1       7.229  23.784  53.642  1.00  0.00    -0.067 N 
HETATM    2  H   UNL     1       7.820  23.130  53.111  1.00  0.00     0.280 HD
HETATM    3  C   UNL     1       5.986  23.961  52.811  1.00  0.00     0.236 C 
HETATM    4  C   UNL     1       5.123  25.096  53.356  1.00  0.00     0.039 C 
HETATM    5  C   UNL     1       5.872  26.452  53.487  1.00  0.00    -0.013 C 
HETATM    6  C   UNL     1       6.213  27.086  52.113  1.00  0.00     0.244 C 
HETATM    7  N   UNL     1       4.964  27.493  51.380  1.00  0.00    -0.065 N 
HETATM    8  H   UNL     1       4.379  26.655  51.221  1.00  0.00     0.280 HD
HETATM    9  C   UNL     1       4.148  28.512  52.123  1.00  0.00     0.235 C 
HETATM   10  C   UNL     1       3.778  27.952  53.490  1.00  0.00     0.029 C 
HETATM   11  C   UNL     1       5.002  27.470  54.271  1.00  0.00     0.013 C 
HETATM   12  C   UNL     1       7.177  26.197  54.294  1.00  0.00     0.039 C 
HETATM   13  C   UNL     1       8.035  25.047  53.766  1.00  0.00     0.236 C 
ENDROOT
BRANCH   7  14
HETATM   14  C   UNL     1       5.250  27.907  49.934  1.00  0.00     0.293 C 
BRANCH  14  15
HETATM   15  C   UNL     1       4.256  27.265  48.986  1.00  0.00     0.060 A 
HETATM   16  N   UNL     1       3.633  28.108  48.104  1.00  0.00    -0.264 NA
HETATM   17  C   UNL     1       2.800  27.529  47.203  1.00  0.00     0.117 A 
HETATM   18  C   UNL     1       2.524  26.174  47.166  1.00  0.00     0.019 A 
HETATM   19  C   UNL     1       3.151  25.346  48.090  1.00  0.00     0.003 A 
HETATM   20  C   UNL     1       4.041  25.891  49.010  1.00  0.00     0.029 A 
ENDBRANCH  14  15
ENDBRANCH   7  14
BRANCH   1  21
HETATM   21  C   UNL     1       7.032  23.057  54.972  1.00  0.00     0.278 C 
BRANCH  21  22
HETATM   22  C   UNL     1       7.765  21.775  55.065  1.00  0.00     0.025 A 
HETATM   23  C   UNL     1       8.335  21.181  56.229  1.00  0.00     0.068 A 
HETATM   24  C   UNL     1       8.385  21.692  57.621  1.00  0.00     0.073 C 
HETATM   25  N   UNL     1       8.857  19.986  55.952  1.00  0.00    -0.133 NA
HETATM   26  O   UNL     1       8.713  19.806  54.597  1.00  0.00    -0.217 OA
HETATM   27  C   UNL     1       8.079  20.880  54.060  1.00  0.00     0.085 A 
HETATM   28  C   UNL     1       7.872  20.827  52.599  1.00  0.00     0.079 C 
ENDBRANCH  21  22
ENDBRANCH   1  21
TORSDOF 4
ENDMDL
MODEL 7
REMARK VINA RESULT:      -8.9      3.851      6.638
REMARK  4 active torsions:
REMARK  status: ('A' for Active; 'I' for Inactive)
REMARK    1  A    between atoms: C_7  and  C_8 
REMARK    2  A    between atoms: C_8  and  N_9 
REMARK    3  A    between atoms: N_15  and  C_17 
REMARK    4  A    between atoms: C_17  and  C_18 
ROOT
HETATM    1  N   UNL     1       5.544  26.585  52.005  1.00  0.00    -0.067 N 
HETATM    2  H   UNL     1       5.206  25.920  51.296  1.00  0.00     0.280 HD
HETATM    3  C   UNL     1       6.902  26.076  52.411  1.00  0.00     0.236 C 
HETATM    4  C   UNL     1       7.420  26.824  53.636  1.00  0.00     0.039 C 
HETATM    5  C   UNL     1       6.454  26.791  54.853  1.00  0.00    -0.013 C 
HETATM    6  C   UNL     1       6.344  25.383  55.496  1.00  0.00     0.244 C 
HETATM    7  N   UNL     1       7.647  24.974  56.126  1.00  0.00    -0.065 N 
HETATM    8  H   UNL     1       8.380  24.947  55.396  1.00  0.00     0.280 HD
HETATM    9  C   UNL     1       8.094  25.902  57.218  1.00  0.00     0.235 C 
HETATM   10  C   UNL     1       8.221  27.310  56.653  1.00  0.00     0.029 C 
HETATM   11  C   UNL     1       6.943  27.772  55.951  1.00  0.00     0.013 C 
HETATM   12  C   UNL     1       5.055  27.261  54.361  1.00  0.00     0.039 C 
HETATM   13  C   UNL     1       4.539  26.530  53.122  1.00  0.00     0.236 C 
ENDROOT
BRANCH   7  14
HETATM   14  C   UNL     1       7.643  23.506  56.564  1.00  0.00     0.293 C 
BRANCH  14  15
HETATM   15  C   UNL     1       7.852  22.591  55.373  1.00  0.00     0.060 A 
HETATM   16  N   UNL     1       7.837  21.247  55.638  1.00  0.00    -0.264 NA
HETATM   17  C   UNL     1       7.947  20.421  54.566  1.00  0.00     0.117 A 
HETATM   18  C   UNL     1       8.115  20.861  53.266  1.00  0.00     0.019 A 
HETATM   19  C   UNL     1       8.152  22.231  53.031  1.00  0.00     0.003 A 
HETATM   20  C   UNL     1       8.007  23.116  54.095  1.00  0.00     0.029 A 
ENDBRANCH  14  15
ENDBRANCH   7  14
BRANCH   1  21
HETATM   21  C   UNL     1       5.540  27.914  51.250  1.00  0.00     0.278 C 
BRANCH  21  22
HETATM   22  C   UNL     1       4.282  28.181  50.518  1.00  0.00     0.025 A 
HETATM   23  C   UNL     1       3.818  27.553  49.326  1.00  0.00     0.068 A 
HETATM   24  C   UNL     1       4.472  26.516  48.491  1.00  0.00     0.073 C 
HETATM   25  N   UNL     1       2.606  27.996  48.990  1.00  0.00    -0.133 NA
HETATM   26  O   UNL     1       2.284  28.972  49.902  1.00  0.00    -0.217 OA
HETATM   27  C   UNL     1       3.290  29.100  50.805  1.00  0.00     0.085 A 
HETATM   28  C   UNL     1       3.083  30.134  51.839  1.00  0.00     0.079 C 
ENDBRANCH  21  22
ENDBRANCH   1  21
TORSDOF 4
ENDMDL
MODEL 8
REMARK VINA RESULT:      -8.8      4.320      7.050
REMARK  4 active torsions:
REMARK  status: ('A' for Active; 'I' for Inactive)
REMARK    1  A    between atoms: C_7  and  C_8 
REMARK    2  A    between atoms: C_8  and  N_9 
REMARK    3  A    between atoms: N_15  and  C_17 
REMARK    4  A    between atoms: C_17  and  C_18 
ROOT
HETATM    1  N   UNL     1       5.618  25.883  51.439  1.00  0.00    -0.067 N 
HETATM    2  H   UNL     1       5.955  25.457  50.564  1.00  0.00     0.280 HD
HETATM    3  C   UNL     1       6.858  26.354  52.153  1.00  0.00     0.236 C 
HETATM    4  C   UNL     1       6.533  26.787  53.581  1.00  0.00     0.039 C 
HETATM    5  C   UNL     1       5.814  25.697  54.423  1.00  0.00    -0.013 C 
HETATM    6  C   UNL     1       6.738  24.499  54.771  1.00  0.00     0.244 C 
HETATM    7  N   UNL     1       7.847  24.923  55.695  1.00  0.00    -0.065 N 
HETATM    8  H   UNL     1       8.414  25.652  55.229  1.00  0.00     0.280 HD
HETATM    9  C   UNL     1       7.352  25.466  57.004  1.00  0.00     0.235 C 
HETATM   10  C   UNL     1       6.432  26.649  56.735  1.00  0.00     0.029 C 
HETATM   11  C   UNL     1       5.307  26.301  55.760  1.00  0.00     0.013 C 
HETATM   12  C   UNL     1       4.585  25.200  53.610  1.00  0.00     0.039 C 
HETATM   13  C   UNL     1       4.900  24.786  52.173  1.00  0.00     0.236 C 
ENDROOT
BRANCH   7  14
HETATM   14  C   UNL     1       8.903  23.828  55.872  1.00  0.00     0.293 C 
BRANCH  14  15
HETATM   15  C   UNL     1       8.571  22.620  55.019  1.00  0.00     0.060 A 
HETATM   16  N   UNL     1       8.189  21.492  55.697  1.00  0.00    -0.264 NA
HETATM   17  C   UNL     1       7.817  20.430  54.937  1.00  0.00     0.117 A 
HETATM   18  C   UNL     1       7.851  20.420  53.554  1.00  0.00     0.019 A 
HETATM   19  C   UNL     1       8.268  21.571  52.895  1.00  0.00     0.003 A 
HETATM   20  C   UNL     1       8.624  22.695  53.632  1.00  0.00     0.029 A 
ENDBRANCH  14  15
ENDBRANCH   7  14
BRANCH   1  21
HETATM   21  C   UNL     1       4.689  26.989  50.940  1.00  0.00     0.278 C 
BRANCH  21  22
HETATM   22  C   UNL     1       4.734  27.190  49.475  1.00  0.00     0.025 A 
HETATM   23  C   UNL     1       5.306  28.285  48.763  1.00  0.00     0.068 A 
HETATM   24  C   UNL     1       5.958  29.511  49.285  1.00  0.00     0.073 C 
HETATM   25  N   UNL     1       5.226  28.096  47.445  1.00  0.00    -0.133 NA
HETATM   26  O   UNL     1       4.536  26.921  47.264  1.00  0.00    -0.217 OA
HETATM   27  C   UNL     1       4.223  26.386  48.472  1.00  0.00     0.085 A 
HETATM   28  C   UNL     1       3.461  25.122  48.426  1.00  0.00     0.079 C 
ENDBRANCH  21  22
ENDBRANCH   1  21
TORSDOF 4
ENDMDL
MODEL 9
REMARK VINA RESULT:      -8.8      1.608      2.798
REMARK  4 active torsions:
REMARK  status: ('A' for Active; 'I' for Inactive)
REMARK    1  A    between atoms: C_7  and  C_8 
REMARK    2  A    between atoms: C_8  and  N_9 
REMARK    3  A    between atoms: N_15  and  C_17 
REMARK    4  A    between atoms: C_17  and  C_18 
ROOT
HETATM    1  N   UNL     1       6.703  29.652  58.228  1.00  0.00    -0.067 N 
HETATM    2  H   UNL     1       6.351  29.514  59.186  1.00  0.00     0.280 HD
HETATM    3  C   UNL     1       5.665  29.031  57.331  1.00  0.00     0.236 C 
HETATM    4  C   UNL     1       6.171  28.942  55.893  1.00  0.00     0.039 C 
HETATM    5  C   UNL     1       7.522  28.189  55.745  1.00  0.00    -0.013 C 
HETATM    6  C   UNL     1       7.397  26.667  56.019  1.00  0.00     0.244 C 
HETATM    7  N   UNL     1       6.553  25.997  54.970  1.00  0.00    -0.065 N 
HETATM    8  H   UNL     1       5.606  26.413  54.982  1.00  0.00     0.280 HD
HETATM    9  C   UNL     1       7.116  26.129  53.584  1.00  0.00     0.235 C 
HETATM   10  C   UNL     1       7.268  27.606  53.249  1.00  0.00     0.029 C 
HETATM   11  C   UNL     1       8.075  28.362  54.305  1.00  0.00     0.013 C 
HETATM   12  C   UNL     1       8.534  28.827  56.739  1.00  0.00     0.039 C 
HETATM   13  C   UNL     1       8.025  28.939  58.177  1.00  0.00     0.236 C 
ENDROOT
BRANCH   7  14
HETATM   14  C   UNL     1       6.219  24.547  55.334  1.00  0.00     0.293 C 
BRANCH  14  15
HETATM   15  C   UNL     1       7.251  23.598  54.758  1.00  0.00     0.060 A 
HETATM   16  N   UNL     1       8.320  23.309  55.564  1.00  0.00    -0.264 NA
HETATM   17  C   UNL     1       9.208  22.401  55.085  1.00  0.00     0.117 A 
HETATM   18  C   UNL     1       9.111  21.809  53.839  1.00  0.00     0.019 A 
HETATM   19  C   UNL     1       8.028  22.141  53.032  1.00  0.00     0.003 A 
HETATM   20  C   UNL     1       7.074  23.039  53.497  1.00  0.00     0.029 A 
ENDBRANCH  14  15
ENDBRANCH   7  14
BRANCH   1  21
HETATM   21  C   UNL     1       6.829  31.172  58.131  1.00  0.00     0.278 C 
BRANCH  21  22
HETATM   22  C   UNL     1       7.494  31.791  59.298  1.00  0.00     0.025 A 
HETATM   23  C   UNL     1       8.890  32.017  59.486  1.00  0.00     0.068 A 
HETATM   24  C   UNL     1      10.029  31.662  58.606  1.00  0.00     0.073 C 
HETATM   25  N   UNL     1       9.122  32.664  60.629  1.00  0.00    -0.133 NA
HETATM   26  O   UNL     1       7.902  32.807  61.247  1.00  0.00    -0.217 OA
HETATM   27  C   UNL     1       6.930  32.271  60.466  1.00  0.00     0.085 A 
HETATM   28  C   UNL     1       5.564  32.341  61.020  1.00  0.00     0.079 C 
ENDBRANCH  21  22
ENDBRANCH   1  21
TORSDOF 4
ENDMDL
MODEL 10
REMARK VINA RESULT:      -8.7      4.440      7.743
REMARK  4 active torsions:
REMARK  status: ('A' for Active; 'I' for Inactive)
REMARK    1  A    between atoms: C_7  and  C_8 
REMARK    2  A    between atoms: C_8  and  N_9 
REMARK    3  A    between atoms: N_15  and  C_17 
REMARK    4  A    between atoms: C_17  and  C_18 
ROOT
HETATM    1  N   UNL     1       6.481  24.560  53.021  1.00  0.00    -0.067 N 
HETATM    2  H   UNL     1       6.781  23.794  52.402  1.00  0.00     0.280 HD
HETATM    3  C   UNL     1       5.123  24.969  52.514  1.00  0.00     0.236 C 
HETATM    4  C   UNL     1       4.659  26.261  53.183  1.00  0.00     0.039 C 
HETATM    5  C   UNL     1       5.659  27.441  53.039  1.00  0.00    -0.013 C 
HETATM    6  C   UNL     1       5.752  27.978  51.586  1.00  0.00     0.244 C 
HETATM    7  N   UNL     1       4.458  28.616  51.162  1.00  0.00    -0.065 N 
HETATM    8  H   UNL     1       3.704  27.909  51.204  1.00  0.00     0.280 HD
HETATM    9  C   UNL     1       4.067  29.786  52.018  1.00  0.00     0.235 C 
HETATM   10  C   UNL     1       3.958  29.328  53.466  1.00  0.00     0.029 C 
HETATM   11  C   UNL     1       5.226  28.623  53.948  1.00  0.00     0.013 C 
HETATM   12  C   UNL     1       7.054  26.943  53.512  1.00  0.00     0.039 C 
HETATM   13  C   UNL     1       7.516  25.638  52.862  1.00  0.00     0.236 C 
ENDROOT
BRANCH   7  14
HETATM   14  C   UNL     1       4.438  28.947  49.666  1.00  0.00     0.293 C 
BRANCH  14  15
HETATM   15  C   UNL     1       3.693  27.879  48.891  1.00  0.00     0.060 A 
HETATM   16  N   UNL     1       2.345  28.074  48.741  1.00  0.00    -0.264 NA
HETATM   17  C   UNL     1       1.685  27.161  47.984  1.00  0.00     0.117 A 
HETATM   18  C   UNL     1       2.284  26.052  47.413  1.00  0.00     0.019 A 
HETATM   19  C   UNL     1       3.648  25.867  47.603  1.00  0.00     0.003 A 
HETATM   20  C   UNL     1       4.373  26.796  48.343  1.00  0.00     0.029 A 
ENDBRANCH  14  15
ENDBRANCH   7  14
BRANCH   1  21
HETATM   21  C   UNL     1       6.495  23.903  54.401  1.00  0.00     0.278 C 
BRANCH  21  22
HETATM   22  C   UNL     1       7.781  23.255  54.740  1.00  0.00     0.025 A 
HETATM   23  C   UNL     1       8.390  22.138  54.096  1.00  0.00     0.068 A 
HETATM   24  C   UNL     1       7.892  21.314  52.967  1.00  0.00     0.073 C 
HETATM   25  N   UNL     1       9.584  21.871  54.625  1.00  0.00    -0.133 NA
HETATM   26  O   UNL     1       9.751  22.749  55.669  1.00  0.00    -0.217 OA
HETATM   27  C   UNL     1       8.669  23.565  55.754  1.00  0.00     0.085 A 
HETATM   28  C   UNL     1       8.706  24.553  56.851  1.00  0.00     0.079 C 
ENDBRANCH  21  22
ENDBRANCH   1  21
TORSDOF 4
ENDMDL
