MODEL 1
REMARK VINA RESULT:      -9.5      0.000      0.000
REMARK  4 active torsions:
REMARK  status: ('A' for Active; 'I' for Inactive)
REMARK    1  A    between atoms: C_6  and  N_7 
REMARK       I    between atoms: N_7  and  C_8 
REMARK    2  A    between atoms: C_8  and  C_9 
REMARK    3  A    between atoms: C_10  and  C_11 
REMARK    4  A    between atoms: C_14  and  O_15 
ROOT
HETATM    1  C   UNL     1       6.941  26.345  55.577  1.00  0.00     0.131 C 
HETATM    2  C   UNL     1       7.466  25.924  54.178  1.00  0.00     0.177 C 
HETATM    3  N   UNL     1       6.504  26.322  53.144  1.00  0.00    -0.088 N 
HETATM    4  C   UNL     1       5.201  26.684  53.373  1.00  0.00     0.721 A 
HETATM    5  N   UNL     1       4.703  26.784  54.626  1.00  0.00    -0.218 N 
HETATM    6  C   UNL     1       5.419  26.102  55.704  1.00  0.00     0.111 C 
HETATM    7  C   UNL     1       4.852  26.526  57.057  1.00  0.00     0.034 C 
HETATM    8  N   UNL     1       6.829  26.494  51.846  1.00  0.00    -0.149 NA
HETATM    9  C   UNL     1       5.653  26.875  51.339  1.00  0.00     0.275 A 
HETATM   10  N   UNL     1       4.632  27.006  52.242  1.00  0.00    -0.055 NA
HETATM   11  H   UNL     1       3.684  26.754  54.680  1.00  0.00     0.178 HD
ENDROOT
BRANCH   1  12
HETATM   12  C   UNL     1       7.413  27.779  55.859  1.00  0.00     0.230 C 
HETATM   13  N   UNL     1       7.980  27.983  57.094  1.00  0.00    -0.326 N 
HETATM   14  H   UNL     1       8.033  27.144  57.672  1.00  0.00     0.169 HD
HETATM   15  O   UNL     1       7.170  28.628  55.006  1.00  0.00    -0.273 OA
BRANCH  13  16
HETATM   16  C   UNL     1       8.500  29.127  57.744  1.00  0.00     0.040 A 
HETATM   17  C   UNL     1       9.711  29.802  57.509  1.00  0.00    -0.035 A 
HETATM   18  C   UNL     1      10.014  30.950  58.285  1.00  0.00     0.015 A 
HETATM   19  C   UNL     1      10.747  29.410  56.498  1.00  0.00     0.050 C 
HETATM   20  C   UNL     1       9.164  31.421  59.291  1.00  0.00    -0.061 A 
HETATM   21  C   UNL     1       9.514  32.632  60.103  1.00  0.00     0.048 C 
HETATM   22  C   UNL     1       7.981  30.735  59.533  1.00  0.00     0.009 A 
HETATM   23  C   UNL     1       7.660  29.609  58.772  1.00  0.00     0.030 A 
ENDBRANCH  13  16
ENDBRANCH   1  12
BRANCH   2  24
HETATM   24  C   UNL     1       7.835  24.441  54.016  1.00  0.00    -0.032 A 
HETATM   25  C   UNL     1       7.611  23.697  52.849  1.00  0.00     0.012 A 
HETATM   26  C   UNL     1       7.982  22.349  52.770  1.00  0.00     0.037 A 
HETATM   27  C   UNL     1       8.591  21.707  53.847  1.00  0.00     0.068 A 
HETATM   28  C   UNL     1       8.798  22.418  55.023  1.00  0.00     0.037 A 
HETATM   29  C   UNL     1       8.419  23.765  55.106  1.00  0.00     0.012 A 
BRANCH  27  30
HETATM   30  O   UNL     1       8.915  20.397  53.627  1.00  0.00    -0.356 OA
HETATM   31  C   UNL     1       9.036  19.571  54.779  1.00  0.00     0.210 C 
ENDBRANCH  27  30
ENDBRANCH   2  24
TORSDOF 4
ENDMDL
MODEL 2
REMARK VINA RESULT:      -9.2      4.203      7.822
REMARK  4 active torsions:
REMARK  status: ('A' for Active; 'I' for Inactive)
REMARK    1  A    between atoms: C_6  and  N_7 
REMARK       I    between atoms: N_7  and  C_8 
REMARK    2  A    between atoms: C_8  and  C_9 
REMARK    3  A    between atoms: C_10  and  C_11 
REMARK    4  A    between atoms: C_14  and  O_15 
ROOT
HETATM    1  C   UNL     1       4.316  27.766  51.940  1.00  0.00     0.131 C 
HETATM    2  C   UNL     1       4.585  27.934  50.420  1.00  0.00     0.177 C 
HETATM    3  N   UNL     1       5.206  29.239  50.166  1.00  0.00    -0.088 N 
HETATM    4  C   UNL     1       5.232  30.289  51.049  1.00  0.00     0.721 A 
HETATM    5  N   UNL     1       4.737  30.173  52.302  1.00  0.00    -0.218 N 
HETATM    6  C   UNL     1       3.802  29.081  52.571  1.00  0.00     0.111 C 
HETATM    7  C   UNL     1       3.548  28.971  54.072  1.00  0.00     0.034 C 
HETATM    8  N   UNL     1       5.937  29.519  49.067  1.00  0.00    -0.149 NA
HETATM    9  C   UNL     1       6.297  30.781  49.317  1.00  0.00     0.275 A 
HETATM   10  N   UNL     1       5.888  31.288  50.521  1.00  0.00    -0.055 NA
HETATM   11  H   UNL     1       4.525  31.063  52.756  1.00  0.00     0.178 HD
ENDROOT
BRANCH   1  12
HETATM   12  C   UNL     1       5.569  27.160  52.588  1.00  0.00     0.230 C 
HETATM   13  N   UNL     1       5.481  25.828  52.915  1.00  0.00    -0.326 N 
HETATM   14  H   UNL     1       4.590  25.396  52.669  1.00  0.00     0.169 HD
HETATM   15  O   UNL     1       6.498  27.924  52.835  1.00  0.00    -0.273 OA
BRANCH  13  16
HETATM   16  C   UNL     1       6.372  24.922  53.539  1.00  0.00     0.040 A 
HETATM   17  C   UNL     1       6.560  24.673  54.909  1.00  0.00    -0.035 A 
HETATM   18  C   UNL     1       7.510  23.696  55.301  1.00  0.00     0.015 A 
HETATM   19  C   UNL     1       5.843  25.367  56.029  1.00  0.00     0.050 C 
HETATM   20  C   UNL     1       8.283  22.987  54.374  1.00  0.00    -0.061 A 
HETATM   21  C   UNL     1       9.287  21.967  54.817  1.00  0.00     0.048 C 
HETATM   22  C   UNL     1       8.108  23.258  53.023  1.00  0.00     0.009 A 
HETATM   23  C   UNL     1       7.169  24.208  52.618  1.00  0.00     0.030 A 
ENDBRANCH  13  16
ENDBRANCH   1  12
BRANCH   2  24
HETATM   24  C   UNL     1       3.372  27.737  49.496  1.00  0.00    -0.032 A 
HETATM   25  C   UNL     1       2.258  28.587  49.466  1.00  0.00     0.012 A 
HETATM   26  C   UNL     1       1.192  28.350  48.590  1.00  0.00     0.037 A 
HETATM   27  C   UNL     1       1.209  27.265  47.716  1.00  0.00     0.068 A 
HETATM   28  C   UNL     1       2.292  26.394  47.747  1.00  0.00     0.037 A 
HETATM   29  C   UNL     1       3.355  26.625  48.630  1.00  0.00     0.012 A 
BRANCH  27  30
HETATM   30  O   UNL     1       0.113  27.162  46.905  1.00  0.00    -0.356 OA
HETATM   31  C   UNL     1      -0.235  28.322  46.157  1.00  0.00     0.210 C 
ENDBRANCH  27  30
ENDBRANCH   2  24
TORSDOF 4
ENDMDL
MODEL 3
REMARK VINA RESULT:      -9.0      2.357      7.867
REMARK  4 active torsions:
REMARK  status: ('A' for Active; 'I' for Inactive)
REMARK    1  A    between atoms: C_6  and  N_7 
REMARK       I    between atoms: N_7  and  C_8 
REMARK    2  A    between atoms: C_8  and  C_9 
REMARK    3  A    between atoms: C_10  and  C_11 
REMARK    4  A    between atoms: C_14  and  O_15 
ROOT
HETATM    1  C   UNL     1       7.426  27.845  56.060  1.00  0.00     0.131 C 
HETATM    2  C   UNL     1       6.638  28.566  57.187  1.00  0.00     0.177 C 
HETATM    3  N   UNL     1       5.396  29.128  56.645  1.00  0.00    -0.088 N 
HETATM    4  C   UNL     1       5.123  29.308  55.312  1.00  0.00     0.721 A 
HETATM    5  N   UNL     1       5.979  28.892  54.352  1.00  0.00    -0.218 N 
HETATM    6  C   UNL     1       7.368  28.640  54.735  1.00  0.00     0.111 C 
HETATM    7  C   UNL     1       8.109  27.956  53.589  1.00  0.00     0.034 C 
HETATM    8  N   UNL     1       4.317  29.426  57.399  1.00  0.00    -0.149 NA
HETATM    9  C   UNL     1       3.467  29.861  56.465  1.00  0.00     0.275 A 
HETATM   10  N   UNL     1       3.922  29.802  55.175  1.00  0.00    -0.055 NA
HETATM   11  H   UNL     1       5.841  29.335  53.442  1.00  0.00     0.178 HD
ENDROOT
BRANCH   1  12
HETATM   12  C   UNL     1       6.940  26.390  55.986  1.00  0.00     0.230 C 
HETATM   13  N   UNL     1       7.924  25.448  55.803  1.00  0.00    -0.326 N 
HETATM   14  H   UNL     1       8.867  25.833  55.754  1.00  0.00     0.169 HD
HETATM   15  O   UNL     1       5.728  26.201  56.010  1.00  0.00    -0.273 OA
BRANCH  13  16
HETATM   16  C   UNL     1       7.901  24.040  55.653  1.00  0.00     0.040 A 
HETATM   17  C   UNL     1       7.551  23.279  54.525  1.00  0.00    -0.035 A 
HETATM   18  C   UNL     1       7.622  21.865  54.607  1.00  0.00     0.015 A 
HETATM   19  C   UNL     1       7.086  23.830  53.210  1.00  0.00     0.050 C 
HETATM   20  C   UNL     1       8.006  21.200  55.777  1.00  0.00    -0.061 A 
HETATM   21  C   UNL     1       8.062  19.703  55.839  1.00  0.00     0.048 C 
HETATM   22  C   UNL     1       8.326  21.959  56.895  1.00  0.00     0.009 A 
HETATM   23  C   UNL     1       8.274  23.353  56.829  1.00  0.00     0.030 A 
ENDBRANCH  13  16
ENDBRANCH   1  12
BRANCH   2  24
HETATM   24  C   UNL     1       7.411  29.643  57.966  1.00  0.00    -0.032 A 
HETATM   25  C   UNL     1       6.808  30.725  58.622  1.00  0.00     0.012 A 
HETATM   26  C   UNL     1       7.575  31.664  59.322  1.00  0.00     0.037 A 
HETATM   27  C   UNL     1       8.962  31.548  59.392  1.00  0.00     0.068 A 
HETATM   28  C   UNL     1       9.583  30.497  58.727  1.00  0.00     0.037 A 
HETATM   29  C   UNL     1       8.817  29.563  58.019  1.00  0.00     0.012 A 
BRANCH  27  30
HETATM   30  O   UNL     1       9.585  32.523  60.121  1.00  0.00    -0.356 OA
HETATM   31  C   UNL     1       9.738  32.275  61.514  1.00  0.00     0.210 C 
ENDBRANCH  27  30
ENDBRANCH   2  24
TORSDOF 4
ENDMDL
MODEL 4
REMARK VINA RESULT:      -8.4      2.968      7.899
REMARK  4 active torsions:
REMARK  status: ('A' for Active; 'I' for Inactive)
REMARK    1  A    between atoms: C_6  and  N_7 
REMARK       I    between atoms: N_7  and  C_8 
REMARK    2  A    between atoms: C_8  and  C_9 
REMARK    3  A    between atoms: C_10  and  C_11 
REMARK    4  A    between atoms: C_14  and  O_15 
ROOT
HETATM    1  C   UNL     1       6.132  27.899  55.337  1.00  0.00     0.131 C 
HETATM    2  C   UNL     1       4.662  28.365  55.156  1.00  0.00     0.177 C 
HETATM    3  N   UNL     1       4.369  28.547  53.730  1.00  0.00    -0.088 N 
HETATM    4  C   UNL     1       5.308  28.638  52.734  1.00  0.00     0.721 A 
HETATM    5  N   UNL     1       6.627  28.483  52.987  1.00  0.00    -0.218 N 
HETATM    6  C   UNL     1       7.082  28.641  54.368  1.00  0.00     0.111 C 
HETATM    7  C   UNL     1       8.537  28.196  54.492  1.00  0.00     0.034 C 
HETATM    8  N   UNL     1       3.122  28.524  53.213  1.00  0.00    -0.149 NA
HETATM    9  C   UNL     1       3.384  28.695  51.914  1.00  0.00     0.275 A 
HETATM   10  N   UNL     1       4.709  28.767  51.580  1.00  0.00    -0.055 NA
HETATM   11  H   UNL     1       7.243  28.866  52.268  1.00  0.00     0.178 HD
ENDROOT
BRANCH   1  12
HETATM   12  C   UNL     1       6.165  26.365  55.258  1.00  0.00     0.230 C 
HETATM   13  N   UNL     1       7.338  25.823  54.791  1.00  0.00    -0.326 N 
HETATM   14  H   UNL     1       8.056  26.512  54.566  1.00  0.00     0.169 HD
HETATM   15  O   UNL     1       5.129  25.766  55.532  1.00  0.00    -0.273 OA
BRANCH  13  16
HETATM   16  C   UNL     1       7.759  24.495  54.540  1.00  0.00     0.040 A 
HETATM   17  C   UNL     1       8.430  23.606  55.397  1.00  0.00    -0.035 A 
HETATM   18  C   UNL     1       8.737  22.304  54.926  1.00  0.00     0.015 A 
HETATM   19  C   UNL     1       8.876  23.911  56.797  1.00  0.00     0.050 C 
HETATM   20  C   UNL     1       8.418  21.881  53.631  1.00  0.00    -0.061 A 
HETATM   21  C   UNL     1       8.763  20.502  53.155  1.00  0.00     0.048 C 
HETATM   22  C   UNL     1       7.777  22.774  52.782  1.00  0.00     0.009 A 
HETATM   23  C   UNL     1       7.456  24.056  53.233  1.00  0.00     0.030 A 
ENDBRANCH  13  16
ENDBRANCH   1  12
BRANCH   2  24
HETATM   24  C   UNL     1       4.253  29.620  55.944  1.00  0.00    -0.032 A 
HETATM   25  C   UNL     1       3.465  30.655  55.423  1.00  0.00     0.012 A 
HETATM   26  C   UNL     1       3.123  31.766  56.204  1.00  0.00     0.037 A 
HETATM   27  C   UNL     1       3.549  31.873  57.526  1.00  0.00     0.068 A 
HETATM   28  C   UNL     1       4.353  30.870  58.056  1.00  0.00     0.037 A 
HETATM   29  C   UNL     1       4.704  29.763  57.272  1.00  0.00     0.012 A 
BRANCH  27  30
HETATM   30  O   UNL     1       3.129  32.999  58.177  1.00  0.00    -0.356 OA
HETATM   31  C   UNL     1       3.452  33.092  59.559  1.00  0.00     0.210 C 
ENDBRANCH  27  30
ENDBRANCH   2  24
TORSDOF 4
ENDMDL
MODEL 5
REMARK VINA RESULT:      -8.3      7.266     13.263
REMARK  4 active torsions:
REMARK  status: ('A' for Active; 'I' for Inactive)
REMARK    1  A    between atoms: C_6  and  N_7 
REMARK       I    between atoms: N_7  and  C_8 
REMARK    2  A    between atoms: C_8  and  C_9 
REMARK    3  A    between atoms: C_10  and  C_11 
REMARK    4  A    between atoms: C_14  and  O_15 
ROOT
HETATM    1  C   UNL     1       4.468  34.694  62.043  1.00  0.00     0.131 C 
HETATM    2  C   UNL     1       5.494  35.196  63.094  1.00  0.00     0.177 C 
HETATM    3  N   UNL     1       5.100  34.742  64.432  1.00  0.00    -0.088 N 
HETATM    4  C   UNL     1       3.861  34.260  64.771  1.00  0.00     0.721 A 
HETATM    5  N   UNL     1       2.892  34.084  63.845  1.00  0.00    -0.218 N 
HETATM    6  C   UNL     1       3.020  34.798  62.575  1.00  0.00     0.111 C 
HETATM    7  C   UNL     1       1.976  34.291  61.584  1.00  0.00     0.034 C 
HETATM    8  N   UNL     1       5.956  34.633  65.469  1.00  0.00    -0.149 NA
HETATM    9  C   UNL     1       5.145  34.162  66.420  1.00  0.00     0.275 A 
HETATM   10  N   UNL     1       3.855  33.918  66.032  1.00  0.00    -0.055 NA
HETATM   11  H   UNL     1       1.947  34.022  64.228  1.00  0.00     0.178 HD
ENDROOT
BRANCH   1  12
HETATM   12  C   UNL     1       4.906  33.301  61.568  1.00  0.00     0.230 C 
HETATM   13  N   UNL     1       6.076  33.262  60.849  1.00  0.00    -0.326 N 
HETATM   14  H   UNL     1       6.524  34.171  60.732  1.00  0.00     0.169 HD
HETATM   15  O   UNL     1       4.142  32.366  61.791  1.00  0.00    -0.273 OA
BRANCH  13  16
HETATM   16  C   UNL     1       6.793  32.216  60.219  1.00  0.00     0.040 A 
HETATM   17  C   UNL     1       7.929  31.525  60.676  1.00  0.00    -0.035 A 
HETATM   18  C   UNL     1       8.468  30.491  59.869  1.00  0.00     0.015 A 
HETATM   19  C   UNL     1       8.654  31.791  61.962  1.00  0.00     0.050 C 
HETATM   20  C   UNL     1       7.924  30.148  58.627  1.00  0.00    -0.061 A 
HETATM   21  C   UNL     1       8.521  29.056  57.790  1.00  0.00     0.048 C 
HETATM   22  C   UNL     1       6.817  30.852  58.172  1.00  0.00     0.009 A 
HETATM   23  C   UNL     1       6.265  31.866  58.957  1.00  0.00     0.030 A 
ENDBRANCH  13  16
ENDBRANCH   1  12
BRANCH   2  24
HETATM   24  C   UNL     1       5.760  36.710  63.106  1.00  0.00    -0.032 A 
HETATM   25  C   UNL     1       5.557  37.536  64.220  1.00  0.00     0.012 A 
HETATM   26  C   UNL     1       5.830  38.908  64.161  1.00  0.00     0.037 A 
HETATM   27  C   UNL     1       6.317  39.494  62.994  1.00  0.00     0.068 A 
HETATM   28  C   UNL     1       6.502  38.698  61.870  1.00  0.00     0.037 A 
HETATM   29  C   UNL     1       6.220  37.327  61.925  1.00  0.00     0.012 A 
BRANCH  27  30
HETATM   30  O   UNL     1       6.556  40.837  63.081  1.00  0.00    -0.356 OA
HETATM   31  C   UNL     1       7.613  41.240  63.943  1.00  0.00     0.210 C 
ENDBRANCH  27  30
ENDBRANCH   2  24
TORSDOF 4
ENDMDL
MODEL 6
REMARK VINA RESULT:      -8.0      4.550      8.863
REMARK  4 active torsions:
REMARK  status: ('A' for Active; 'I' for Inactive)
REMARK    1  A    between atoms: C_6  and  N_7 
REMARK       I    between atoms: N_7  and  C_8 
REMARK    2  A    between atoms: C_8  and  C_9 
REMARK    3  A    between atoms: C_10  and  C_11 
REMARK    4  A    between atoms: C_14  and  O_15 
ROOT
HETATM    1  C   UNL     1       5.351  28.202  49.618  1.00  0.00     0.131 C 
HETATM    2  C   UNL     1       4.541  29.254  50.423  1.00  0.00     0.177 C 
HETATM    3  N   UNL     1       3.120  29.169  50.065  1.00  0.00    -0.088 N 
HETATM    4  C   UNL     1       2.619  28.527  48.961  1.00  0.00     0.721 A 
HETATM    5  N   UNL     1       3.418  27.827  48.126  1.00  0.00    -0.218 N 
HETATM    6  C   UNL     1       4.854  28.105  48.157  1.00  0.00     0.111 C 
HETATM    7  C   UNL     1       5.605  27.063  47.333  1.00  0.00     0.034 C 
HETATM    8  N   UNL     1       2.122  29.616  50.855  1.00  0.00    -0.149 NA
HETATM    9  C   UNL     1       1.053  29.287  50.123  1.00  0.00     0.275 A 
HETATM   10  N   UNL     1       1.316  28.617  48.958  1.00  0.00    -0.055 NA
HETATM   11  H   UNL     1       3.018  27.657  47.201  1.00  0.00     0.178 HD
ENDROOT
BRANCH   1  12
HETATM   12  C   UNL     1       5.354  26.887  50.411  1.00  0.00     0.230 C 
HETATM   13  N   UNL     1       6.255  26.823  51.446  1.00  0.00    -0.326 N 
HETATM   14  H   UNL     1       6.806  27.672  51.573  1.00  0.00     0.169 HD
HETATM   15  O   UNL     1       4.625  25.986  50.006  1.00  0.00    -0.273 OA
BRANCH  13  16
HETATM   16  C   UNL     1       6.592  25.810  52.376  1.00  0.00     0.040 A 
HETATM   17  C   UNL     1       6.160  25.652  53.704  1.00  0.00    -0.035 A 
HETATM   18  C   UNL     1       6.625  24.536  54.445  1.00  0.00     0.015 A 
HETATM   19  C   UNL     1       5.238  26.580  54.438  1.00  0.00     0.050 C 
HETATM   20  C   UNL     1       7.516  23.600  53.910  1.00  0.00    -0.061 A 
HETATM   21  C   UNL     1       8.000  22.434  54.720  1.00  0.00     0.048 C 
HETATM   22  C   UNL     1       7.958  23.776  52.606  1.00  0.00     0.009 A 
HETATM   23  C   UNL     1       7.502  24.863  51.857  1.00  0.00     0.030 A 
ENDBRANCH  13  16
ENDBRANCH   1  12
BRANCH   2  24
HETATM   24  C   UNL     1       5.029  30.708  50.311  1.00  0.00    -0.032 A 
HETATM   25  C   UNL     1       4.778  31.698  51.271  1.00  0.00     0.012 A 
HETATM   26  C   UNL     1       5.262  33.002  51.107  1.00  0.00     0.037 A 
HETATM   27  C   UNL     1       6.014  33.353  49.988  1.00  0.00     0.068 A 
HETATM   28  C   UNL     1       6.253  32.394  49.011  1.00  0.00     0.037 A 
HETATM   29  C   UNL     1       5.761  31.091  49.170  1.00  0.00     0.012 A 
BRANCH  27  30
HETATM   30  O   UNL     1       6.438  34.653  49.964  1.00  0.00    -0.356 OA
HETATM   31  C   UNL     1       7.225  35.044  48.846  1.00  0.00     0.210 C 
ENDBRANCH  27  30
ENDBRANCH   2  24
TORSDOF 4
ENDMDL
MODEL 7
REMARK VINA RESULT:      -7.9      4.542      8.863
REMARK  4 active torsions:
REMARK  status: ('A' for Active; 'I' for Inactive)
REMARK    1  A    between atoms: C_6  and  N_7 
REMARK       I    between atoms: N_7  and  C_8 
REMARK    2  A    between atoms: C_8  and  C_9 
REMARK    3  A    between atoms: C_10  and  C_11 
REMARK    4  A    between atoms: C_14  and  O_15 
ROOT
HETATM    1  C   UNL     1       5.092  28.400  49.765  1.00  0.00     0.131 C 
HETATM    2  C   UNL     1       4.588  29.833  50.089  1.00  0.00     0.177 C 
HETATM    3  N   UNL     1       3.122  29.853  50.112  1.00  0.00    -0.088 N 
HETATM    4  C   UNL     1       2.309  28.876  49.593  1.00  0.00     0.721 A 
HETATM    5  N   UNL     1       2.815  27.737  49.071  1.00  0.00    -0.218 N 
HETATM    6  C   UNL     1       4.223  27.731  48.675  1.00  0.00     0.111 C 
HETATM    7  C   UNL     1       4.665  26.309  48.340  1.00  0.00     0.034 C 
HETATM    8  N   UNL     1       2.395  30.787  50.759  1.00  0.00    -0.149 NA
HETATM    9  C   UNL     1       1.154  30.358  50.514  1.00  0.00     0.275 A 
HETATM   10  N   UNL     1       1.059  29.190  49.806  1.00  0.00    -0.055 NA
HETATM   11  H   UNL     1       2.176  27.235  48.452  1.00  0.00     0.178 HD
ENDROOT
BRANCH   1  12
HETATM   12  C   UNL     1       5.221  27.624  51.084  1.00  0.00     0.230 C 
HETATM   13  N   UNL     1       6.410  26.959  51.263  1.00  0.00    -0.326 N 
HETATM   14  H   UNL     1       7.074  27.076  50.498  1.00  0.00     0.169 HD
HETATM   15  O   UNL     1       4.236  27.592  51.816  1.00  0.00    -0.273 OA
BRANCH  13  16
HETATM   16  C   UNL     1       6.908  26.125  52.293  1.00  0.00     0.040 A 
HETATM   17  C   UNL     1       7.078  26.414  53.658  1.00  0.00    -0.035 A 
HETATM   18  C   UNL     1       7.584  25.401  54.512  1.00  0.00     0.015 A 
HETATM   19  C   UNL     1       6.779  27.728  54.316  1.00  0.00     0.050 C 
HETATM   20  C   UNL     1       7.942  24.133  54.042  1.00  0.00    -0.061 A 
HETATM   21  C   UNL     1       8.484  23.085  54.966  1.00  0.00     0.048 C 
HETATM   22  C   UNL     1       7.794  23.864  52.688  1.00  0.00     0.009 A 
HETATM   23  C   UNL     1       7.286  24.844  51.833  1.00  0.00     0.030 A 
ENDBRANCH  13  16
ENDBRANCH   1  12
BRANCH   2  24
HETATM   24  C   UNL     1       5.119  30.954  49.181  1.00  0.00    -0.032 A 
HETATM   25  C   UNL     1       6.102  31.878  49.563  1.00  0.00     0.012 A 
HETATM   26  C   UNL     1       6.544  32.869  48.678  1.00  0.00     0.037 A 
HETATM   27  C   UNL     1       6.026  32.963  47.388  1.00  0.00     0.068 A 
HETATM   28  C   UNL     1       5.032  32.074  46.997  1.00  0.00     0.037 A 
HETATM   29  C   UNL     1       4.582  31.088  47.885  1.00  0.00     0.012 A 
BRANCH  27  30
HETATM   30  O   UNL     1       6.559  33.965  46.626  1.00  0.00    -0.356 OA
HETATM   31  C   UNL     1       7.215  33.570  45.427  1.00  0.00     0.210 C 
ENDBRANCH  27  30
ENDBRANCH   2  24
TORSDOF 4
ENDMDL
MODEL 8
REMARK VINA RESULT:      -7.9      3.265      4.651
REMARK  4 active torsions:
REMARK  status: ('A' for Active; 'I' for Inactive)
REMARK    1  A    between atoms: C_6  and  N_7 
REMARK       I    between atoms: N_7  and  C_8 
REMARK    2  A    between atoms: C_8  and  C_9 
REMARK    3  A    between atoms: C_10  and  C_11 
REMARK    4  A    between atoms: C_14  and  O_15 
ROOT
HETATM    1  C   UNL     1       6.120  27.512  55.136  1.00  0.00     0.131 C 
HETATM    2  C   UNL     1       7.026  27.175  56.350  1.00  0.00     0.177 C 
HETATM    3  N   UNL     1       8.199  28.057  56.357  1.00  0.00    -0.088 N 
HETATM    4  C   UNL     1       8.626  28.814  55.295  1.00  0.00     0.721 A 
HETATM    5  N   UNL     1       7.927  28.871  54.140  1.00  0.00    -0.218 N 
HETATM    6  C   UNL     1       6.959  27.808  53.871  1.00  0.00     0.111 C 
HETATM    7  C   UNL     1       6.110  28.170  52.656  1.00  0.00     0.034 C 
HETATM    8  N   UNL     1       8.932  28.319  57.459  1.00  0.00    -0.149 NA
HETATM    9  C   UNL     1       9.834  29.173  56.965  1.00  0.00     0.275 A 
HETATM   10  N   UNL     1       9.679  29.503  55.646  1.00  0.00    -0.055 NA
HETATM   11  H   UNL     1       8.466  29.196  53.335  1.00  0.00     0.178 HD
ENDROOT
BRANCH   1  12
HETATM   12  C   UNL     1       5.138  28.616  55.558  1.00  0.00     0.230 C 
HETATM   13  N   UNL     1       5.655  29.889  55.579  1.00  0.00    -0.326 N 
HETATM   14  H   UNL     1       6.632  29.948  55.294  1.00  0.00     0.169 HD
HETATM   15  O   UNL     1       4.018  28.264  55.918  1.00  0.00    -0.273 OA
BRANCH  13  16
HETATM   16  C   UNL     1       5.112  31.149  55.930  1.00  0.00     0.040 A 
HETATM   17  C   UNL     1       5.336  31.914  57.087  1.00  0.00    -0.035 A 
HETATM   18  C   UNL     1       4.687  33.169  57.212  1.00  0.00     0.015 A 
HETATM   19  C   UNL     1       6.210  31.517  58.241  1.00  0.00     0.050 C 
HETATM   20  C   UNL     1       3.815  33.662  56.236  1.00  0.00    -0.061 A 
HETATM   21  C   UNL     1       3.134  34.988  56.399  1.00  0.00     0.048 C 
HETATM   22  C   UNL     1       3.580  32.889  55.107  1.00  0.00     0.009 A 
HETATM   23  C   UNL     1       4.219  31.656  54.961  1.00  0.00     0.030 A 
ENDBRANCH  13  16
ENDBRANCH   1  12
BRANCH   2  24
HETATM   24  C   UNL     1       7.467  25.708  56.474  1.00  0.00    -0.032 A 
HETATM   25  C   UNL     1       8.414  25.245  57.399  1.00  0.00     0.012 A 
HETATM   26  C   UNL     1       8.760  23.890  57.461  1.00  0.00     0.037 A 
HETATM   27  C   UNL     1       8.169  22.958  56.611  1.00  0.00     0.068 A 
HETATM   28  C   UNL     1       7.246  23.398  55.670  1.00  0.00     0.037 A 
HETATM   29  C   UNL     1       6.906  24.756  55.600  1.00  0.00     0.012 A 
BRANCH  27  30
HETATM   30  O   UNL     1       8.586  21.669  56.791  1.00  0.00    -0.356 OA
HETATM   31  C   UNL     1       9.089  20.997  55.642  1.00  0.00     0.210 C 
ENDBRANCH  27  30
ENDBRANCH   2  24
TORSDOF 4
ENDMDL
MODEL 9
REMARK VINA RESULT:      -7.6      4.409      8.839
REMARK  4 active torsions:
REMARK  status: ('A' for Active; 'I' for Inactive)
REMARK    1  A    between atoms: C_6  and  N_7 
REMARK       I    between atoms: N_7  and  C_8 
REMARK    2  A    between atoms: C_8  and  C_9 
REMARK    3  A    between atoms: C_10  and  C_11 
REMARK    4  A    between atoms: C_14  and  O_15 
ROOT
HETATM    1  C   UNL     1       4.618  28.275  50.838  1.00  0.00     0.131 C 
HETATM    2  C   UNL     1       4.385  27.645  52.237  1.00  0.00     0.177 C 
HETATM    3  N   UNL     1       4.257  28.703  53.245  1.00  0.00    -0.088 N 
HETATM    4  C   UNL     1       4.626  30.012  53.069  1.00  0.00     0.721 A 
HETATM    5  N   UNL     1       5.082  30.466  51.880  1.00  0.00    -0.218 N 
HETATM    6  C   UNL     1       5.579  29.484  50.917  1.00  0.00     0.111 C 
HETATM    7  C   UNL     1       5.818  30.153  49.566  1.00  0.00     0.034 C 
HETATM    8  N   UNL     1       3.642  28.534  54.435  1.00  0.00    -0.149 NA
HETATM    9  C   UNL     1       3.757  29.759  54.956  1.00  0.00     0.275 A 
HETATM   10  N   UNL     1       4.351  30.693  54.150  1.00  0.00    -0.055 NA
HETATM   11  H   UNL     1       5.606  31.341  51.934  1.00  0.00     0.178 HD
ENDROOT
BRANCH   1  12
HETATM   12  C   UNL     1       3.249  28.552  50.199  1.00  0.00     0.230 C 
HETATM   13  N   UNL     1       3.091  28.087  48.915  1.00  0.00    -0.326 N 
HETATM   14  H   UNL     1       3.906  27.596  48.546  1.00  0.00     0.169 HD
HETATM   15  O   UNL     1       2.454  29.228  50.845  1.00  0.00    -0.273 OA
BRANCH  13  16
HETATM   16  C   UNL     1       2.029  28.159  47.982  1.00  0.00     0.040 A 
HETATM   17  C   UNL     1       1.575  27.177  47.084  1.00  0.00    -0.035 A 
HETATM   18  C   UNL     1       0.469  27.476  46.249  1.00  0.00     0.015 A 
HETATM   19  C   UNL     1       2.171  25.812  46.910  1.00  0.00     0.050 C 
HETATM   20  C   UNL     1      -0.173  28.719  46.270  1.00  0.00    -0.061 A 
HETATM   21  C   UNL     1      -1.334  29.011  45.368  1.00  0.00     0.048 C 
HETATM   22  C   UNL     1       0.297  29.692  47.142  1.00  0.00     0.009 A 
HETATM   23  C   UNL     1       1.378  29.412  47.981  1.00  0.00     0.030 A 
ENDBRANCH  13  16
ENDBRANCH   1  12
BRANCH   2  24
HETATM   24  C   UNL     1       5.424  26.606  52.689  1.00  0.00    -0.032 A 
HETATM   25  C   UNL     1       5.207  25.221  52.685  1.00  0.00     0.012 A 
HETATM   26  C   UNL     1       6.205  24.333  53.102  1.00  0.00     0.037 A 
HETATM   27  C   UNL     1       7.448  24.797  53.529  1.00  0.00     0.068 A 
HETATM   28  C   UNL     1       7.676  26.168  53.566  1.00  0.00     0.037 A 
HETATM   29  C   UNL     1       6.674  27.058  53.158  1.00  0.00     0.012 A 
BRANCH  27  30
HETATM   30  O   UNL     1       8.333  23.821  53.893  1.00  0.00    -0.356 OA
HETATM   31  C   UNL     1       8.163  22.549  53.279  1.00  0.00     0.210 C 
ENDBRANCH  27  30
ENDBRANCH   2  24
TORSDOF 4
ENDMDL
MODEL 10
REMARK VINA RESULT:      -7.4      7.873     11.694
REMARK  4 active torsions:
REMARK  status: ('A' for Active; 'I' for Inactive)
REMARK    1  A    between atoms: C_6  and  N_7 
REMARK       I    between atoms: N_7  and  C_8 
REMARK    2  A    between atoms: C_8  and  C_9 
REMARK    3  A    between atoms: C_10  and  C_11 
REMARK    4  A    between atoms: C_14  and  O_15 
ROOT
HETATM    1  C   UNL     1       4.491  35.182  62.564  1.00  0.00     0.131 C 
HETATM    2  C   UNL     1       4.202  35.067  61.043  1.00  0.00     0.177 C 
HETATM    3  N   UNL     1       2.754  34.995  60.815  1.00  0.00    -0.088 N 
HETATM    4  C   UNL     1       1.815  34.718  61.776  1.00  0.00     0.721 A 
HETATM    5  N   UNL     1       2.155  34.562  63.075  1.00  0.00    -0.218 N 
HETATM    6  C   UNL     1       3.553  34.268  63.386  1.00  0.00     0.111 C 
HETATM    7  C   UNL     1       3.784  34.367  64.892  1.00  0.00     0.034 C 
HETATM    8  N   UNL     1       2.163  35.314  59.645  1.00  0.00    -0.149 NA
HETATM    9  C   UNL     1       0.876  35.122  59.950  1.00  0.00     0.275 A 
HETATM   10  N   UNL     1       0.622  34.759  61.245  1.00  0.00    -0.055 NA
HETATM   11  H   UNL     1       1.460  34.068  63.637  1.00  0.00     0.178 HD
ENDROOT
BRANCH   1  12
HETATM   12  C   UNL     1       4.477  36.669  62.947  1.00  0.00     0.230 C 
HETATM   13  N   UNL     1       5.711  37.234  63.165  1.00  0.00    -0.326 N 
HETATM   14  H   UNL     1       6.494  36.594  63.030  1.00  0.00     0.169 HD
HETATM   15  O   UNL     1       3.381  37.198  63.107  1.00  0.00    -0.273 OA
BRANCH  13  16
HETATM   16  C   UNL     1       6.128  38.529  63.557  1.00  0.00     0.040 A 
HETATM   17  C   UNL     1       6.839  39.489  62.816  1.00  0.00    -0.035 A 
HETATM   18  C   UNL     1       7.132  40.738  63.420  1.00  0.00     0.015 A 
HETATM   19  C   UNL     1       7.342  39.312  61.413  1.00  0.00     0.050 C 
HETATM   20  C   UNL     1       6.760  41.041  64.734  1.00  0.00    -0.061 A 
HETATM   21  C   UNL     1       7.092  42.366  65.351  1.00  0.00     0.048 C 
HETATM   22  C   UNL     1       6.079  40.078  65.468  1.00  0.00     0.009 A 
HETATM   23  C   UNL     1       5.771  38.847  64.886  1.00  0.00     0.030 A 
ENDBRANCH  13  16
ENDBRANCH   1  12
BRANCH   2  24
HETATM   24  C   UNL     1       4.911  33.919  60.308  1.00  0.00    -0.032 A 
HETATM   25  C   UNL     1       4.624  33.530  58.992  1.00  0.00     0.012 A 
HETATM   26  C   UNL     1       5.319  32.479  58.382  1.00  0.00     0.037 A 
HETATM   27  C   UNL     1       6.322  31.790  59.062  1.00  0.00     0.068 A 
HETATM   28  C   UNL     1       6.605  32.142  60.376  1.00  0.00     0.037 A 
HETATM   29  C   UNL     1       5.904  33.188  60.991  1.00  0.00     0.012 A 
BRANCH  27  30
HETATM   30  O   UNL     1       6.929  30.799  58.342  1.00  0.00    -0.356 OA
HETATM   31  C   UNL     1       6.077  29.962  57.569  1.00  0.00     0.210 C 
ENDBRANCH  27  30
ENDBRANCH   2  24
TORSDOF 4
ENDMDL
