MODEL 1
REMARK VINA RESULT:      -8.3      0.000      0.000
REMARK  3 active torsions:
REMARK  status: ('A' for Active; 'I' for Inactive)
REMARK    1  A    between atoms: C_6  and  C_7 
REMARK       I    between atoms: C_7  and  N_8 
REMARK    2  A    between atoms: N_8  and  C_9 
REMARK    3  A    between atoms: C_9  and  C_10 
ROOT
HETATM    1  C   UNL     1       6.077  26.110  55.280  1.00  0.00     0.271 C 
HETATM    2  N   UNL     1       6.991  27.132  55.354  1.00  0.00    -0.341 N 
HETATM    3  O   UNL     1       4.974  26.192  55.812  1.00  0.00    -0.266 OA
HETATM    4  H   UNL     1       7.936  26.956  55.035  1.00  0.00     0.164 HD
ENDROOT
BRANCH   1   5
HETATM    5  C   UNL     1       6.518  24.939  54.557  1.00  0.00     0.133 A 
HETATM    6  N   UNL     1       7.216  23.882  55.126  1.00  0.00    -0.300 N 
HETATM    7  C   UNL     1       7.432  22.947  54.118  1.00  0.00     0.135 A 
HETATM    8  C   UNL     1       7.681  23.691  56.431  1.00  0.00     0.100 A 
HETATM    9  C   UNL     1       8.138  21.758  54.455  1.00  0.00     0.057 A 
HETATM   10  N   UNL     1       6.920  23.340  52.976  1.00  0.00    -0.233 NA
HETATM   11  C   UNL     1       8.582  21.559  55.715  1.00  0.00    -0.057 A 
HETATM   12  C   UNL     1       9.319  20.323  56.130  1.00  0.00     0.048 C 
HETATM   13  C   UNL     1       8.349  22.568  56.745  1.00  0.00     0.024 A 
HETATM   14  C   UNL     1       6.335  24.557  53.229  1.00  0.00     0.066 A 
HETATM   15  C   UNL     1       5.601  25.230  52.128  1.00  0.00     0.073 C 
ENDBRANCH   1   5
BRANCH   2  16
HETATM   16  C   UNL     1       6.785  28.427  56.032  1.00  0.00     0.079 C 
HETATM   17  C   UNL     1       5.909  29.351  55.167  1.00  0.00     0.046 C 
HETATM   18  C   UNL     1       6.151  28.208  57.417  1.00  0.00     0.046 C 
BRANCH  16  19
HETATM   19  C   UNL     1       8.182  29.034  56.189  1.00  0.00     0.128 A 
HETATM   20  S   UNL     1       8.857  29.455  57.720  1.00  0.00    -0.031 SA
HETATM   21  C   UNL     1      10.264  29.975  56.887  1.00  0.00     0.187 A 
HETATM   22  N   UNL     1      11.319  30.491  57.541  1.00  0.00    -0.377 N 
HETATM   23  N   UNL     1      10.190  29.832  55.583  1.00  0.00    -0.124 NA
HETATM   24  H   UNL     1      11.175  30.871  58.468  1.00  0.00     0.158 HD
HETATM   25  H   UNL     1      11.987  31.006  56.976  1.00  0.00     0.158 HD
HETATM   26  N   UNL     1       8.991  29.288  55.176  1.00  0.00    -0.142 NA
ENDBRANCH  16  19
ENDBRANCH   2  16
TORSDOF 3
ENDMDL
MODEL 2
REMARK VINA RESULT:      -8.1      2.399      6.859
REMARK  3 active torsions:
REMARK  status: ('A' for Active; 'I' for Inactive)
REMARK    1  A    between atoms: C_6  and  C_7 
REMARK       I    between atoms: C_7  and  N_8 
REMARK    2  A    between atoms: N_8  and  C_9 
REMARK    3  A    between atoms: C_9  and  C_10 
ROOT
HETATM    1  C   UNL     1       7.047  26.811  54.357  1.00  0.00     0.271 C 
HETATM    2  N   UNL     1       7.132  25.441  54.379  1.00  0.00    -0.341 N 
HETATM    3  O   UNL     1       6.941  27.434  53.305  1.00  0.00    -0.266 OA
HETATM    4  H   UNL     1       7.373  24.988  55.252  1.00  0.00     0.164 HD
ENDROOT
BRANCH   1   5
HETATM    5  C   UNL     1       7.117  27.454  55.649  1.00  0.00     0.133 A 
HETATM    6  N   UNL     1       8.106  28.353  56.027  1.00  0.00    -0.300 N 
HETATM    7  C   UNL     1       7.810  28.763  57.324  1.00  0.00     0.135 A 
HETATM    8  C   UNL     1       9.233  28.815  55.339  1.00  0.00     0.100 A 
HETATM    9  C   UNL     1       8.688  29.698  57.942  1.00  0.00     0.057 A 
HETATM   10  N   UNL     1       6.716  28.195  57.773  1.00  0.00    -0.233 NA
HETATM   11  C   UNL     1       9.773  30.157  57.282  1.00  0.00    -0.057 A 
HETATM   12  C   UNL     1      10.725  31.149  57.877  1.00  0.00     0.048 C 
HETATM   13  C   UNL     1      10.061  29.694  55.927  1.00  0.00     0.024 A 
HETATM   14  C   UNL     1       6.263  27.398  56.750  1.00  0.00     0.066 A 
HETATM   15  C   UNL     1       4.983  26.669  56.937  1.00  0.00     0.073 C 
ENDBRANCH   1   5
BRANCH   2  16
HETATM   16  C   UNL     1       7.086  24.555  53.200  1.00  0.00     0.079 C 
HETATM   17  C   UNL     1       5.674  24.552  52.586  1.00  0.00     0.046 C 
HETATM   18  C   UNL     1       8.134  24.994  52.162  1.00  0.00     0.046 C 
BRANCH  16  19
HETATM   19  C   UNL     1       7.426  23.157  53.724  1.00  0.00     0.128 A 
HETATM   20  S   UNL     1       7.525  22.781  55.404  1.00  0.00    -0.031 SA
HETATM   21  C   UNL     1       7.908  21.169  54.958  1.00  0.00     0.187 A 
HETATM   22  N   UNL     1       8.151  20.221  55.881  1.00  0.00    -0.377 N 
HETATM   23  N   UNL     1       7.951  20.976  53.660  1.00  0.00    -0.124 NA
HETATM   24  H   UNL     1       8.426  20.512  56.811  1.00  0.00     0.158 HD
HETATM   25  H   UNL     1       8.617  19.384  55.548  1.00  0.00     0.158 HD
HETATM   26  N   UNL     1       7.672  22.120  52.943  1.00  0.00    -0.142 NA
ENDBRANCH  16  19
ENDBRANCH   2  16
TORSDOF 3
ENDMDL
MODEL 3
REMARK VINA RESULT:      -8.0      5.048      7.193
REMARK  3 active torsions:
REMARK  status: ('A' for Active; 'I' for Inactive)
REMARK    1  A    between atoms: C_6  and  C_7 
REMARK       I    between atoms: C_7  and  N_8 
REMARK    2  A    between atoms: N_8  and  C_9 
REMARK    3  A    between atoms: C_9  and  C_10 
ROOT
HETATM    1  C   UNL     1       8.083  30.478  59.179  1.00  0.00     0.271 C 
HETATM    2  N   UNL     1       7.688  30.857  60.438  1.00  0.00    -0.341 N 
HETATM    3  O   UNL     1       9.264  30.484  58.845  1.00  0.00    -0.266 OA
HETATM    4  H   UNL     1       6.698  30.984  60.614  1.00  0.00     0.164 HD
ENDROOT
BRANCH   1   5
HETATM    5  C   UNL     1       7.013  30.102  58.284  1.00  0.00     0.133 A 
HETATM    6  N   UNL     1       6.850  28.832  57.745  1.00  0.00    -0.300 N 
HETATM    7  C   UNL     1       5.699  28.867  56.963  1.00  0.00     0.135 A 
HETATM    8  C   UNL     1       7.629  27.678  57.873  1.00  0.00     0.100 A 
HETATM    9  C   UNL     1       5.314  27.670  56.295  1.00  0.00     0.057 A 
HETATM   10  N   UNL     1       5.137  30.052  56.980  1.00  0.00    -0.233 NA
HETATM   11  C   UNL     1       6.054  26.548  56.420  1.00  0.00    -0.057 A 
HETATM   12  C   UNL     1       5.691  25.257  55.751  1.00  0.00     0.048 C 
HETATM   13  C   UNL     1       7.264  26.551  57.239  1.00  0.00     0.024 A 
HETATM   14  C   UNL     1       5.921  30.823  57.804  1.00  0.00     0.066 A 
HETATM   15  C   UNL     1       5.494  32.218  58.080  1.00  0.00     0.073 C 
ENDBRANCH   1   5
BRANCH   2  16
HETATM   16  C   UNL     1       8.582  31.284  61.531  1.00  0.00     0.079 C 
HETATM   17  C   UNL     1       9.288  30.065  62.153  1.00  0.00     0.046 C 
HETATM   18  C   UNL     1       9.609  32.306  61.011  1.00  0.00     0.046 C 
BRANCH  16  19
HETATM   19  C   UNL     1       7.673  31.943  62.572  1.00  0.00     0.128 A 
HETATM   20  S   UNL     1       5.952  31.868  62.498  1.00  0.00    -0.031 SA
HETATM   21  C   UNL     1       5.911  32.796  63.941  1.00  0.00     0.187 A 
HETATM   22  N   UNL     1       4.749  33.159  64.513  1.00  0.00    -0.377 N 
HETATM   23  N   UNL     1       7.100  33.114  64.398  1.00  0.00    -0.124 NA
HETATM   24  H   UNL     1       3.912  33.170  63.943  1.00  0.00     0.158 HD
HETATM   25  H   UNL     1       4.802  33.909  65.195  1.00  0.00     0.158 HD
HETATM   26  N   UNL     1       8.121  32.623  63.612  1.00  0.00    -0.142 NA
ENDBRANCH  16  19
ENDBRANCH   2  16
TORSDOF 3
ENDMDL
MODEL 4
REMARK VINA RESULT:      -7.9      1.687      2.144
REMARK  3 active torsions:
REMARK  status: ('A' for Active; 'I' for Inactive)
REMARK    1  A    between atoms: C_6  and  C_7 
REMARK       I    between atoms: C_7  and  N_8 
REMARK    2  A    between atoms: N_8  and  C_9 
REMARK    3  A    between atoms: C_9  and  C_10 
ROOT
HETATM    1  C   UNL     1       5.557  27.576  54.483  1.00  0.00     0.271 C 
HETATM    2  N   UNL     1       6.531  28.206  55.218  1.00  0.00    -0.341 N 
HETATM    3  O   UNL     1       4.364  27.752  54.710  1.00  0.00    -0.266 OA
HETATM    4  H   UNL     1       7.493  27.910  55.095  1.00  0.00     0.164 HD
ENDROOT
BRANCH   1   5
HETATM    5  C   UNL     1       6.041  26.684  53.454  1.00  0.00     0.133 A 
HETATM    6  N   UNL     1       6.708  25.490  53.699  1.00  0.00    -0.300 N 
HETATM    7  C   UNL     1       6.982  24.916  52.461  1.00  0.00     0.135 A 
HETATM    8  C   UNL     1       7.098  24.892  54.900  1.00  0.00     0.100 A 
HETATM    9  C   UNL     1       7.669  23.670  52.445  1.00  0.00     0.057 A 
HETATM   10  N   UNL     1       6.534  25.656  51.474  1.00  0.00    -0.233 NA
HETATM   11  C   UNL     1       8.042  23.079  53.600  1.00  0.00    -0.057 A 
HETATM   12  C   UNL     1       8.757  21.762  53.645  1.00  0.00     0.048 C 
HETATM   13  C   UNL     1       7.749  23.717  54.881  1.00  0.00     0.024 A 
HETATM   14  C   UNL     1       5.934  26.741  52.065  1.00  0.00     0.066 A 
HETATM   15  C   UNL     1       5.262  27.737  51.193  1.00  0.00     0.073 C 
ENDBRANCH   1   5
BRANCH   2  16
HETATM   16  C   UNL     1       6.299  29.159  56.319  1.00  0.00     0.079 C 
HETATM   17  C   UNL     1       5.646  30.447  55.785  1.00  0.00     0.046 C 
HETATM   18  C   UNL     1       5.427  28.512  57.409  1.00  0.00     0.046 C 
BRANCH  16  19
HETATM   19  C   UNL     1       7.687  29.478  56.885  1.00  0.00     0.128 A 
HETATM   20  S   UNL     1       9.137  29.307  55.968  1.00  0.00    -0.031 SA
HETATM   21  C   UNL     1      10.000  29.853  57.346  1.00  0.00     0.187 A 
HETATM   22  N   UNL     1      11.340  29.967  57.340  1.00  0.00    -0.377 N 
HETATM   23  N   UNL     1       9.233  30.125  58.377  1.00  0.00    -0.124 NA
HETATM   24  H   UNL     1      11.867  29.436  56.656  1.00  0.00     0.158 HD
HETATM   25  H   UNL     1      11.787  30.040  58.249  1.00  0.00     0.158 HD
HETATM   26  N   UNL     1       7.896  29.911  58.115  1.00  0.00    -0.142 NA
ENDBRANCH  16  19
ENDBRANCH   2  16
TORSDOF 3
ENDMDL
MODEL 5
REMARK VINA RESULT:      -7.8      4.371      8.648
REMARK  3 active torsions:
REMARK  status: ('A' for Active; 'I' for Inactive)
REMARK    1  A    between atoms: C_6  and  C_7 
REMARK       I    between atoms: C_7  and  N_8 
REMARK    2  A    between atoms: N_8  and  C_9 
REMARK    3  A    between atoms: C_9  and  C_10 
ROOT
HETATM    1  C   UNL     1       6.737  31.125  58.261  1.00  0.00     0.271 C 
HETATM    2  N   UNL     1       6.614  29.788  57.976  1.00  0.00    -0.341 N 
HETATM    3  O   UNL     1       6.059  31.971  57.687  1.00  0.00    -0.266 OA
HETATM    4  H   UNL     1       7.300  29.149  58.360  1.00  0.00     0.164 HD
ENDROOT
BRANCH   1   5
HETATM    5  C   UNL     1       7.731  31.454  59.257  1.00  0.00     0.133 A 
HETATM    6  N   UNL     1       7.438  31.889  60.544  1.00  0.00    -0.300 N 
HETATM    7  C   UNL     1       8.654  32.073  61.197  1.00  0.00     0.135 A 
HETATM    8  C   UNL     1       6.213  32.147  61.165  1.00  0.00     0.100 A 
HETATM    9  C   UNL     1       8.620  32.522  62.547  1.00  0.00     0.057 A 
HETATM   10  N   UNL     1       9.670  31.781  60.421  1.00  0.00    -0.233 NA
HETATM   11  C   UNL     1       7.441  32.765  63.159  1.00  0.00    -0.057 A 
HETATM   12  C   UNL     1       7.344  33.228  64.581  1.00  0.00     0.048 C 
HETATM   13  C   UNL     1       6.185  32.575  62.438  1.00  0.00     0.024 A 
HETATM   14  C   UNL     1       9.122  31.379  59.226  1.00  0.00     0.066 A 
HETATM   15  C   UNL     1      10.036  30.912  58.153  1.00  0.00     0.073 C 
ENDBRANCH   1   5
BRANCH   2  16
HETATM   16  C   UNL     1       5.677  29.196  57.001  1.00  0.00     0.079 C 
HETATM   17  C   UNL     1       4.223  29.504  57.401  1.00  0.00     0.046 C 
HETATM   18  C   UNL     1       5.980  29.719  55.586  1.00  0.00     0.046 C 
BRANCH  16  19
HETATM   19  C   UNL     1       5.923  27.685  57.061  1.00  0.00     0.128 A 
HETATM   20  S   UNL     1       7.492  26.995  57.243  1.00  0.00    -0.031 SA
HETATM   21  C   UNL     1       6.749  25.449  57.204  1.00  0.00     0.187 A 
HETATM   22  N   UNL     1       7.470  24.317  57.297  1.00  0.00    -0.377 N 
HETATM   23  N   UNL     1       5.444  25.493  57.063  1.00  0.00    -0.124 NA
HETATM   24  H   UNL     1       8.456  24.352  57.067  1.00  0.00     0.158 HD
HETATM   25  H   UNL     1       7.002  23.464  57.008  1.00  0.00     0.158 HD
HETATM   26  N   UNL     1       4.962  26.782  56.982  1.00  0.00    -0.142 NA
ENDBRANCH  16  19
ENDBRANCH   2  16
TORSDOF 3
ENDMDL
MODEL 6
REMARK VINA RESULT:      -7.8      5.681      7.876
REMARK  3 active torsions:
REMARK  status: ('A' for Active; 'I' for Inactive)
REMARK    1  A    between atoms: C_6  and  C_7 
REMARK       I    between atoms: C_7  and  N_8 
REMARK    2  A    between atoms: N_8  and  C_9 
REMARK    3  A    between atoms: C_9  and  C_10 
ROOT
HETATM    1  C   UNL     1       6.257  31.926  59.087  1.00  0.00     0.271 C 
HETATM    2  N   UNL     1       5.816  31.929  60.387  1.00  0.00    -0.341 N 
HETATM    3  O   UNL     1       5.768  32.666  58.239  1.00  0.00    -0.266 OA
HETATM    4  H   UNL     1       6.140  31.196  61.007  1.00  0.00     0.164 HD
ENDROOT
BRANCH   1   5
HETATM    5  C   UNL     1       7.309  30.979  58.796  1.00  0.00     0.133 A 
HETATM    6  N   UNL     1       7.136  29.815  58.057  1.00  0.00    -0.300 N 
HETATM    7  C   UNL     1       8.380  29.195  57.978  1.00  0.00     0.135 A 
HETATM    8  C   UNL     1       5.990  29.264  57.476  1.00  0.00     0.100 A 
HETATM    9  C   UNL     1       8.465  27.968  57.262  1.00  0.00     0.057 A 
HETATM   10  N   UNL     1       9.305  29.884  58.602  1.00  0.00    -0.233 NA
HETATM   11  C   UNL     1       7.366  27.432  56.689  1.00  0.00    -0.057 A 
HETATM   12  C   UNL     1       7.398  26.149  55.914  1.00  0.00     0.048 C 
HETATM   13  C   UNL     1       6.074  28.103  56.804  1.00  0.00     0.024 A 
HETATM   14  C   UNL     1       8.670  30.997  59.098  1.00  0.00     0.066 A 
HETATM   15  C   UNL     1       9.484  32.017  59.805  1.00  0.00     0.073 C 
ENDBRANCH   1   5
BRANCH   2  16
HETATM   16  C   UNL     1       4.757  32.797  60.937  1.00  0.00     0.079 C 
HETATM   17  C   UNL     1       4.792  34.179  60.260  1.00  0.00     0.046 C 
HETATM   18  C   UNL     1       3.379  32.134  60.760  1.00  0.00     0.046 C 
BRANCH  16  19
HETATM   19  C   UNL     1       5.077  32.941  62.428  1.00  0.00     0.128 A 
HETATM   20  S   UNL     1       6.658  33.295  63.019  1.00  0.00    -0.031 SA
HETATM   21  C   UNL     1       6.006  33.251  64.606  1.00  0.00     0.187 A 
HETATM   22  N   UNL     1       6.776  33.456  65.690  1.00  0.00    -0.377 N 
HETATM   23  N   UNL     1       4.720  32.989  64.643  1.00  0.00    -0.124 NA
HETATM   24  H   UNL     1       7.776  33.317  65.606  1.00  0.00     0.158 HD
HETATM   25  H   UNL     1       6.384  33.161  66.578  1.00  0.00     0.158 HD
HETATM   26  N   UNL     1       4.178  32.811  63.388  1.00  0.00    -0.142 NA
ENDBRANCH  16  19
ENDBRANCH   2  16
TORSDOF 3
ENDMDL
MODEL 7
REMARK VINA RESULT:      -7.8      5.275      7.456
REMARK  3 active torsions:
REMARK  status: ('A' for Active; 'I' for Inactive)
REMARK    1  A    between atoms: C_6  and  C_7 
REMARK       I    between atoms: C_7  and  N_8 
REMARK    2  A    between atoms: N_8  and  C_9 
REMARK    3  A    between atoms: C_9  and  C_10 
ROOT
HETATM    1  C   UNL     1       5.042  27.163  50.611  1.00  0.00     0.271 C 
HETATM    2  N   UNL     1       4.162  26.380  49.907  1.00  0.00    -0.341 N 
HETATM    3  O   UNL     1       5.661  28.078  50.077  1.00  0.00    -0.266 OA
HETATM    4  H   UNL     1       3.797  25.546  50.352  1.00  0.00     0.164 HD
ENDROOT
BRANCH   1   5
HETATM    5  C   UNL     1       5.197  26.815  52.005  1.00  0.00     0.133 A 
HETATM    6  N   UNL     1       6.104  25.878  52.484  1.00  0.00    -0.300 N 
HETATM    7  C   UNL     1       5.966  25.849  53.869  1.00  0.00     0.135 A 
HETATM    8  C   UNL     1       7.009  25.054  51.809  1.00  0.00     0.100 A 
HETATM    9  C   UNL     1       6.797  24.955  54.601  1.00  0.00     0.057 A 
HETATM   10  N   UNL     1       5.053  26.695  54.283  1.00  0.00    -0.233 NA
HETATM   11  C   UNL     1       7.682  24.162  53.958  1.00  0.00    -0.057 A 
HETATM   12  C   UNL     1       8.590  23.211  54.677  1.00  0.00     0.048 C 
HETATM   13  C   UNL     1       7.790  24.209  52.503  1.00  0.00     0.024 A 
HETATM   14  C   UNL     1       4.580  27.315  53.151  1.00  0.00     0.066 A 
HETATM   15  C   UNL     1       3.569  28.392  53.306  1.00  0.00     0.073 C 
ENDBRANCH   1   5
BRANCH   2  16
HETATM   16  C   UNL     1       3.828  26.529  48.477  1.00  0.00     0.079 C 
HETATM   17  C   UNL     1       5.111  26.684  47.640  1.00  0.00     0.046 C 
HETATM   18  C   UNL     1       3.001  25.324  47.995  1.00  0.00     0.046 C 
BRANCH  16  19
HETATM   19  C   UNL     1       2.990  27.807  48.383  1.00  0.00     0.128 A 
HETATM   20  S   UNL     1       3.433  29.151  47.397  1.00  0.00    -0.031 SA
HETATM   21  C   UNL     1       2.009  29.940  47.939  1.00  0.00     0.187 A 
HETATM   22  N   UNL     1       1.690  31.180  47.529  1.00  0.00    -0.377 N 
HETATM   23  N   UNL     1       1.298  29.226  48.783  1.00  0.00    -0.124 NA
HETATM   24  H   UNL     1       2.426  31.773  47.165  1.00  0.00     0.158 HD
HETATM   25  H   UNL     1       0.993  31.668  48.081  1.00  0.00     0.158 HD
HETATM   26  N   UNL     1       1.860  27.994  49.041  1.00  0.00    -0.142 NA
ENDBRANCH  16  19
ENDBRANCH   2  16
TORSDOF 3
ENDMDL
MODEL 8
REMARK VINA RESULT:      -7.7      4.488      6.810
REMARK  3 active torsions:
REMARK  status: ('A' for Active; 'I' for Inactive)
REMARK    1  A    between atoms: C_6  and  C_7 
REMARK       I    between atoms: C_7  and  N_8 
REMARK    2  A    between atoms: N_8  and  C_9 
REMARK    3  A    between atoms: C_9  and  C_10 
ROOT
HETATM    1  C   UNL     1       5.689  27.917  52.503  1.00  0.00     0.271 C 
HETATM    2  N   UNL     1       4.782  27.648  51.508  1.00  0.00    -0.341 N 
HETATM    3  O   UNL     1       6.338  28.958  52.520  1.00  0.00    -0.266 OA
HETATM    4  H   UNL     1       4.389  26.716  51.454  1.00  0.00     0.164 HD
ENDROOT
BRANCH   1   5
HETATM    5  C   UNL     1       5.835  26.881  53.501  1.00  0.00     0.133 A 
HETATM    6  N   UNL     1       6.519  25.689  53.300  1.00  0.00    -0.300 N 
HETATM    7  C   UNL     1       6.455  24.978  54.495  1.00  0.00     0.135 A 
HETATM    8  C   UNL     1       7.165  25.185  52.167  1.00  0.00     0.100 A 
HETATM    9  C   UNL     1       7.091  23.705  54.545  1.00  0.00     0.057 A 
HETATM   10  N   UNL     1       5.793  25.636  55.416  1.00  0.00    -0.233 NA
HETATM   11  C   UNL     1       7.725  23.214  53.459  1.00  0.00    -0.057 A 
HETATM   12  C   UNL     1       8.421  21.886  53.456  1.00  0.00     0.048 C 
HETATM   13  C   UNL     1       7.761  23.982  52.217  1.00  0.00     0.024 A 
HETATM   14  C   UNL     1       5.418  26.821  54.829  1.00  0.00     0.066 A 
HETATM   15  C   UNL     1       4.702  27.823  55.658  1.00  0.00     0.073 C 
ENDBRANCH   1   5
BRANCH   2  16
HETATM   16  C   UNL     1       4.451  28.539  50.379  1.00  0.00     0.079 C 
HETATM   17  C   UNL     1       3.382  29.563  50.800  1.00  0.00     0.046 C 
HETATM   18  C   UNL     1       5.719  29.247  49.870  1.00  0.00     0.046 C 
BRANCH  16  19
HETATM   19  C   UNL     1       3.891  27.624  49.286  1.00  0.00     0.128 A 
HETATM   20  S   UNL     1       2.579  28.078  48.262  1.00  0.00    -0.031 SA
HETATM   21  C   UNL     1       2.729  26.549  47.497  1.00  0.00     0.187 A 
HETATM   22  N   UNL     1       1.916  26.182  46.491  1.00  0.00    -0.377 N 
HETATM   23  N   UNL     1       3.685  25.800  47.996  1.00  0.00    -0.124 NA
HETATM   24  H   UNL     1       1.023  26.651  46.395  1.00  0.00     0.158 HD
HETATM   25  H   UNL     1       1.894  25.191  46.274  1.00  0.00     0.158 HD
HETATM   26  N   UNL     1       4.360  26.416  49.028  1.00  0.00    -0.142 NA
ENDBRANCH  16  19
ENDBRANCH   2  16
TORSDOF 3
ENDMDL
MODEL 9
REMARK VINA RESULT:      -7.7      4.701      8.655
REMARK  3 active torsions:
REMARK  status: ('A' for Active; 'I' for Inactive)
REMARK    1  A    between atoms: C_6  and  C_7 
REMARK       I    between atoms: C_7  and  N_8 
REMARK    2  A    between atoms: N_8  and  C_9 
REMARK    3  A    between atoms: C_9  and  C_10 
ROOT
HETATM    1  C   UNL     1       7.776  30.358  58.423  1.00  0.00     0.271 C 
HETATM    2  N   UNL     1       7.014  29.658  57.521  1.00  0.00    -0.341 N 
HETATM    3  O   UNL     1       8.972  30.128  58.572  1.00  0.00    -0.266 OA
HETATM    4  H   UNL     1       6.008  29.777  57.546  1.00  0.00     0.164 HD
ENDROOT
BRANCH   1   5
HETATM    5  C   UNL     1       7.064  31.356  59.188  1.00  0.00     0.133 A 
HETATM    6  N   UNL     1       7.347  31.682  60.509  1.00  0.00    -0.300 N 
HETATM    7  C   UNL     1       6.466  32.696  60.875  1.00  0.00     0.135 A 
HETATM    8  C   UNL     1       8.287  31.154  61.400  1.00  0.00     0.100 A 
HETATM    9  C   UNL     1       6.557  33.208  62.200  1.00  0.00     0.057 A 
HETATM   10  N   UNL     1       5.669  33.025  59.887  1.00  0.00    -0.233 NA
HETATM   11  C   UNL     1       7.468  32.712  63.064  1.00  0.00    -0.057 A 
HETATM   12  C   UNL     1       7.617  33.219  64.467  1.00  0.00     0.048 C 
HETATM   13  C   UNL     1       8.367  31.638  62.650  1.00  0.00     0.024 A 
HETATM   14  C   UNL     1       6.034  32.224  58.831  1.00  0.00     0.066 A 
HETATM   15  C   UNL     1       5.346  32.416  57.530  1.00  0.00     0.073 C 
ENDBRANCH   1   5
BRANCH   2  16
HETATM   16  C   UNL     1       7.501  28.592  56.624  1.00  0.00     0.079 C 
HETATM   17  C   UNL     1       8.673  29.106  55.767  1.00  0.00     0.046 C 
HETATM   18  C   UNL     1       7.919  27.357  57.441  1.00  0.00     0.046 C 
BRANCH  16  19
HETATM   19  C   UNL     1       6.314  28.242  55.722  1.00  0.00     0.128 A 
HETATM   20  S   UNL     1       6.408  27.072  54.458  1.00  0.00    -0.031 SA
HETATM   21  C   UNL     1       4.758  27.398  54.118  1.00  0.00     0.187 A 
HETATM   22  N   UNL     1       4.106  26.770  53.123  1.00  0.00    -0.377 N 
HETATM   23  N   UNL     1       4.226  28.308  54.901  1.00  0.00    -0.124 NA
HETATM   24  H   UNL     1       4.649  26.353  52.377  1.00  0.00     0.158 HD
HETATM   25  H   UNL     1       3.235  27.195  52.821  1.00  0.00     0.158 HD
HETATM   26  N   UNL     1       5.120  28.798  55.830  1.00  0.00    -0.142 NA
ENDBRANCH  16  19
ENDBRANCH   2  16
TORSDOF 3
ENDMDL
MODEL 10
REMARK VINA RESULT:      -7.4      3.506      5.065
REMARK  3 active torsions:
REMARK  status: ('A' for Active; 'I' for Inactive)
REMARK    1  A    between atoms: C_6  and  C_7 
REMARK       I    between atoms: C_7  and  N_8 
REMARK    2  A    between atoms: N_8  and  C_9 
REMARK    3  A    between atoms: C_9  and  C_10 
ROOT
HETATM    1  C   UNL     1       5.325  27.578  54.951  1.00  0.00     0.271 C 
HETATM    2  N   UNL     1       5.460  27.982  53.646  1.00  0.00    -0.341 N 
HETATM    3  O   UNL     1       4.402  27.975  55.655  1.00  0.00    -0.266 OA
HETATM    4  H   UNL     1       6.318  27.752  53.157  1.00  0.00     0.164 HD
ENDROOT
BRANCH   1   5
HETATM    5  C   UNL     1       6.353  26.682  55.429  1.00  0.00     0.133 A 
HETATM    6  N   UNL     1       6.712  25.494  54.805  1.00  0.00    -0.300 N 
HETATM    7  C   UNL     1       7.747  24.939  55.551  1.00  0.00     0.135 A 
HETATM    8  C   UNL     1       6.197  24.869  53.665  1.00  0.00     0.100 A 
HETATM    9  C   UNL     1       8.295  23.702  55.109  1.00  0.00     0.057 A 
HETATM   10  N   UNL     1       8.059  25.690  56.580  1.00  0.00    -0.233 NA
HETATM   11  C   UNL     1       7.812  23.095  54.004  1.00  0.00    -0.057 A 
HETATM   12  C   UNL     1       8.356  21.799  53.485  1.00  0.00     0.048 C 
HETATM   13  C   UNL     1       6.715  23.700  53.253  1.00  0.00     0.024 A 
HETATM   14  C   UNL     1       7.224  26.780  56.513  1.00  0.00     0.066 A 
HETATM   15  C   UNL     1       7.388  27.858  57.520  1.00  0.00     0.073 C 
ENDBRANCH   1   5
BRANCH   2  16
HETATM   16  C   UNL     1       4.548  28.890  52.924  1.00  0.00     0.079 C 
HETATM   17  C   UNL     1       3.117  28.320  52.920  1.00  0.00     0.046 C 
HETATM   18  C   UNL     1       4.578  30.291  53.559  1.00  0.00     0.046 C 
BRANCH  16  19
HETATM   19  C   UNL     1       5.083  28.956  51.491  1.00  0.00     0.128 A 
HETATM   20  S   UNL     1       4.898  27.669  50.358  1.00  0.00    -0.031 SA
HETATM   21  C   UNL     1       5.736  28.637  49.215  1.00  0.00     0.187 A 
HETATM   22  N   UNL     1       5.987  28.198  47.969  1.00  0.00    -0.377 N 
HETATM   23  N   UNL     1       6.105  29.808  49.683  1.00  0.00    -0.124 NA
HETATM   24  H   UNL     1       5.976  27.200  47.796  1.00  0.00     0.158 HD
HETATM   25  H   UNL     1       6.697  28.706  47.451  1.00  0.00     0.158 HD
HETATM   26  N   UNL     1       5.729  29.997  50.996  1.00  0.00    -0.142 NA
ENDBRANCH  16  19
ENDBRANCH   2  16
TORSDOF 3
ENDMDL
