MODEL 1
REMARK VINA RESULT:      -8.7      0.000      0.000
REMARK  4 active torsions:
REMARK  status: ('A' for Active; 'I' for Inactive)
REMARK    1  A    between atoms: O_2  and  C_3 
REMARK    2  A    between atoms: C_4  and  O_5 
REMARK    3  A    between atoms: C_9  and  C_10 
REMARK    4  A    between atoms: C_10  and  N_11 
ROOT
HETATM    1  N   UNL     1       6.962  26.868  56.982  1.00  0.00    -0.066 N 
HETATM    2  H   UNL     1       7.554  27.268  57.726  1.00  0.00     0.280 HD
HETATM    3  C   UNL     1       7.683  27.154  55.676  1.00  0.00     0.246 C 
HETATM    4  C   UNL     1       7.727  28.668  55.386  1.00  0.00     0.062 C 
HETATM    5  C   UNL     1       6.304  29.208  55.304  1.00  0.00     0.020 C 
HETATM    6  C   UNL     1       5.657  29.023  56.670  1.00  0.00     0.031 C 
HETATM    7  C   UNL     1       6.403  29.867  57.701  1.00  0.00     0.138 C 
HETATM    8  N   UNL     1       7.862  29.825  57.615  1.00  0.00    -0.317 N 
HETATM    9  C   UNL     1       8.521  29.398  56.457  1.00  0.00     0.020 A 
HETATM   10  C   UNL     1       9.839  29.621  56.318  1.00  0.00     0.026 A 
HETATM   11  C   UNL     1       8.536  30.489  58.656  1.00  0.00     0.247 A 
HETATM   12  O   UNL     1       7.987  30.878  59.681  1.00  0.00    -0.268 OA
HETATM   13  C   UNL     1       9.989  30.707  58.468  1.00  0.00     0.074 A 
HETATM   14  C   UNL     1      10.588  30.296  57.346  1.00  0.00     0.007 A 
HETATM   15  C   UNL     1       5.608  27.545  57.062  1.00  0.00     0.241 C 
ENDROOT
BRANCH   1  16
HETATM   16  C   UNL     1       6.808  25.392  57.300  1.00  0.00     0.273 C 
BRANCH  16  17
HETATM   17  C   UNL     1       6.976  24.432  56.154  1.00  0.00    -0.028 A 
HETATM   18  C   UNL     1       7.750  23.270  56.321  1.00  0.00     0.031 A 
HETATM   19  C   UNL     1       7.998  22.413  55.245  1.00  0.00     0.047 A 
HETATM   20  C   UNL     1       7.484  22.710  53.985  1.00  0.00     0.116 A 
HETATM   21 BR   UNL     1       9.087  20.891  55.545  1.00  0.00    -0.048 Br
HETATM   22  C   UNL     1       6.663  23.828  53.820  1.00  0.00     0.103 A 
HETATM   23  C   UNL     1       6.420  24.694  54.893  1.00  0.00     0.048 A 
BRANCH  20  24
HETATM   24  O   UNL     1       7.828  21.937  52.913  1.00  0.00    -0.357 OA
HETATM   25  H   UNL     1       7.683  21.007  53.165  1.00  0.00     0.218 HD
ENDBRANCH  20  24
BRANCH  22  26
HETATM   26  O   UNL     1       6.140  24.188  52.606  1.00  0.00    -0.353 OA
HETATM   27  C   UNL     1       4.904  24.899  52.726  1.00  0.00     0.210 C 
ENDBRANCH  22  26
ENDBRANCH  16  17
ENDBRANCH   1  16
TORSDOF 4
ENDMDL
MODEL 2
REMARK VINA RESULT:      -8.7      2.201      3.229
REMARK  4 active torsions:
REMARK  status: ('A' for Active; 'I' for Inactive)
REMARK    1  A    between atoms: O_2  and  C_3 
REMARK    2  A    between atoms: C_4  and  O_5 
REMARK    3  A    between atoms: C_9  and  C_10 
REMARK    4  A    between atoms: C_10  and  N_11 
ROOT
HETATM    1  N   UNL     1       5.900  26.101  53.867  1.00  0.00    -0.066 N 
HETATM    2  H   UNL     1       5.928  26.238  54.890  1.00  0.00     0.280 HD
HETATM    3  C   UNL     1       7.209  26.660  53.337  1.00  0.00     0.246 C 
HETATM    4  C   UNL     1       7.284  28.188  53.538  1.00  0.00     0.062 C 
HETATM    5  C   UNL     1       6.120  28.849  52.808  1.00  0.00     0.020 C 
HETATM    6  C   UNL     1       4.829  28.365  53.454  1.00  0.00     0.031 C 
HETATM    7  C   UNL     1       4.782  28.839  54.905  1.00  0.00     0.138 C 
HETATM    8  N   UNL     1       6.028  28.696  55.657  1.00  0.00    -0.317 N 
HETATM    9  C   UNL     1       7.262  28.537  55.017  1.00  0.00     0.020 A 
HETATM   10  C   UNL     1       8.401  28.675  55.718  1.00  0.00     0.026 A 
HETATM   11  C   UNL     1       5.932  29.001  57.027  1.00  0.00     0.247 A 
HETATM   12  O   UNL     1       4.866  29.150  57.616  1.00  0.00    -0.268 OA
HETATM   13  C   UNL     1       7.209  29.136  57.765  1.00  0.00     0.074 A 
HETATM   14  C   UNL     1       8.371  28.987  57.123  1.00  0.00     0.007 A 
HETATM   15  C   UNL     1       4.690  26.846  53.340  1.00  0.00     0.241 C 
ENDROOT
BRANCH   1  16
HETATM   16  C   UNL     1       5.717  24.613  53.635  1.00  0.00     0.273 C 
BRANCH  16  17
HETATM   17  C   UNL     1       6.777  23.705  54.196  1.00  0.00    -0.028 A 
HETATM   18  C   UNL     1       7.259  22.631  53.426  1.00  0.00     0.031 A 
HETATM   19  C   UNL     1       8.174  21.720  53.961  1.00  0.00     0.047 A 
HETATM   20  C   UNL     1       8.613  21.863  55.276  1.00  0.00     0.116 A 
HETATM   21 BR   UNL     1       8.740  20.276  52.872  1.00  0.00    -0.048 Br
HETATM   22  C   UNL     1       8.189  22.960  56.029  1.00  0.00     0.103 A 
HETATM   23  C   UNL     1       7.265  23.870  55.500  1.00  0.00     0.048 A 
BRANCH  20  24
HETATM   24  O   UNL     1       9.410  20.904  55.833  1.00  0.00    -0.357 OA
HETATM   25  H   UNL     1       8.870  20.100  55.938  1.00  0.00     0.218 HD
ENDBRANCH  20  24
BRANCH  22  26
HETATM   26  O   UNL     1       8.567  23.151  57.332  1.00  0.00    -0.353 OA
HETATM   27  C   UNL     1       8.785  24.530  57.647  1.00  0.00     0.210 C 
ENDBRANCH  22  26
ENDBRANCH  16  17
ENDBRANCH   1  16
TORSDOF 4
ENDMDL
MODEL 3
REMARK VINA RESULT:      -8.6      2.728      7.259
REMARK  4 active torsions:
REMARK  status: ('A' for Active; 'I' for Inactive)
REMARK    1  A    between atoms: O_2  and  C_3 
REMARK    2  A    between atoms: C_4  and  O_5 
REMARK    3  A    between atoms: C_9  and  C_10 
REMARK    4  A    between atoms: C_10  and  N_11 
ROOT
HETATM    1  N   UNL     1       7.566  27.163  56.000  1.00  0.00    -0.066 N 
HETATM    2  H   UNL     1       8.129  26.564  55.375  1.00  0.00     0.280 HD
HETATM    3  C   UNL     1       7.493  26.429  57.327  1.00  0.00     0.246 C 
HETATM    4  C   UNL     1       6.690  25.119  57.195  1.00  0.00     0.062 C 
HETATM    5  C   UNL     1       5.278  25.439  56.718  1.00  0.00     0.020 C 
HETATM    6  C   UNL     1       5.385  26.053  55.328  1.00  0.00     0.031 C 
HETATM    7  C   UNL     1       5.966  25.021  54.364  1.00  0.00     0.138 C 
HETATM    8  N   UNL     1       7.103  24.254  54.870  1.00  0.00    -0.317 N 
HETATM    9  C   UNL     1       7.379  24.160  56.238  1.00  0.00     0.020 A 
HETATM   10  C   UNL     1       8.258  23.244  56.681  1.00  0.00     0.026 A 
HETATM   11  C   UNL     1       7.717  23.413  53.925  1.00  0.00     0.247 A 
HETATM   12  O   UNL     1       7.494  23.468  52.720  1.00  0.00    -0.268 OA
HETATM   13  C   UNL     1       8.685  22.423  54.452  1.00  0.00     0.074 A 
HETATM   14  C   UNL     1       8.921  22.352  55.766  1.00  0.00     0.007 A 
HETATM   15  C   UNL     1       6.206  27.343  55.356  1.00  0.00     0.241 C 
ENDROOT
BRANCH   1  16
HETATM   16  C   UNL     1       8.275  28.503  56.065  1.00  0.00     0.273 C 
BRANCH  16  17
HETATM   17  C   UNL     1       7.793  29.473  57.109  1.00  0.00    -0.028 A 
HETATM   18  C   UNL     1       8.551  29.678  58.276  1.00  0.00     0.031 A 
HETATM   19  C   UNL     1       8.078  30.502  59.302  1.00  0.00     0.047 A 
HETATM   20  C   UNL     1       6.836  31.123  59.180  1.00  0.00     0.116 A 
HETATM   21 BR   UNL     1       9.139  30.691  60.860  1.00  0.00    -0.048 Br
HETATM   22  C   UNL     1       6.104  30.976  58.000  1.00  0.00     0.103 A 
HETATM   23  C   UNL     1       6.570  30.144  56.975  1.00  0.00     0.048 A 
BRANCH  20  24
HETATM   24  O   UNL     1       6.324  31.827  60.233  1.00  0.00    -0.357 OA
HETATM   25  H   UNL     1       6.703  32.724  60.195  1.00  0.00     0.218 HD
ENDBRANCH  20  24
BRANCH  22  26
HETATM   26  O   UNL     1       4.870  31.544  57.822  1.00  0.00    -0.353 OA
HETATM   27  C   UNL     1       3.842  30.572  57.600  1.00  0.00     0.210 C 
ENDBRANCH  22  26
ENDBRANCH  16  17
ENDBRANCH   1  16
TORSDOF 4
ENDMDL
MODEL 4
REMARK VINA RESULT:      -8.5      4.417      6.200
REMARK  4 active torsions:
REMARK  status: ('A' for Active; 'I' for Inactive)
REMARK    1  A    between atoms: O_2  and  C_3 
REMARK    2  A    between atoms: C_4  and  O_5 
REMARK    3  A    between atoms: C_9  and  C_10 
REMARK    4  A    between atoms: C_10  and  N_11 
ROOT
HETATM    1  N   UNL     1       6.901  26.054  51.969  1.00  0.00    -0.066 N 
HETATM    2  H   UNL     1       7.104  26.608  51.122  1.00  0.00     0.280 HD
HETATM    3  C   UNL     1       5.567  25.375  51.713  1.00  0.00     0.246 C 
HETATM    4  C   UNL     1       4.425  26.408  51.625  1.00  0.00     0.062 C 
HETATM    5  C   UNL     1       4.352  27.189  52.932  1.00  0.00     0.020 C 
HETATM    6  C   UNL     1       5.655  27.960  53.089  1.00  0.00     0.031 C 
HETATM    7  C   UNL     1       5.778  28.980  51.958  1.00  0.00     0.138 C 
HETATM    8  N   UNL     1       5.417  28.493  50.627  1.00  0.00    -0.317 N 
HETATM    9  C   UNL     1       4.638  27.346  50.448  1.00  0.00     0.020 A 
HETATM   10  C   UNL     1       4.107  27.080  49.241  1.00  0.00     0.026 A 
HETATM   11  C   UNL     1       5.671  29.394  49.578  1.00  0.00     0.247 A 
HETATM   12  O   UNL     1       6.347  30.410  49.704  1.00  0.00    -0.268 OA
HETATM   13  C   UNL     1       5.077  29.062  48.262  1.00  0.00     0.074 A 
HETATM   14  C   UNL     1       4.329  27.963  48.126  1.00  0.00     0.007 A 
HETATM   15  C   UNL     1       6.854  27.012  53.142  1.00  0.00     0.241 C 
ENDROOT
BRANCH   1  16
HETATM   16  C   UNL     1       8.065  25.096  52.146  1.00  0.00     0.273 C 
BRANCH  16  17
HETATM   17  C   UNL     1       7.992  24.152  53.315  1.00  0.00    -0.028 A 
HETATM   18  C   UNL     1       8.201  24.635  54.619  1.00  0.00     0.031 A 
HETATM   19  C   UNL     1       8.231  23.762  55.710  1.00  0.00     0.047 A 
HETATM   20  C   UNL     1       8.064  22.393  55.512  1.00  0.00     0.116 A 
HETATM   21 BR   UNL     1       8.561  24.488  57.429  1.00  0.00    -0.048 Br
HETATM   22  C   UNL     1       7.796  21.909  54.229  1.00  0.00     0.103 A 
HETATM   23  C   UNL     1       7.774  22.779  53.133  1.00  0.00     0.048 A 
BRANCH  20  24
HETATM   24  O   UNL     1       8.217  21.532  56.561  1.00  0.00    -0.357 OA
HETATM   25  H   UNL     1       9.009  20.994  56.385  1.00  0.00     0.218 HD
ENDBRANCH  20  24
BRANCH  22  26
HETATM   26  O   UNL     1       7.640  20.574  53.962  1.00  0.00    -0.353 OA
HETATM   27  C   UNL     1       8.703  20.044  53.164  1.00  0.00     0.210 C 
ENDBRANCH  22  26
ENDBRANCH  16  17
ENDBRANCH   1  16
TORSDOF 4
ENDMDL
MODEL 5
REMARK VINA RESULT:      -8.3      4.017      6.324
REMARK  4 active torsions:
REMARK  status: ('A' for Active; 'I' for Inactive)
REMARK    1  A    between atoms: O_2  and  C_3 
REMARK    2  A    between atoms: C_4  and  O_5 
REMARK    3  A    between atoms: C_9  and  C_10 
REMARK    4  A    between atoms: C_10  and  N_11 
ROOT
HETATM    1  N   UNL     1       7.013  26.306  52.139  1.00  0.00    -0.066 N 
HETATM    2  H   UNL     1       7.188  26.748  51.223  1.00  0.00     0.280 HD
HETATM    3  C   UNL     1       5.831  25.374  51.934  1.00  0.00     0.246 C 
HETATM    4  C   UNL     1       4.546  26.167  51.618  1.00  0.00     0.062 C 
HETATM    5  C   UNL     1       4.245  27.119  52.770  1.00  0.00     0.020 C 
HETATM    6  C   UNL     1       5.389  28.119  52.860  1.00  0.00     0.031 C 
HETATM    7  C   UNL     1       5.431  28.954  51.582  1.00  0.00     0.138 C 
HETATM    8  N   UNL     1       5.260  28.210  50.335  1.00  0.00    -0.317 N 
HETATM    9  C   UNL     1       4.694  26.931  50.312  1.00  0.00     0.020 A 
HETATM   10  C   UNL     1       4.310  26.392  49.142  1.00  0.00     0.026 A 
HETATM   11  C   UNL     1       5.444  28.966  49.164  1.00  0.00     0.247 A 
HETATM   12  O   UNL     1       5.934  30.091  49.152  1.00  0.00    -0.268 OA
HETATM   13  C   UNL     1       5.016  28.334  47.895  1.00  0.00     0.074 A 
HETATM   14  C   UNL     1       4.471  27.114  47.907  1.00  0.00     0.007 A 
HETATM   15  C   UNL     1       6.719  27.414  53.132  1.00  0.00     0.241 C 
ENDROOT
BRANCH   1  16
HETATM   16  C   UNL     1       8.300  25.605  52.533  1.00  0.00     0.273 C 
BRANCH  16  17
HETATM   17  C   UNL     1       8.175  24.441  53.478  1.00  0.00    -0.028 A 
HETATM   18  C   UNL     1       8.243  23.127  52.982  1.00  0.00     0.031 A 
HETATM   19  C   UNL     1       8.035  22.031  53.826  1.00  0.00     0.047 A 
HETATM   20  C   UNL     1       7.747  22.236  55.174  1.00  0.00     0.116 A 
HETATM   21 BR   UNL     1       8.101  20.295  53.072  1.00  0.00    -0.048 Br
HETATM   22  C   UNL     1       7.738  23.534  55.689  1.00  0.00     0.103 A 
HETATM   23  C   UNL     1       7.935  24.633  54.846  1.00  0.00     0.048 A 
BRANCH  20  24
HETATM   24  O   UNL     1       7.425  21.171  55.967  1.00  0.00    -0.357 OA
HETATM   25  H   UNL     1       7.508  20.367  55.423  1.00  0.00     0.218 HD
ENDBRANCH  20  24
BRANCH  22  26
HETATM   26  O   UNL     1       7.444  23.805  57.000  1.00  0.00    -0.353 OA
HETATM   27  C   UNL     1       8.231  24.876  57.531  1.00  0.00     0.210 C 
ENDBRANCH  22  26
ENDBRANCH  16  17
ENDBRANCH   1  16
TORSDOF 4
ENDMDL
MODEL 6
REMARK VINA RESULT:      -8.2      2.891      7.629
REMARK  4 active torsions:
REMARK  status: ('A' for Active; 'I' for Inactive)
REMARK    1  A    between atoms: O_2  and  C_3 
REMARK    2  A    between atoms: C_4  and  O_5 
REMARK    3  A    between atoms: C_9  and  C_10 
REMARK    4  A    between atoms: C_10  and  N_11 
ROOT
HETATM    1  N   UNL     1       7.745  26.995  56.507  1.00  0.00    -0.066 N 
HETATM    2  H   UNL     1       8.063  26.720  55.564  1.00  0.00     0.280 HD
HETATM    3  C   UNL     1       7.924  25.767  57.382  1.00  0.00     0.246 C 
HETATM    4  C   UNL     1       6.972  24.633  56.950  1.00  0.00     0.062 C 
HETATM    5  C   UNL     1       5.531  25.119  57.053  1.00  0.00     0.020 C 
HETATM    6  C   UNL     1       5.354  26.265  56.066  1.00  0.00     0.031 C 
HETATM    7  C   UNL     1       5.556  25.744  54.645  1.00  0.00     0.138 C 
HETATM    8  N   UNL     1       6.690  24.839  54.459  1.00  0.00    -0.317 N 
HETATM    9  C   UNL     1       7.287  24.175  55.535  1.00  0.00     0.020 A 
HETATM   10  C   UNL     1       8.140  23.161  55.305  1.00  0.00     0.026 A 
HETATM   11  C   UNL     1       6.950  24.482  53.124  1.00  0.00     0.247 A 
HETATM   12  O   UNL     1       6.441  25.042  52.159  1.00  0.00    -0.268 OA
HETATM   13  C   UNL     1       7.902  23.366  52.912  1.00  0.00     0.074 A 
HETATM   14  C   UNL     1       8.449  22.746  53.962  1.00  0.00     0.007 A 
HETATM   15  C   UNL     1       6.296  27.426  56.393  1.00  0.00     0.241 C 
ENDROOT
BRANCH   1  16
HETATM   16  C   UNL     1       8.593  28.184  56.918  1.00  0.00     0.273 C 
BRANCH  16  17
HETATM   17  C   UNL     1       7.875  29.336  57.566  1.00  0.00    -0.028 A 
HETATM   18  C   UNL     1       6.855  30.007  56.867  1.00  0.00     0.031 A 
HETATM   19  C   UNL     1       6.239  31.138  57.411  1.00  0.00     0.047 A 
HETATM   20  C   UNL     1       6.640  31.620  58.655  1.00  0.00     0.116 A 
HETATM   21 BR   UNL     1       4.904  32.009  56.387  1.00  0.00    -0.048 Br
HETATM   22  C   UNL     1       7.608  30.926  59.385  1.00  0.00     0.103 A 
HETATM   23  C   UNL     1       8.234  29.799  58.840  1.00  0.00     0.048 A 
BRANCH  20  24
HETATM   24  O   UNL     1       6.122  32.792  59.127  1.00  0.00    -0.357 OA
HETATM   25  H   UNL     1       6.840  33.451  59.122  1.00  0.00     0.218 HD
ENDBRANCH  20  24
BRANCH  22  26
HETATM   26  O   UNL     1       8.061  31.355  60.604  1.00  0.00    -0.353 OA
HETATM   27  C   UNL     1       9.155  30.572  61.093  1.00  0.00     0.210 C 
ENDBRANCH  22  26
ENDBRANCH  16  17
ENDBRANCH   1  16
TORSDOF 4
ENDMDL
MODEL 7
REMARK VINA RESULT:      -7.8      4.676      7.816
REMARK  4 active torsions:
REMARK  status: ('A' for Active; 'I' for Inactive)
REMARK    1  A    between atoms: O_2  and  C_3 
REMARK    2  A    between atoms: C_4  and  O_5 
REMARK    3  A    between atoms: C_9  and  C_10 
REMARK    4  A    between atoms: C_10  and  N_11 
ROOT
HETATM    1  N   UNL     1       3.901  28.065  51.962  1.00  0.00    -0.066 N 
HETATM    2  H   UNL     1       3.785  27.256  51.332  1.00  0.00     0.280 HD
HETATM    3  C   UNL     1       2.764  29.016  51.635  1.00  0.00     0.246 C 
HETATM    4  C   UNL     1       2.913  29.591  50.211  1.00  0.00     0.062 C 
HETATM    5  C   UNL     1       4.239  30.334  50.104  1.00  0.00     0.020 C 
HETATM    6  C   UNL     1       5.359  29.323  50.308  1.00  0.00     0.031 C 
HETATM    7  C   UNL     1       5.323  28.295  49.178  1.00  0.00     0.138 C 
HETATM    8  N   UNL     1       3.996  27.796  48.821  1.00  0.00    -0.317 N 
HETATM    9  C   UNL     1       2.830  28.483  49.173  1.00  0.00     0.020 A 
HETATM   10  C   UNL     1       1.658  28.145  48.607  1.00  0.00     0.026 A 
HETATM   11  C   UNL     1       3.990  26.749  47.882  1.00  0.00     0.247 A 
HETATM   12  O   UNL     1       4.996  26.129  47.550  1.00  0.00    -0.268 OA
HETATM   13  C   UNL     1       2.679  26.400  47.288  1.00  0.00     0.074 A 
HETATM   14  C   UNL     1       1.584  27.082  47.639  1.00  0.00     0.007 A 
HETATM   15  C   UNL     1       5.265  28.667  51.687  1.00  0.00     0.241 C 
ENDROOT
BRANCH   1  16
HETATM   16  C   UNL     1       3.869  27.517  53.377  1.00  0.00     0.273 C 
BRANCH  16  17
HETATM   17  C   UNL     1       5.125  26.858  53.876  1.00  0.00    -0.028 A 
HETATM   18  C   UNL     1       5.606  25.697  53.243  1.00  0.00     0.031 A 
HETATM   19  C   UNL     1       6.717  25.015  53.747  1.00  0.00     0.047 A 
HETATM   20  C   UNL     1       7.357  25.476  54.896  1.00  0.00     0.116 A 
HETATM   21 BR   UNL     1       7.275  23.436  52.861  1.00  0.00    -0.048 Br
HETATM   22  C   UNL     1       6.926  26.661  55.497  1.00  0.00     0.103 A 
HETATM   23  C   UNL     1       5.808  27.342  55.001  1.00  0.00     0.048 A 
BRANCH  20  24
HETATM   24  O   UNL     1       8.363  24.740  55.453  1.00  0.00    -0.357 OA
HETATM   25  H   UNL     1       8.913  25.349  55.978  1.00  0.00     0.218 HD
ENDBRANCH  20  24
BRANCH  22  26
HETATM   26  O   UNL     1       7.497  27.160  56.638  1.00  0.00    -0.353 OA
HETATM   27  C   UNL     1       6.704  28.181  57.251  1.00  0.00     0.210 C 
ENDBRANCH  22  26
ENDBRANCH  16  17
ENDBRANCH   1  16
TORSDOF 4
ENDMDL
MODEL 8
REMARK VINA RESULT:      -7.8      3.469      5.284
REMARK  4 active torsions:
REMARK  status: ('A' for Active; 'I' for Inactive)
REMARK    1  A    between atoms: O_2  and  C_3 
REMARK    2  A    between atoms: C_4  and  O_5 
REMARK    3  A    between atoms: C_9  and  C_10 
REMARK    4  A    between atoms: C_10  and  N_11 
ROOT
HETATM    1  N   UNL     1       6.800  25.900  54.290  1.00  0.00    -0.066 N 
HETATM    2  H   UNL     1       7.149  26.853  54.474  1.00  0.00     0.280 HD
HETATM    3  C   UNL     1       5.391  25.854  54.854  1.00  0.00     0.246 C 
HETATM    4  C   UNL     1       5.403  25.990  56.390  1.00  0.00     0.062 C 
HETATM    5  C   UNL     1       6.223  24.853  56.990  1.00  0.00     0.020 C 
HETATM    6  C   UNL     1       7.658  25.008  56.506  1.00  0.00     0.031 C 
HETATM    7  C   UNL     1       8.234  26.316  57.046  1.00  0.00     0.138 C 
HETATM    8  N   UNL     1       7.348  27.476  56.967  1.00  0.00    -0.317 N 
HETATM    9  C   UNL     1       5.965  27.339  56.807  1.00  0.00     0.020 A 
HETATM   10  C   UNL     1       5.161  28.398  57.004  1.00  0.00     0.026 A 
HETATM   11  C   UNL     1       7.939  28.699  57.332  1.00  0.00     0.247 A 
HETATM   12  O   UNL     1       9.147  28.851  57.483  1.00  0.00    -0.268 OA
HETATM   13  C   UNL     1       7.021  29.844  57.531  1.00  0.00     0.074 A 
HETATM   14  C   UNL     1       5.703  29.678  57.380  1.00  0.00     0.007 A 
HETATM   15  C   UNL     1       7.738  24.929  54.980  1.00  0.00     0.241 C 
ENDROOT
BRANCH   1  16
HETATM   16  C   UNL     1       6.879  25.694  52.788  1.00  0.00     0.273 C 
BRANCH  16  17
HETATM   17  C   UNL     1       6.001  26.572  51.938  1.00  0.00    -0.028 A 
HETATM   18  C   UNL     1       5.330  26.027  50.829  1.00  0.00     0.031 A 
HETATM   19  C   UNL     1       4.585  26.841  49.971  1.00  0.00     0.047 A 
HETATM   20  C   UNL     1       4.509  28.213  50.204  1.00  0.00     0.116 A 
HETATM   21 BR   UNL     1       3.748  26.036  48.474  1.00  0.00    -0.048 Br
HETATM   22  C   UNL     1       5.120  28.755  51.337  1.00  0.00     0.103 A 
HETATM   23  C   UNL     1       5.874  27.945  52.193  1.00  0.00     0.048 A 
BRANCH  20  24
HETATM   24  O   UNL     1       3.884  29.021  49.297  1.00  0.00    -0.357 OA
HETATM   25  H   UNL     1       3.771  28.506  48.478  1.00  0.00     0.218 HD
ENDBRANCH  20  24
BRANCH  22  26
HETATM   26  O   UNL     1       5.099  30.097  51.615  1.00  0.00    -0.353 OA
HETATM   27  C   UNL     1       4.028  30.461  52.492  1.00  0.00     0.210 C 
ENDBRANCH  22  26
ENDBRANCH  16  17
ENDBRANCH   1  16
TORSDOF 4
ENDMDL
MODEL 9
REMARK VINA RESULT:      -7.7      2.305      3.473
REMARK  4 active torsions:
REMARK  status: ('A' for Active; 'I' for Inactive)
REMARK    1  A    between atoms: O_2  and  C_3 
REMARK    2  A    between atoms: C_4  and  O_5 
REMARK    3  A    between atoms: C_9  and  C_10 
REMARK    4  A    between atoms: C_10  and  N_11 
ROOT
HETATM    1  N   UNL     1       6.152  25.818  53.398  1.00  0.00    -0.066 N 
HETATM    2  H   UNL     1       6.276  25.853  54.422  1.00  0.00     0.280 HD
HETATM    3  C   UNL     1       7.236  26.709  52.817  1.00  0.00     0.246 C 
HETATM    4  C   UNL     1       7.008  28.185  53.201  1.00  0.00     0.062 C 
HETATM    5  C   UNL     1       5.649  28.638  52.678  1.00  0.00     0.020 C 
HETATM    6  C   UNL     1       4.581  27.812  53.382  1.00  0.00     0.031 C 
HETATM    7  C   UNL     1       4.614  28.114  54.879  1.00  0.00     0.138 C 
HETATM    8  N   UNL     1       5.946  28.180  55.480  1.00  0.00    -0.317 N 
HETATM    9  C   UNL     1       7.096  28.368  54.707  1.00  0.00     0.020 A 
HETATM   10  C   UNL     1       8.258  28.688  55.304  1.00  0.00     0.026 A 
HETATM   11  C   UNL     1       5.957  28.314  56.880  1.00  0.00     0.247 A 
HETATM   12  O   UNL     1       4.966  28.158  57.586  1.00  0.00    -0.268 OA
HETATM   13  C   UNL     1       7.258  28.658  57.501  1.00  0.00     0.074 A 
HETATM   14  C   UNL     1       8.337  28.841  56.733  1.00  0.00     0.007 A 
HETATM   15  C   UNL     1       4.755  26.321  53.091  1.00  0.00     0.241 C 
ENDROOT
BRANCH   1  16
HETATM   16  C   UNL     1       6.262  24.358  52.999  1.00  0.00     0.273 C 
BRANCH  16  17
HETATM   17  C   UNL     1       6.979  23.447  53.958  1.00  0.00    -0.028 A 
HETATM   18  C   UNL     1       7.365  23.926  55.223  1.00  0.00     0.031 A 
HETATM   19  C   UNL     1       8.114  23.128  56.093  1.00  0.00     0.047 A 
HETATM   20  C   UNL     1       8.498  21.846  55.706  1.00  0.00     0.116 A 
HETATM   21 BR   UNL     1       8.630  23.863  57.761  1.00  0.00    -0.048 Br
HETATM   22  C   UNL     1       8.068  21.338  54.477  1.00  0.00     0.103 A 
HETATM   23  C   UNL     1       7.326  22.137  53.600  1.00  0.00     0.048 A 
BRANCH  20  24
HETATM   24  O   UNL     1       9.331  21.117  56.506  1.00  0.00    -0.357 OA
HETATM   25  H   UNL     1       8.774  20.534  57.053  1.00  0.00     0.218 HD
ENDBRANCH  20  24
BRANCH  22  26
HETATM   26  O   UNL     1       8.424  20.093  54.029  1.00  0.00    -0.353 OA
HETATM   27  C   UNL     1       8.685  20.068  52.622  1.00  0.00     0.210 C 
ENDBRANCH  22  26
ENDBRANCH  16  17
ENDBRANCH   1  16
TORSDOF 4
ENDMDL
MODEL 10
REMARK VINA RESULT:      -7.7      4.824      8.451
REMARK  4 active torsions:
REMARK  status: ('A' for Active; 'I' for Inactive)
REMARK    1  A    between atoms: O_2  and  C_3 
REMARK    2  A    between atoms: C_4  and  O_5 
REMARK    3  A    between atoms: C_9  and  C_10 
REMARK    4  A    between atoms: C_10  and  N_11 
ROOT
HETATM    1  N   UNL     1       4.332  27.755  51.982  1.00  0.00    -0.066 N 
HETATM    2  H   UNL     1       4.222  27.038  51.248  1.00  0.00     0.280 HD
HETATM    3  C   UNL     1       3.075  28.605  51.928  1.00  0.00     0.246 C 
HETATM    4  C   UNL     1       2.994  29.393  50.604  1.00  0.00     0.062 C 
HETATM    5  C   UNL     1       4.217  30.293  50.479  1.00  0.00     0.020 C 
HETATM    6  C   UNL     1       5.448  29.400  50.404  1.00  0.00     0.031 C 
HETATM    7  C   UNL     1       5.378  28.550  49.137  1.00  0.00     0.138 C 
HETATM    8  N   UNL     1       4.074  27.957  48.845  1.00  0.00    -0.317 N 
HETATM    9  C   UNL     1       2.896  28.446  49.420  1.00  0.00     0.020 A 
HETATM   10  C   UNL     1       1.704  28.059  48.933  1.00  0.00     0.026 A 
HETATM   11  C   UNL     1       4.060  27.064  47.759  1.00  0.00     0.247 A 
HETATM   12  O   UNL     1       5.074  26.620  47.231  1.00  0.00    -0.268 OA
HETATM   13  C   UNL     1       2.727  26.655  47.257  1.00  0.00     0.074 A 
HETATM   14  C   UNL     1       1.620  27.147  47.822  1.00  0.00     0.007 A 
HETATM   15  C   UNL     1       5.586  28.544  51.665  1.00  0.00     0.241 C 
ENDROOT
BRANCH   1  16
HETATM   16  C   UNL     1       4.524  27.007  53.289  1.00  0.00     0.273 C 
BRANCH  16  17
HETATM   17  C   UNL     1       4.894  27.831  54.492  1.00  0.00    -0.028 A 
HETATM   18  C   UNL     1       6.175  27.706  55.059  1.00  0.00     0.031 A 
HETATM   19  C   UNL     1       6.510  28.390  56.231  1.00  0.00     0.047 A 
HETATM   20  C   UNL     1       5.566  29.201  56.858  1.00  0.00     0.116 A 
HETATM   21 BR   UNL     1       8.242  28.133  56.955  1.00  0.00    -0.048 Br
HETATM   22  C   UNL     1       4.312  29.382  56.270  1.00  0.00     0.103 A 
HETATM   23  C   UNL     1       3.970  28.691  55.102  1.00  0.00     0.048 A 
BRANCH  20  24
HETATM   24  O   UNL     1       5.856  29.770  58.066  1.00  0.00    -0.357 OA
HETATM   25  H   UNL     1       6.439  29.154  58.545  1.00  0.00     0.218 HD
ENDBRANCH  20  24
BRANCH  22  26
HETATM   26  O   UNL     1       3.332  30.150  56.843  1.00  0.00    -0.353 OA
HETATM   27  C   UNL     1       2.965  31.270  56.031  1.00  0.00     0.210 C 
ENDBRANCH  22  26
ENDBRANCH  16  17
ENDBRANCH   1  16
TORSDOF 4
ENDMDL
