MODEL 1
REMARK VINA RESULT:      -8.3      0.000      0.000
REMARK  2 active torsions:
REMARK  status: ('A' for Active; 'I' for Inactive)
REMARK    1  A    between atoms: C_8  and  S_9 
REMARK    2  A    between atoms: S_9  and  C_10 
ROOT
HETATM    1  C   UNL     1       8.363  20.234  55.927  1.00  0.00     0.002 A 
HETATM    2  C   UNL     1       7.889  21.522  56.178  1.00  0.00     0.034 A 
HETATM    3  C   UNL     1       7.760  22.453  55.156  1.00  0.00     0.087 A 
HETATM    4  C   UNL     1       8.120  22.085  53.834  1.00  0.00     0.087 A 
HETATM    5  N   UNL     1       8.003  22.953  52.807  1.00  0.00    -0.231 NA
HETATM    6  C   UNL     1       7.572  24.201  53.094  1.00  0.00     0.167 A 
HETATM    7 CL   UNL     1       7.367  25.167  51.696  1.00  0.00    -0.059 Cl
HETATM    8  C   UNL     1       7.231  24.550  54.380  1.00  0.00     0.192 A 
HETATM    9  N   UNL     1       7.290  23.685  55.431  1.00  0.00    -0.232 NA
HETATM   10  C   UNL     1       8.588  20.798  53.598  1.00  0.00     0.034 A 
HETATM   11  C   UNL     1       8.713  19.871  54.633  1.00  0.00     0.002 A 
ENDROOT
BRANCH   8  12
HETATM   12  S   UNL     1       6.625  26.143  54.826  1.00  0.00     0.200 S 
HETATM   13  O   UNL     1       7.682  27.122  54.634  1.00  0.00    -0.221 OA
HETATM   14  O   UNL     1       5.342  26.372  54.196  1.00  0.00    -0.221 OA
BRANCH  12  15
HETATM   15  C   UNL     1       6.350  26.048  56.599  1.00  0.00     0.118 C 
HETATM   16  C   UNL     1       5.045  26.764  56.980  1.00  0.00     0.048 C 
HETATM   17  C   UNL     1       5.156  28.282  56.915  1.00  0.00     0.233 C 
HETATM   18  N   UNL     1       6.305  28.728  57.755  1.00  0.00    -0.075 N 
HETATM   19  H   UNL     1       6.097  28.567  58.750  1.00  0.00     0.277 HD
HETATM   20  H   UNL     1       6.388  29.752  57.660  1.00  0.00     0.277 HD
HETATM   21  C   UNL     1       7.624  28.128  57.404  1.00  0.00     0.233 C 
HETATM   22  C   UNL     1       7.521  26.606  57.422  1.00  0.00     0.048 C 
ENDBRANCH  12  15
ENDBRANCH   8  12
TORSDOF 2
ENDMDL
MODEL 2
REMARK VINA RESULT:      -7.9      2.560      3.609
REMARK  2 active torsions:
REMARK  status: ('A' for Active; 'I' for Inactive)
REMARK    1  A    between atoms: C_8  and  S_9 
REMARK    2  A    between atoms: S_9  and  C_10 
ROOT
HETATM    1  C   UNL     1       8.703  20.318  53.664  1.00  0.00     0.002 A 
HETATM    2  C   UNL     1       8.453  21.637  53.285  1.00  0.00     0.034 A 
HETATM    3  C   UNL     1       8.097  22.600  54.221  1.00  0.00     0.087 A 
HETATM    4  C   UNL     1       7.984  22.231  55.585  1.00  0.00     0.087 A 
HETATM    5  N   UNL     1       7.650  23.134  56.531  1.00  0.00    -0.231 NA
HETATM    6  C   UNL     1       7.384  24.394  56.122  1.00  0.00     0.167 A 
HETATM    7 CL   UNL     1       7.077  25.461  57.424  1.00  0.00    -0.059 Cl
HETATM    8  C   UNL     1       7.489  24.740  54.796  1.00  0.00     0.192 A 
HETATM    9  N   UNL     1       7.873  23.867  53.821  1.00  0.00    -0.232 NA
HETATM   10  C   UNL     1       8.238  20.914  55.950  1.00  0.00     0.034 A 
HETATM   11  C   UNL     1       8.595  19.956  55.001  1.00  0.00     0.002 A 
ENDROOT
BRANCH   8  12
HETATM   12  S   UNL     1       7.197  26.369  54.190  1.00  0.00     0.200 S 
HETATM   13  O   UNL     1       7.611  27.329  55.198  1.00  0.00    -0.221 OA
HETATM   14  O   UNL     1       7.729  26.494  52.849  1.00  0.00    -0.221 OA
BRANCH  12  15
HETATM   15  C   UNL     1       5.409  26.502  54.080  1.00  0.00     0.118 C 
HETATM   16  C   UNL     1       4.819  25.265  53.384  1.00  0.00     0.048 C 
HETATM   17  C   UNL     1       5.072  25.248  51.882  1.00  0.00     0.233 C 
HETATM   18  N   UNL     1       4.571  26.519  51.284  1.00  0.00    -0.075 N 
HETATM   19  H   UNL     1       3.543  26.550  51.331  1.00  0.00     0.277 HD
HETATM   20  H   UNL     1       4.793  26.504  50.276  1.00  0.00     0.277 HD
HETATM   21  C   UNL     1       5.147  27.767  51.861  1.00  0.00     0.233 C 
HETATM   22  C   UNL     1       4.942  27.783  53.372  1.00  0.00     0.048 C 
ENDBRANCH  12  15
ENDBRANCH   8  12
TORSDOF 2
ENDMDL
MODEL 3
REMARK VINA RESULT:      -7.7      2.408      3.264
REMARK  2 active torsions:
REMARK  status: ('A' for Active; 'I' for Inactive)
REMARK    1  A    between atoms: C_8  and  S_9 
REMARK    2  A    between atoms: S_9  and  C_10 
ROOT
HETATM    1  C   UNL     1       8.891  22.338  54.347  1.00  0.00     0.002 A 
HETATM    2  C   UNL     1       8.710  23.319  55.323  1.00  0.00     0.034 A 
HETATM    3  C   UNL     1       7.866  24.401  55.107  1.00  0.00     0.087 A 
HETATM    4  C   UNL     1       7.180  24.509  53.870  1.00  0.00     0.087 A 
HETATM    5  N   UNL     1       6.344  25.537  53.619  1.00  0.00    -0.231 NA
HETATM    6  C   UNL     1       6.219  26.485  54.574  1.00  0.00     0.167 A 
HETATM    7 CL   UNL     1       5.053  27.674  54.177  1.00  0.00    -0.059 Cl
HETATM    8  C   UNL     1       6.893  26.375  55.767  1.00  0.00     0.192 A 
HETATM    9  N   UNL     1       7.707  25.325  56.074  1.00  0.00    -0.232 NA
HETATM   10  C   UNL     1       7.368  23.524  52.908  1.00  0.00     0.034 A 
HETATM   11  C   UNL     1       8.217  22.441  53.137  1.00  0.00     0.002 A 
ENDROOT
BRANCH   8  12
HETATM   12  S   UNL     1       6.753  27.547  57.075  1.00  0.00     0.200 S 
HETATM   13  O   UNL     1       5.351  27.697  57.427  1.00  0.00    -0.221 OA
HETATM   14  O   UNL     1       7.702  27.230  58.121  1.00  0.00    -0.221 OA
BRANCH  12  15
HETATM   15  C   UNL     1       7.252  29.111  56.344  1.00  0.00     0.118 C 
HETATM   16  C   UNL     1       8.717  29.046  55.883  1.00  0.00     0.048 C 
HETATM   17  C   UNL     1       9.708  29.083  57.039  1.00  0.00     0.233 C 
HETATM   18  N   UNL     1       9.438  30.286  57.880  1.00  0.00    -0.075 N 
HETATM   19  H   UNL     1       9.678  31.141  57.359  1.00  0.00     0.277 HD
HETATM   20  H   UNL     1      10.091  30.267  58.679  1.00  0.00     0.277 HD
HETATM   21  C   UNL     1       8.053  30.389  58.422  1.00  0.00     0.233 C 
HETATM   22  C   UNL     1       7.043  30.309  57.282  1.00  0.00     0.048 C 
ENDBRANCH  12  15
ENDBRANCH   8  12
TORSDOF 2
ENDMDL
MODEL 4
REMARK VINA RESULT:      -7.2      4.886      6.492
REMARK  2 active torsions:
REMARK  status: ('A' for Active; 'I' for Inactive)
REMARK    1  A    between atoms: C_8  and  S_9 
REMARK    2  A    between atoms: S_9  and  C_10 
ROOT
HETATM    1  C   UNL     1       7.999  23.373  53.061  1.00  0.00     0.002 A 
HETATM    2  C   UNL     1       7.536  24.291  52.119  1.00  0.00     0.034 A 
HETATM    3  C   UNL     1       6.633  25.288  52.467  1.00  0.00     0.087 A 
HETATM    4  C   UNL     1       6.174  25.368  53.807  1.00  0.00     0.087 A 
HETATM    5  N   UNL     1       5.304  26.324  54.194  1.00  0.00    -0.231 NA
HETATM    6  C   UNL     1       4.853  27.175  53.246  1.00  0.00     0.167 A 
HETATM    7 CL   UNL     1       3.842  28.400  53.885  1.00  0.00    -0.059 Cl
HETATM    8  C   UNL     1       5.299  27.085  51.949  1.00  0.00     0.192 A 
HETATM    9  N   UNL     1       6.215  26.165  51.534  1.00  0.00    -0.232 NA
HETATM   10  C   UNL     1       6.644  24.448  54.736  1.00  0.00     0.034 A 
HETATM   11  C   UNL     1       7.551  23.452  54.374  1.00  0.00     0.002 A 
ENDROOT
BRANCH   8  12
HETATM   12  S   UNL     1       4.789  28.181  50.667  1.00  0.00     0.200 S 
HETATM   13  O   UNL     1       3.358  28.406  50.779  1.00  0.00    -0.221 OA
HETATM   14  O   UNL     1       5.673  29.327  50.623  1.00  0.00    -0.221 OA
BRANCH  12  15
HETATM   15  C   UNL     1       5.029  27.252  49.148  1.00  0.00     0.118 C 
HETATM   16  C   UNL     1       5.309  28.203  47.973  1.00  0.00     0.048 C 
HETATM   17  C   UNL     1       4.070  28.957  47.508  1.00  0.00     0.233 C 
HETATM   18  N   UNL     1       2.989  27.978  47.191  1.00  0.00    -0.075 N 
HETATM   19  H   UNL     1       3.241  27.434  46.354  1.00  0.00     0.277 HD
HETATM   20  H   UNL     1       2.148  28.512  46.921  1.00  0.00     0.277 HD
HETATM   21  C   UNL     1       2.612  27.060  48.304  1.00  0.00     0.233 C 
HETATM   22  C   UNL     1       3.849  26.328  48.813  1.00  0.00     0.048 C 
ENDBRANCH  12  15
ENDBRANCH   8  12
TORSDOF 2
ENDMDL
MODEL 5
REMARK VINA RESULT:      -7.1      3.577      7.984
REMARK  2 active torsions:
REMARK  status: ('A' for Active; 'I' for Inactive)
REMARK    1  A    between atoms: C_8  and  S_9 
REMARK    2  A    between atoms: S_9  and  C_10 
ROOT
HETATM    1  C   UNL     1       9.022  31.616  61.748  1.00  0.00     0.002 A 
HETATM    2  C   UNL     1       9.104  30.554  60.848  1.00  0.00     0.034 A 
HETATM    3  C   UNL     1       8.255  30.472  59.751  1.00  0.00     0.087 A 
HETATM    4  C   UNL     1       7.287  31.489  59.548  1.00  0.00     0.087 A 
HETATM    5  N   UNL     1       6.447  31.457  58.492  1.00  0.00    -0.231 NA
HETATM    6  C   UNL     1       6.534  30.395  57.660  1.00  0.00     0.167 A 
HETATM    7 CL   UNL     1       5.492  30.527  56.309  1.00  0.00    -0.059 Cl
HETATM    8  C   UNL     1       7.472  29.412  57.869  1.00  0.00     0.192 A 
HETATM    9  N   UNL     1       8.368  29.437  58.896  1.00  0.00    -0.232 NA
HETATM   10  C   UNL     1       7.218  32.542  60.451  1.00  0.00     0.034 A 
HETATM   11  C   UNL     1       8.076  32.614  61.548  1.00  0.00     0.002 A 
ENDROOT
BRANCH   8  12
HETATM   12  S   UNL     1       7.673  28.019  56.809  1.00  0.00     0.200 S 
HETATM   13  O   UNL     1       7.772  28.481  55.435  1.00  0.00    -0.221 OA
HETATM   14  O   UNL     1       8.712  27.155  57.329  1.00  0.00    -0.221 OA
BRANCH  12  15
HETATM   15  C   UNL     1       6.117  27.127  56.923  1.00  0.00     0.118 C 
HETATM   16  C   UNL     1       6.362  25.671  57.350  1.00  0.00     0.048 C 
HETATM   17  C   UNL     1       6.957  24.816  56.240  1.00  0.00     0.233 C 
HETATM   18  N   UNL     1       6.088  24.907  55.030  1.00  0.00    -0.075 N 
HETATM   19  H   UNL     1       5.189  24.439  55.206  1.00  0.00     0.277 HD
HETATM   20  H   UNL     1       6.534  24.357  54.279  1.00  0.00     0.277 HD
HETATM   21  C   UNL     1       5.857  26.286  54.512  1.00  0.00     0.233 C 
HETATM   22  C   UNL     1       5.301  27.170  55.623  1.00  0.00     0.048 C 
ENDBRANCH  12  15
ENDBRANCH   8  12
TORSDOF 2
ENDMDL
MODEL 6
REMARK VINA RESULT:      -7.0      2.786      6.745
REMARK  2 active torsions:
REMARK  status: ('A' for Active; 'I' for Inactive)
REMARK    1  A    between atoms: C_8  and  S_9 
REMARK    2  A    between atoms: S_9  and  C_10 
ROOT
HETATM    1  C   UNL     1      10.831  30.492  57.433  1.00  0.00     0.002 A 
HETATM    2  C   UNL     1      10.302  29.736  56.387  1.00  0.00     0.034 A 
HETATM    3  C   UNL     1       8.950  29.419  56.340  1.00  0.00     0.087 A 
HETATM    4  C   UNL     1       8.096  29.873  57.378  1.00  0.00     0.087 A 
HETATM    5  N   UNL     1       6.775  29.599  57.370  1.00  0.00    -0.231 NA
HETATM    6  C   UNL     1       6.304  28.836  56.359  1.00  0.00     0.167 A 
HETATM    7 CL   UNL     1       4.603  28.650  56.408  1.00  0.00    -0.059 Cl
HETATM    8  C   UNL     1       7.141  28.395  55.361  1.00  0.00     0.192 A 
HETATM    9  N   UNL     1       8.470  28.695  55.310  1.00  0.00    -0.232 NA
HETATM   10  C   UNL     1       8.636  30.628  58.412  1.00  0.00     0.034 A 
HETATM   11  C   UNL     1       9.996  30.939  58.448  1.00  0.00     0.002 A 
ENDROOT
BRANCH   8  12
HETATM   12  S   UNL     1       6.596  27.431  53.990  1.00  0.00     0.200 S 
HETATM   13  O   UNL     1       5.558  28.161  53.283  1.00  0.00    -0.221 OA
HETATM   14  O   UNL     1       7.741  26.951  53.245  1.00  0.00    -0.221 OA
BRANCH  12  15
HETATM   15  C   UNL     1       5.789  26.004  54.726  1.00  0.00     0.118 C 
HETATM   16  C   UNL     1       6.769  25.238  55.629  1.00  0.00     0.048 C 
HETATM   17  C   UNL     1       7.810  24.449  54.846  1.00  0.00     0.233 C 
HETATM   18  N   UNL     1       7.118  23.548  53.878  1.00  0.00    -0.075 N 
HETATM   19  H   UNL     1       6.618  22.805  54.384  1.00  0.00     0.277 HD
HETATM   20  H   UNL     1       7.842  23.058  53.329  1.00  0.00     0.277 HD
HETATM   21  C   UNL     1       6.198  24.225  52.920  1.00  0.00     0.233 C 
HETATM   22  C   UNL     1       5.174  25.057  53.685  1.00  0.00     0.048 C 
ENDBRANCH  12  15
ENDBRANCH   8  12
TORSDOF 2
ENDMDL
MODEL 7
REMARK VINA RESULT:      -6.8      9.338     11.519
REMARK  2 active torsions:
REMARK  status: ('A' for Active; 'I' for Inactive)
REMARK    1  A    between atoms: C_8  and  S_9 
REMARK    2  A    between atoms: S_9  and  C_10 
ROOT
HETATM    1  C   UNL     1       9.857  31.627  59.812  1.00  0.00     0.002 A 
HETATM    2  C   UNL     1       9.136  32.134  60.894  1.00  0.00     0.034 A 
HETATM    3  C   UNL     1       7.752  32.245  60.847  1.00  0.00     0.087 A 
HETATM    4  C   UNL     1       7.064  31.837  59.676  1.00  0.00     0.087 A 
HETATM    5  N   UNL     1       5.720  31.918  59.588  1.00  0.00    -0.231 NA
HETATM    6  C   UNL     1       5.058  32.445  60.642  1.00  0.00     0.167 A 
HETATM    7 CL   UNL     1       3.358  32.394  60.448  1.00  0.00    -0.059 Cl
HETATM    8  C   UNL     1       5.735  32.843  61.770  1.00  0.00     0.192 A 
HETATM    9  N   UNL     1       7.086  32.730  61.913  1.00  0.00    -0.232 NA
HETATM   10  C   UNL     1       7.794  31.332  58.607  1.00  0.00     0.034 A 
HETATM   11  C   UNL     1       9.184  31.225  58.666  1.00  0.00     0.002 A 
ENDROOT
BRANCH   8  12
HETATM   12  S   UNL     1       4.941  33.502  63.199  1.00  0.00     0.200 S 
HETATM   13  O   UNL     1       3.847  34.360  62.778  1.00  0.00    -0.221 OA
HETATM   14  O   UNL     1       4.667  32.437  64.141  1.00  0.00    -0.221 OA
BRANCH  12  15
HETATM   15  C   UNL     1       6.165  34.585  63.945  1.00  0.00     0.118 C 
HETATM   16  C   UNL     1       6.523  34.099  65.359  1.00  0.00     0.048 C 
HETATM   17  C   UNL     1       5.425  34.369  66.378  1.00  0.00     0.233 C 
HETATM   18  N   UNL     1       5.079  35.820  66.356  1.00  0.00    -0.075 N 
HETATM   19  H   UNL     1       5.863  36.375  66.727  1.00  0.00     0.277 HD
HETATM   20  H   UNL     1       4.305  35.972  67.021  1.00  0.00     0.277 HD
HETATM   21  C   UNL     1       4.655  36.356  65.030  1.00  0.00     0.233 C 
HETATM   22  C   UNL     1       5.725  36.056  63.985  1.00  0.00     0.048 C 
ENDBRANCH  12  15
ENDBRANCH   8  12
TORSDOF 2
ENDMDL
MODEL 8
REMARK VINA RESULT:      -6.8      4.245      7.966
REMARK  2 active torsions:
REMARK  status: ('A' for Active; 'I' for Inactive)
REMARK    1  A    between atoms: C_8  and  S_9 
REMARK    2  A    between atoms: S_9  and  C_10 
ROOT
HETATM    1  C   UNL     1       6.800  32.481  60.751  1.00  0.00     0.002 A 
HETATM    2  C   UNL     1       6.538  31.527  59.767  1.00  0.00     0.034 A 
HETATM    3  C   UNL     1       7.564  30.971  59.012  1.00  0.00     0.087 A 
HETATM    4  C   UNL     1       8.899  31.386  59.247  1.00  0.00     0.087 A 
HETATM    5  N   UNL     1       9.929  30.868  58.545  1.00  0.00    -0.231 NA
HETATM    6  C   UNL     1       9.633  29.971  57.578  1.00  0.00     0.167 A 
HETATM    7 CL   UNL     1      11.029  29.314  56.837  1.00  0.00    -0.059 Cl
HETATM    8  C   UNL     1       8.334  29.580  57.353  1.00  0.00     0.192 A 
HETATM    9  N   UNL     1       7.276  30.045  58.076  1.00  0.00    -0.232 NA
HETATM   10  C   UNL     1       9.146  32.335  60.231  1.00  0.00     0.034 A 
HETATM   11  C   UNL     1       8.108  32.885  60.984  1.00  0.00     0.002 A 
ENDROOT
BRANCH   8  12
HETATM   12  S   UNL     1       7.873  28.389  56.140  1.00  0.00     0.200 S 
HETATM   13  O   UNL     1       8.402  28.800  54.850  1.00  0.00    -0.221 OA
HETATM   14  O   UNL     1       8.174  27.058  56.623  1.00  0.00    -0.221 OA
BRANCH  12  15
HETATM   15  C   UNL     1       6.087  28.531  56.014  1.00  0.00     0.118 C 
HETATM   16  C   UNL     1       5.401  27.366  56.746  1.00  0.00     0.048 C 
HETATM   17  C   UNL     1       5.512  26.044  55.997  1.00  0.00     0.233 C 
HETATM   18  N   UNL     1       4.990  26.219  54.611  1.00  0.00    -0.075 N 
HETATM   19  H   UNL     1       3.972  26.372  54.634  1.00  0.00     0.277 HD
HETATM   20  H   UNL     1       5.115  25.326  54.110  1.00  0.00     0.277 HD
HETATM   21  C   UNL     1       5.650  27.289  53.809  1.00  0.00     0.233 C 
HETATM   22  C   UNL     1       5.589  28.613  54.563  1.00  0.00     0.048 C 
ENDBRANCH  12  15
ENDBRANCH   8  12
TORSDOF 2
ENDMDL
MODEL 9
REMARK VINA RESULT:      -6.8      3.624      7.208
REMARK  2 active torsions:
REMARK  status: ('A' for Active; 'I' for Inactive)
REMARK    1  A    between atoms: C_8  and  S_9 
REMARK    2  A    between atoms: S_9  and  C_10 
ROOT
HETATM    1  C   UNL     1       7.005  32.228  59.308  1.00  0.00     0.002 A 
HETATM    2  C   UNL     1       6.230  31.413  58.483  1.00  0.00     0.034 A 
HETATM    3  C   UNL     1       6.665  30.148  58.108  1.00  0.00     0.087 A 
HETATM    4  C   UNL     1       7.921  29.681  58.572  1.00  0.00     0.087 A 
HETATM    5  N   UNL     1       8.380  28.456  58.241  1.00  0.00    -0.231 NA
HETATM    6  C   UNL     1       7.617  27.708  57.414  1.00  0.00     0.167 A 
HETATM    7 CL   UNL     1       8.259  26.142  57.158  1.00  0.00    -0.059 Cl
HETATM    8  C   UNL     1       6.404  28.172  56.964  1.00  0.00     0.192 A 
HETATM    9  N   UNL     1       5.886  29.383  57.318  1.00  0.00    -0.232 NA
HETATM   10  C   UNL     1       8.682  30.503  59.395  1.00  0.00     0.034 A 
HETATM   11  C   UNL     1       8.234  31.771  59.765  1.00  0.00     0.002 A 
ENDROOT
BRANCH   8  12
HETATM   12  S   UNL     1       5.335  27.242  55.916  1.00  0.00     0.200 S 
HETATM   13  O   UNL     1       5.043  25.968  56.550  1.00  0.00    -0.221 OA
HETATM   14  O   UNL     1       4.231  28.073  55.483  1.00  0.00    -0.221 OA
BRANCH  12  15
HETATM   15  C   UNL     1       6.330  26.862  54.469  1.00  0.00     0.118 C 
HETATM   16  C   UNL     1       5.952  27.784  53.299  1.00  0.00     0.048 C 
HETATM   17  C   UNL     1       4.610  27.432  52.670  1.00  0.00     0.233 C 
HETATM   18  N   UNL     1       4.617  25.994  52.271  1.00  0.00    -0.075 N 
HETATM   19  H   UNL     1       5.269  25.849  51.488  1.00  0.00     0.277 HD
HETATM   20  H   UNL     1       3.685  25.767  51.889  1.00  0.00     0.277 HD
HETATM   21  C   UNL     1       4.910  25.028  53.367  1.00  0.00     0.233 C 
HETATM   22  C   UNL     1       6.231  25.391  54.039  1.00  0.00     0.048 C 
ENDBRANCH  12  15
ENDBRANCH   8  12
TORSDOF 2
ENDMDL
MODEL 10
REMARK VINA RESULT:      -6.7      2.825      3.838
REMARK  2 active torsions:
REMARK  status: ('A' for Active; 'I' for Inactive)
REMARK    1  A    between atoms: C_8  and  S_9 
REMARK    2  A    between atoms: S_9  and  C_10 
ROOT
HETATM    1  C   UNL     1       7.719  24.444  51.918  1.00  0.00     0.002 A 
HETATM    2  C   UNL     1       7.623  25.656  52.603  1.00  0.00     0.034 A 
HETATM    3  C   UNL     1       7.622  25.700  53.991  1.00  0.00     0.087 A 
HETATM    4  C   UNL     1       7.719  24.488  54.723  1.00  0.00     0.087 A 
HETATM    5  N   UNL     1       7.731  24.483  56.072  1.00  0.00    -0.231 NA
HETATM    6  C   UNL     1       7.602  25.672  56.701  1.00  0.00     0.167 A 
HETATM    7 CL   UNL     1       7.738  25.540  58.402  1.00  0.00    -0.059 Cl
HETATM    8  C   UNL     1       7.503  26.841  55.982  1.00  0.00     0.192 A 
HETATM    9  N   UNL     1       7.537  26.888  54.620  1.00  0.00    -0.232 NA
HETATM   10  C   UNL     1       7.816  23.289  54.029  1.00  0.00     0.034 A 
HETATM   11  C   UNL     1       7.817  23.257  52.634  1.00  0.00     0.002 A 
ENDROOT
BRANCH   8  12
HETATM   12  S   UNL     1       7.372  28.432  56.727  1.00  0.00     0.200 S 
HETATM   13  O   UNL     1       8.207  28.467  57.916  1.00  0.00    -0.221 OA
HETATM   14  O   UNL     1       7.549  29.459  55.722  1.00  0.00    -0.221 OA
BRANCH  12  15
HETATM   15  C   UNL     1       5.674  28.528  57.308  1.00  0.00     0.118 C 
HETATM   16  C   UNL     1       4.723  27.859  56.303  1.00  0.00     0.048 C 
HETATM   17  C   UNL     1       4.510  28.687  55.043  1.00  0.00     0.233 C 
HETATM   18  N   UNL     1       4.050  30.054  55.424  1.00  0.00    -0.075 N 
HETATM   19  H   UNL     1       3.101  30.009  55.819  1.00  0.00     0.277 HD
HETATM   20  H   UNL     1       3.955  30.609  54.559  1.00  0.00     0.277 HD
HETATM   21  C   UNL     1       4.955  30.797  56.347  1.00  0.00     0.233 C 
HETATM   22  C   UNL     1       5.216  29.965  57.598  1.00  0.00     0.048 C 
ENDBRANCH  12  15
ENDBRANCH   8  12
TORSDOF 2
ENDMDL
