MODEL 1
REMARK VINA RESULT:     -10.0      0.000      0.000
REMARK  3 active torsions:
REMARK  status: ('A' for Active; 'I' for Inactive)
REMARK    1  A    between atoms: O_2  and  C_3 
REMARK    2  A    between atoms: C_4  and  N_5 
REMARK       I    between atoms: N_5  and  C_6 
REMARK       I    between atoms: C_6  and  N_7 
REMARK    3  A    between atoms: C_10  and  C_11 
ROOT
HETATM    1  N   UNL     1       7.226  29.927  58.357  1.00  0.00    -0.306 N 
HETATM    2  C   UNL     1       7.862  29.377  57.270  1.00  0.00     0.323 C 
HETATM    3  N   UNL     1       7.064  28.453  56.571  1.00  0.00    -0.334 N 
HETATM    4  C   UNL     1       6.200  27.533  57.317  1.00  0.00     0.128 C 
HETATM    5  C   UNL     1       5.194  26.817  56.419  1.00  0.00     0.029 C 
HETATM    6  C   UNL     1       5.864  26.120  55.229  1.00  0.00     0.024 C 
HETATM    7  C   UNL     1       6.641  27.215  54.465  1.00  0.00     0.029 C 
HETATM    8  C   UNL     1       7.669  27.902  55.361  1.00  0.00     0.128 C 
HETATM    9  O   UNL     1       8.999  29.668  56.908  1.00  0.00    -0.247 OA
HETATM   10  H   UNL     1       6.221  30.007  58.279  1.00  0.00     0.171 HD
ENDROOT
BRANCH   1  11
HETATM   11  C   UNL     1       7.795  30.702  59.387  1.00  0.00     0.072 A 
HETATM   12  C   UNL     1       7.330  32.024  59.529  1.00  0.00     0.095 A 
HETATM   13  C   UNL     1       7.842  32.854  60.529  1.00  0.00     0.042 A 
HETATM   14  C   UNL     1       8.784  32.349  61.426  1.00  0.00     0.045 A 
HETATM   15  C   UNL     1       9.213  31.031  61.303  1.00  0.00     0.118 A 
HETATM   16  C   UNL     1       8.732  30.203  60.293  1.00  0.00     0.074 A 
HETATM   17  F   UNL     1      10.105  30.551  62.180  1.00  0.00    -0.206 F 
BRANCH  12  18
HETATM   18  O   UNL     1       6.413  32.466  58.602  1.00  0.00    -0.354 OA
HETATM   19  C   UNL     1       5.182  32.882  59.187  1.00  0.00     0.210 C 
ENDBRANCH  12  18
ENDBRANCH   1  11
BRANCH   6  20
HETATM   20  C   UNL     1       6.720  24.897  55.535  1.00  0.00    -0.026 A 
HETATM   21  C   UNL     1       7.265  23.869  54.672  1.00  0.00    -0.001 A 
HETATM   22  C   UNL     1       7.959  22.963  55.483  1.00  0.00     0.042 A 
HETATM   23  C   UNL     1       7.248  23.594  53.285  1.00  0.00     0.014 A 
HETATM   24  C   UNL     1       8.596  21.815  54.994  1.00  0.00     0.030 A 
HETATM   25  N   UNL     1       7.884  23.426  56.771  1.00  0.00    -0.365 N 
HETATM   26  C   UNL     1       8.543  21.572  53.622  1.00  0.00     0.002 A 
HETATM   27  C   UNL     1       7.882  22.451  52.776  1.00  0.00     0.001 A 
HETATM   28  H   UNL     1       8.306  22.971  57.569  1.00  0.00     0.165 HD
HETATM   29  C   UNL     1       7.177  24.591  56.811  1.00  0.00     0.096 A 
ENDBRANCH   6  20
TORSDOF 3
ENDMDL
MODEL 2
REMARK VINA RESULT:      -9.5      2.152      2.927
REMARK  3 active torsions:
REMARK  status: ('A' for Active; 'I' for Inactive)
REMARK    1  A    between atoms: O_2  and  C_3 
REMARK    2  A    between atoms: C_4  and  N_5 
REMARK       I    between atoms: N_5  and  C_6 
REMARK       I    between atoms: C_6  and  N_7 
REMARK    3  A    between atoms: C_10  and  C_11 
ROOT
HETATM    1  N   UNL     1       5.924  29.222  55.581  1.00  0.00    -0.306 N 
HETATM    2  C   UNL     1       7.018  28.549  55.094  1.00  0.00     0.323 C 
HETATM    3  N   UNL     1       6.677  27.391  54.372  1.00  0.00    -0.334 N 
HETATM    4  C   UNL     1       5.582  26.538  54.844  1.00  0.00     0.128 C 
HETATM    5  C   UNL     1       5.151  25.508  53.802  1.00  0.00     0.029 C 
HETATM    6  C   UNL     1       6.328  24.676  53.281  1.00  0.00     0.024 C 
HETATM    7  C   UNL     1       7.352  25.680  52.708  1.00  0.00     0.029 C 
HETATM    8  C   UNL     1       7.803  26.685  53.765  1.00  0.00     0.128 C 
HETATM    9  O   UNL     1       8.181  28.916  55.236  1.00  0.00    -0.247 OA
HETATM   10  H   UNL     1       5.080  29.139  55.031  1.00  0.00     0.171 HD
ENDROOT
BRANCH   1  11
HETATM   11  C   UNL     1       5.907  30.275  56.518  1.00  0.00     0.072 A 
HETATM   12  C   UNL     1       5.098  31.389  56.219  1.00  0.00     0.095 A 
HETATM   13  C   UNL     1       5.026  32.471  57.100  1.00  0.00     0.042 A 
HETATM   14  C   UNL     1       5.720  32.421  58.309  1.00  0.00     0.045 A 
HETATM   15  C   UNL     1       6.489  31.302  58.615  1.00  0.00     0.118 A 
HETATM   16  C   UNL     1       6.592  30.231  57.733  1.00  0.00     0.074 A 
HETATM   17  F   UNL     1       7.138  31.257  59.786  1.00  0.00    -0.206 F 
BRANCH  12  18
HETATM   18  O   UNL     1       4.453  31.383  55.003  1.00  0.00    -0.354 OA
HETATM   19  C   UNL     1       3.047  31.592  55.115  1.00  0.00     0.210 C 
ENDBRANCH  12  18
ENDBRANCH   1  11
BRANCH   6  20
HETATM   20  C   UNL     1       6.957  23.683  54.252  1.00  0.00    -0.026 A 
HETATM   21  C   UNL     1       7.602  22.405  54.031  1.00  0.00    -0.001 A 
HETATM   22  C   UNL     1       7.978  21.902  55.282  1.00  0.00     0.042 A 
HETATM   23  C   UNL     1       7.910  21.604  52.906  1.00  0.00     0.014 A 
HETATM   24  C   UNL     1       8.605  20.661  55.461  1.00  0.00     0.030 A 
HETATM   25  N   UNL     1       7.624  22.834  56.222  1.00  0.00    -0.365 N 
HETATM   26  C   UNL     1       8.878  19.896  54.329  1.00  0.00     0.002 A 
HETATM   27  C   UNL     1       8.540  20.361  53.066  1.00  0.00     0.001 A 
HETATM   28  H   UNL     1       7.785  22.737  57.214  1.00  0.00     0.165 HD
HETATM   29  C   UNL     1       7.045  23.912  55.619  1.00  0.00     0.096 A 
ENDBRANCH   6  20
TORSDOF 3
ENDMDL
MODEL 3
REMARK VINA RESULT:      -9.1      1.948      2.664
REMARK  3 active torsions:
REMARK  status: ('A' for Active; 'I' for Inactive)
REMARK    1  A    between atoms: O_2  and  C_3 
REMARK    2  A    between atoms: C_4  and  N_5 
REMARK       I    between atoms: N_5  and  C_6 
REMARK       I    between atoms: C_6  and  N_7 
REMARK    3  A    between atoms: C_10  and  C_11 
ROOT
HETATM    1  N   UNL     1       6.953  31.555  59.755  1.00  0.00    -0.306 N 
HETATM    2  C   UNL     1       8.011  30.767  59.367  1.00  0.00     0.323 C 
HETATM    3  N   UNL     1       7.839  30.201  58.091  1.00  0.00    -0.334 N 
HETATM    4  C   UNL     1       6.518  29.710  57.688  1.00  0.00     0.128 C 
HETATM    5  C   UNL     1       6.436  29.409  56.193  1.00  0.00     0.029 C 
HETATM    6  C   UNL     1       7.552  28.470  55.723  1.00  0.00     0.024 C 
HETATM    7  C   UNL     1       8.885  29.154  56.100  1.00  0.00     0.029 C 
HETATM    8  C   UNL     1       8.973  29.420  57.601  1.00  0.00     0.128 C 
HETATM    9  O   UNL     1       9.025  30.585  60.035  1.00  0.00    -0.247 OA
HETATM   10  H   UNL     1       6.455  32.014  59.005  1.00  0.00     0.171 HD
ENDROOT
BRANCH   1  11
HETATM   11  C   UNL     1       6.697  32.082  61.035  1.00  0.00     0.072 A 
HETATM   12  C   UNL     1       5.353  32.337  61.369  1.00  0.00     0.095 A 
HETATM   13  C   UNL     1       5.018  32.857  62.622  1.00  0.00     0.042 A 
HETATM   14  C   UNL     1       6.021  33.075  63.566  1.00  0.00     0.045 A 
HETATM   15  C   UNL     1       7.344  32.787  63.244  1.00  0.00     0.118 A 
HETATM   16  C   UNL     1       7.693  32.297  61.989  1.00  0.00     0.074 A 
HETATM   17  F   UNL     1       8.297  32.983  64.165  1.00  0.00    -0.206 F 
BRANCH  12  18
HETATM   18  O   UNL     1       4.414  32.117  60.387  1.00  0.00    -0.354 OA
HETATM   19  C   UNL     1       3.698  33.296  60.025  1.00  0.00     0.210 C 
ENDBRANCH  12  18
ENDBRANCH   1  11
BRANCH   6  20
HETATM   20  C   UNL     1       7.482  27.022  56.192  1.00  0.00    -0.026 A 
HETATM   21  C   UNL     1       7.479  25.775  55.455  1.00  0.00    -0.001 A 
HETATM   22  C   UNL     1       7.373  24.735  56.386  1.00  0.00     0.042 A 
HETATM   23  C   UNL     1       7.548  25.402  54.092  1.00  0.00     0.014 A 
HETATM   24  C   UNL     1       7.309  23.381  56.031  1.00  0.00     0.030 A 
HETATM   25  N   UNL     1       7.354  25.303  57.633  1.00  0.00    -0.365 N 
HETATM   26  C   UNL     1       7.366  23.056  54.677  1.00  0.00     0.002 A 
HETATM   27  C   UNL     1       7.489  24.051  53.718  1.00  0.00     0.001 A 
HETATM   28  H   UNL     1       7.292  24.784  58.497  1.00  0.00     0.165 HD
HETATM   29  C   UNL     1       7.450  26.660  57.533  1.00  0.00     0.096 A 
ENDBRANCH   6  20
TORSDOF 3
ENDMDL
MODEL 4
REMARK VINA RESULT:      -9.0      3.917      8.444
REMARK  3 active torsions:
REMARK  status: ('A' for Active; 'I' for Inactive)
REMARK    1  A    between atoms: O_2  and  C_3 
REMARK    2  A    between atoms: C_4  and  N_5 
REMARK       I    between atoms: N_5  and  C_6 
REMARK       I    between atoms: C_6  and  N_7 
REMARK    3  A    between atoms: C_10  and  C_11 
ROOT
HETATM    1  N   UNL     1       7.257  24.341  54.009  1.00  0.00    -0.306 N 
HETATM    2  C   UNL     1       6.393  24.871  54.938  1.00  0.00     0.323 C 
HETATM    3  N   UNL     1       6.171  26.249  54.763  1.00  0.00    -0.334 N 
HETATM    4  C   UNL     1       7.288  27.121  54.384  1.00  0.00     0.128 C 
HETATM    5  C   UNL     1       6.824  28.508  53.947  1.00  0.00     0.029 C 
HETATM    6  C   UNL     1       5.917  29.176  54.986  1.00  0.00     0.024 C 
HETATM    7  C   UNL     1       4.728  28.216  55.208  1.00  0.00     0.029 C 
HETATM    8  C   UNL     1       5.198  26.841  55.677  1.00  0.00     0.128 C 
HETATM    9  O   UNL     1       5.838  24.223  55.821  1.00  0.00    -0.247 OA
HETATM   10  H   UNL     1       7.256  24.794  53.105  1.00  0.00     0.171 HD
ENDROOT
BRANCH   1  11
HETATM   11  C   UNL     1       7.864  23.070  54.024  1.00  0.00     0.072 A 
HETATM   12  C   UNL     1       8.750  22.793  55.084  1.00  0.00     0.095 A 
HETATM   13  C   UNL     1       9.388  21.552  55.170  1.00  0.00     0.042 A 
HETATM   14  C   UNL     1       9.101  20.565  54.228  1.00  0.00     0.045 A 
HETATM   15  C   UNL     1       8.197  20.832  53.205  1.00  0.00     0.118 A 
HETATM   16  C   UNL     1       7.578  22.073  53.091  1.00  0.00     0.074 A 
HETATM   17  F   UNL     1       7.916  19.870  52.315  1.00  0.00    -0.206 F 
BRANCH  12  18
HETATM   18  O   UNL     1       9.003  23.815  55.969  1.00  0.00    -0.354 OA
HETATM   19  C   UNL     1       8.675  23.482  57.316  1.00  0.00     0.210 C 
ENDBRANCH  12  18
ENDBRANCH   1  11
BRANCH   6  20
HETATM   20  C   UNL     1       6.568  29.617  56.292  1.00  0.00    -0.026 A 
HETATM   21  C   UNL     1       7.959  29.758  56.670  1.00  0.00    -0.001 A 
HETATM   22  C   UNL     1       7.993  30.175  58.005  1.00  0.00     0.042 A 
HETATM   23  C   UNL     1       9.208  29.573  56.031  1.00  0.00     0.014 A 
HETATM   24  C   UNL     1       9.179  30.386  58.722  1.00  0.00     0.030 A 
HETATM   25  N   UNL     1       6.696  30.326  58.420  1.00  0.00    -0.365 N 
HETATM   26  C   UNL     1      10.388  30.178  58.061  1.00  0.00     0.002 A 
HETATM   27  C   UNL     1      10.405  29.782  56.731  1.00  0.00     0.001 A 
HETATM   28  H   UNL     1       6.421  30.628  59.344  1.00  0.00     0.165 HD
HETATM   29  C   UNL     1       5.839  30.028  57.401  1.00  0.00     0.096 A 
ENDBRANCH   6  20
TORSDOF 3
ENDMDL
MODEL 5
REMARK VINA RESULT:      -9.0      5.543      8.576
REMARK  3 active torsions:
REMARK  status: ('A' for Active; 'I' for Inactive)
REMARK    1  A    between atoms: O_2  and  C_3 
REMARK    2  A    between atoms: C_4  and  N_5 
REMARK       I    between atoms: N_5  and  C_6 
REMARK       I    between atoms: C_6  and  N_7 
REMARK    3  A    between atoms: C_10  and  C_11 
ROOT
HETATM    1  N   UNL     1       6.599  24.146  54.234  1.00  0.00    -0.306 N 
HETATM    2  C   UNL     1       7.125  25.399  54.026  1.00  0.00     0.323 C 
HETATM    3  N   UNL     1       6.147  26.368  53.738  1.00  0.00    -0.334 N 
HETATM    4  C   UNL     1       5.013  26.018  52.876  1.00  0.00     0.128 C 
HETATM    5  C   UNL     1       3.908  27.071  52.910  1.00  0.00     0.029 C 
HETATM    6  C   UNL     1       4.431  28.479  52.607  1.00  0.00     0.024 C 
HETATM    7  C   UNL     1       5.532  28.768  53.651  1.00  0.00     0.029 C 
HETATM    8  C   UNL     1       6.650  27.731  53.588  1.00  0.00     0.128 C 
HETATM    9  O   UNL     1       8.319  25.674  54.107  1.00  0.00    -0.247 OA
HETATM   10  H   UNL     1       5.665  24.124  54.620  1.00  0.00     0.171 HD
ENDROOT
BRANCH   1  11
HETATM   11  C   UNL     1       7.295  22.924  54.322  1.00  0.00     0.072 A 
HETATM   12  C   UNL     1       7.705  22.508  55.604  1.00  0.00     0.095 A 
HETATM   13  C   UNL     1       8.397  21.305  55.773  1.00  0.00     0.042 A 
HETATM   14  C   UNL     1       8.633  20.487  54.668  1.00  0.00     0.045 A 
HETATM   15  C   UNL     1       8.193  20.886  53.409  1.00  0.00     0.118 A 
HETATM   16  C   UNL     1       7.530  22.096  53.224  1.00  0.00     0.074 A 
HETATM   17  F   UNL     1       8.411  20.085  52.358  1.00  0.00    -0.206 F 
BRANCH  12  18
HETATM   18  O   UNL     1       7.456  23.368  56.648  1.00  0.00    -0.354 OA
HETATM   19  C   UNL     1       8.643  23.919  57.214  1.00  0.00     0.210 C 
ENDBRANCH  12  18
ENDBRANCH   1  11
BRANCH   6  20
HETATM   20  C   UNL     1       4.887  28.756  51.179  1.00  0.00    -0.026 A 
HETATM   21  C   UNL     1       4.765  27.975  49.966  1.00  0.00    -0.001 A 
HETATM   22  C   UNL     1       5.383  28.695  48.937  1.00  0.00     0.042 A 
HETATM   23  C   UNL     1       4.202  26.725  49.616  1.00  0.00     0.014 A 
HETATM   24  C   UNL     1       5.487  28.230  47.619  1.00  0.00     0.030 A 
HETATM   25  N   UNL     1       5.827  29.876  49.473  1.00  0.00    -0.365 N 
HETATM   26  C   UNL     1       4.932  26.987  47.318  1.00  0.00     0.002 A 
HETATM   27  C   UNL     1       4.293  26.244  48.301  1.00  0.00     0.001 A 
HETATM   28  H   UNL     1       6.306  30.597  48.953  1.00  0.00     0.165 HD
HETATM   29  C   UNL     1       5.510  29.938  50.798  1.00  0.00     0.096 A 
ENDBRANCH   6  20
TORSDOF 3
ENDMDL
MODEL 6
REMARK VINA RESULT:      -9.0      3.078      8.715
REMARK  3 active torsions:
REMARK  status: ('A' for Active; 'I' for Inactive)
REMARK    1  A    between atoms: O_2  and  C_3 
REMARK    2  A    between atoms: C_4  and  N_5 
REMARK       I    between atoms: N_5  and  C_6 
REMARK       I    between atoms: C_6  and  N_7 
REMARK    3  A    between atoms: C_10  and  C_11 
ROOT
HETATM    1  N   UNL     1       7.070  24.777  55.173  1.00  0.00    -0.306 N 
HETATM    2  C   UNL     1       6.637  25.416  56.310  1.00  0.00     0.323 C 
HETATM    3  N   UNL     1       6.531  26.809  56.155  1.00  0.00    -0.334 N 
HETATM    4  C   UNL     1       7.549  27.532  55.385  1.00  0.00     0.128 C 
HETATM    5  C   UNL     1       7.131  28.965  55.064  1.00  0.00     0.029 C 
HETATM    6  C   UNL     1       6.710  29.746  56.313  1.00  0.00     0.024 C 
HETATM    7  C   UNL     1       5.561  28.944  56.962  1.00  0.00     0.029 C 
HETATM    8  C   UNL     1       5.997  27.523  57.311  1.00  0.00     0.128 C 
HETATM    9  O   UNL     1       6.338  24.847  57.357  1.00  0.00    -0.247 OA
HETATM   10  H   UNL     1       6.818  25.222  54.300  1.00  0.00     0.171 HD
ENDROOT
BRANCH   1  11
HETATM   11  C   UNL     1       7.494  23.440  55.045  1.00  0.00     0.072 A 
HETATM   12  C   UNL     1       7.429  22.864  53.760  1.00  0.00     0.095 A 
HETATM   13  C   UNL     1       7.835  21.544  53.552  1.00  0.00     0.042 A 
HETATM   14  C   UNL     1       8.358  20.809  54.616  1.00  0.00     0.045 A 
HETATM   15  C   UNL     1       8.453  21.395  55.875  1.00  0.00     0.118 A 
HETATM   16  C   UNL     1       8.025  22.699  56.101  1.00  0.00     0.074 A 
HETATM   17  F   UNL     1       8.973  20.686  56.886  1.00  0.00    -0.206 F 
BRANCH  12  18
HETATM   18  O   UNL     1       6.887  23.636  52.758  1.00  0.00    -0.354 OA
HETATM   19  C   UNL     1       7.854  24.442  52.088  1.00  0.00     0.210 C 
ENDBRANCH  12  18
ENDBRANCH   1  11
BRANCH   6  20
HETATM   20  C   UNL     1       7.808  30.108  57.306  1.00  0.00    -0.026 A 
HETATM   21  C   UNL     1       7.785  30.918  58.507  1.00  0.00    -0.001 A 
HETATM   22  C   UNL     1       9.085  30.938  59.026  1.00  0.00     0.042 A 
HETATM   23  C   UNL     1       6.805  31.648  59.220  1.00  0.00     0.014 A 
HETATM   24  C   UNL     1       9.449  31.653  60.175  1.00  0.00     0.030 A 
HETATM   25  N   UNL     1       9.861  30.151  58.216  1.00  0.00    -0.365 N 
HETATM   26  C   UNL     1       8.458  32.372  60.840  1.00  0.00     0.002 A 
HETATM   27  C   UNL     1       7.151  32.367  60.374  1.00  0.00     0.001 A 
HETATM   28  H   UNL     1      10.846  29.978  58.360  1.00  0.00     0.165 HD
HETATM   29  C   UNL     1       9.107  29.627  57.208  1.00  0.00     0.096 A 
ENDBRANCH   6  20
TORSDOF 3
ENDMDL
MODEL 7
REMARK VINA RESULT:      -8.8      3.080      4.940
REMARK  3 active torsions:
REMARK  status: ('A' for Active; 'I' for Inactive)
REMARK    1  A    between atoms: O_2  and  C_3 
REMARK    2  A    between atoms: C_4  and  N_5 
REMARK       I    between atoms: N_5  and  C_6 
REMARK       I    between atoms: C_6  and  N_7 
REMARK    3  A    between atoms: C_10  and  C_11 
ROOT
HETATM    1  N   UNL     1       6.858  32.670  61.761  1.00  0.00    -0.306 N 
HETATM    2  C   UNL     1       7.545  31.528  61.421  1.00  0.00     0.323 C 
HETATM    3  N   UNL     1       7.608  31.314  60.033  1.00  0.00    -0.334 N 
HETATM    4  C   UNL     1       6.437  31.606  59.200  1.00  0.00     0.128 C 
HETATM    5  C   UNL     1       6.765  31.607  57.709  1.00  0.00     0.029 C 
HETATM    6  C   UNL     1       7.465  30.318  57.263  1.00  0.00     0.024 C 
HETATM    7  C   UNL     1       8.736  30.190  58.131  1.00  0.00     0.029 C 
HETATM    8  C   UNL     1       8.397  30.156  59.620  1.00  0.00     0.128 C 
HETATM    9  O   UNL     1       8.081  30.774  62.228  1.00  0.00    -0.247 OA
HETATM   10  H   UNL     1       6.898  33.420  61.083  1.00  0.00     0.171 HD
ENDROOT
BRANCH   1  11
HETATM   11  C   UNL     1       6.419  33.062  63.040  1.00  0.00     0.072 A 
HETATM   12  C   UNL     1       5.029  33.072  63.269  1.00  0.00     0.095 A 
HETATM   13  C   UNL     1       4.516  33.445  64.514  1.00  0.00     0.042 A 
HETATM   14  C   UNL     1       5.393  33.760  65.552  1.00  0.00     0.045 A 
HETATM   15  C   UNL     1       6.766  33.714  65.331  1.00  0.00     0.118 A 
HETATM   16  C   UNL     1       7.289  33.372  64.087  1.00  0.00     0.074 A 
HETATM   17  F   UNL     1       7.599  34.001  66.340  1.00  0.00    -0.206 F 
BRANCH  12  18
HETATM   18  O   UNL     1       4.219  32.768  62.199  1.00  0.00    -0.354 OA
HETATM   19  C   UNL     1       2.993  33.496  62.201  1.00  0.00     0.210 C 
ENDBRANCH  12  18
ENDBRANCH   1  11
BRANCH   6  20
HETATM   20  C   UNL     1       6.629  29.044  57.253  1.00  0.00    -0.026 A 
HETATM   21  C   UNL     1       7.012  27.648  57.211  1.00  0.00    -0.001 A 
HETATM   22  C   UNL     1       5.836  26.889  57.196  1.00  0.00     0.042 A 
HETATM   23  C   UNL     1       8.231  26.930  57.177  1.00  0.00     0.014 A 
HETATM   24  C   UNL     1       5.817  25.489  57.126  1.00  0.00     0.030 A 
HETATM   25  N   UNL     1       4.783  27.763  57.268  1.00  0.00    -0.365 N 
HETATM   26  C   UNL     1       7.038  24.820  57.079  1.00  0.00     0.002 A 
HETATM   27  C   UNL     1       8.232  25.528  57.109  1.00  0.00     0.001 A 
HETATM   28  H   UNL     1       3.811  27.490  57.284  1.00  0.00     0.165 HD
HETATM   29  C   UNL     1       5.242  29.046  57.335  1.00  0.00     0.096 A 
ENDBRANCH   6  20
TORSDOF 3
ENDMDL
MODEL 8
REMARK VINA RESULT:      -8.6      3.338      4.446
REMARK  3 active torsions:
REMARK  status: ('A' for Active; 'I' for Inactive)
REMARK    1  A    between atoms: O_2  and  C_3 
REMARK    2  A    between atoms: C_4  and  N_5 
REMARK       I    between atoms: N_5  and  C_6 
REMARK       I    between atoms: C_6  and  N_7 
REMARK    3  A    between atoms: C_10  and  C_11 
ROOT
HETATM    1  N   UNL     1       5.574  29.814  56.338  1.00  0.00    -0.306 N 
HETATM    2  C   UNL     1       5.014  28.560  56.277  1.00  0.00     0.323 C 
HETATM    3  N   UNL     1       5.913  27.536  56.626  1.00  0.00    -0.334 N 
HETATM    4  C   UNL     1       7.309  27.616  56.184  1.00  0.00     0.128 C 
HETATM    5  C   UNL     1       8.204  26.599  56.888  1.00  0.00     0.029 C 
HETATM    6  C   UNL     1       7.662  25.170  56.783  1.00  0.00     0.024 C 
HETATM    7  C   UNL     1       6.240  25.198  57.385  1.00  0.00     0.029 C 
HETATM    8  C   UNL     1       5.341  26.192  56.654  1.00  0.00     0.128 C 
HETATM    9  O   UNL     1       3.844  28.334  55.980  1.00  0.00    -0.247 OA
HETATM   10  H   UNL     1       6.310  29.929  57.021  1.00  0.00     0.171 HD
ENDROOT
BRANCH   1  11
HETATM   11  C   UNL     1       5.037  31.021  55.850  1.00  0.00     0.072 A 
HETATM   12  C   UNL     1       5.299  32.189  56.593  1.00  0.00     0.095 A 
HETATM   13  C   UNL     1       4.804  33.426  56.171  1.00  0.00     0.042 A 
HETATM   14  C   UNL     1       4.091  33.509  54.975  1.00  0.00     0.045 A 
HETATM   15  C   UNL     1       3.867  32.357  54.226  1.00  0.00     0.118 A 
HETATM   16  C   UNL     1       4.329  31.115  54.651  1.00  0.00     0.074 A 
HETATM   17  F   UNL     1       3.195  32.451  53.071  1.00  0.00    -0.206 F 
BRANCH  12  18
HETATM   18  O   UNL     1       5.994  32.036  57.771  1.00  0.00    -0.354 OA
HETATM   19  C   UNL     1       5.260  32.472  58.913  1.00  0.00     0.210 C 
ENDBRANCH  12  18
ENDBRANCH   1  11
BRANCH   6  20
HETATM   20  C   UNL     1       7.706  24.512  55.409  1.00  0.00    -0.026 A 
HETATM   21  C   UNL     1       7.746  23.119  55.015  1.00  0.00    -0.001 A 
HETATM   22  C   UNL     1       7.801  23.078  53.617  1.00  0.00     0.042 A 
HETATM   23  C   UNL     1       7.748  21.873  55.686  1.00  0.00     0.014 A 
HETATM   24  C   UNL     1       7.882  21.890  52.878  1.00  0.00     0.030 A 
HETATM   25  N   UNL     1       7.754  24.372  53.167  1.00  0.00    -0.365 N 
HETATM   26  C   UNL     1       7.897  20.685  53.577  1.00  0.00     0.002 A 
HETATM   27  C   UNL     1       7.826  20.673  54.964  1.00  0.00     0.001 A 
HETATM   28  H   UNL     1       7.769  24.641  52.194  1.00  0.00     0.165 HD
HETATM   29  C   UNL     1       7.665  25.232  54.222  1.00  0.00     0.096 A 
ENDBRANCH   6  20
TORSDOF 3
ENDMDL
MODEL 9
REMARK VINA RESULT:      -8.5      4.484      8.910
REMARK  3 active torsions:
REMARK  status: ('A' for Active; 'I' for Inactive)
REMARK    1  A    between atoms: O_2  and  C_3 
REMARK    2  A    between atoms: C_4  and  N_5 
REMARK       I    between atoms: N_5  and  C_6 
REMARK       I    between atoms: C_6  and  N_7 
REMARK    3  A    between atoms: C_10  and  C_11 
ROOT
HETATM    1  N   UNL     1       7.490  24.418  53.942  1.00  0.00    -0.306 N 
HETATM    2  C   UNL     1       6.288  25.079  53.846  1.00  0.00     0.323 C 
HETATM    3  N   UNL     1       6.420  26.477  53.916  1.00  0.00    -0.334 N 
HETATM    4  C   UNL     1       7.382  27.069  54.851  1.00  0.00     0.128 C 
HETATM    5  C   UNL     1       7.612  28.555  54.590  1.00  0.00     0.029 C 
HETATM    6  C   UNL     1       6.304  29.352  54.550  1.00  0.00     0.024 C 
HETATM    7  C   UNL     1       5.432  28.704  53.452  1.00  0.00     0.029 C 
HETATM    8  C   UNL     1       5.178  27.226  53.738  1.00  0.00     0.128 C 
HETATM    9  O   UNL     1       5.202  24.528  53.687  1.00  0.00    -0.247 OA
HETATM   10  H   UNL     1       8.292  24.919  53.586  1.00  0.00     0.171 HD
ENDROOT
BRANCH   1  11
HETATM   11  C   UNL     1       7.701  23.038  54.131  1.00  0.00     0.072 A 
HETATM   12  C   UNL     1       7.627  22.550  55.450  1.00  0.00     0.095 A 
HETATM   13  C   UNL     1       7.821  21.193  55.718  1.00  0.00     0.042 A 
HETATM   14  C   UNL     1       8.036  20.308  54.662  1.00  0.00     0.045 A 
HETATM   15  C   UNL     1       8.072  20.790  53.357  1.00  0.00     0.118 A 
HETATM   16  C   UNL     1       7.910  22.144  53.080  1.00  0.00     0.074 A 
HETATM   17  F   UNL     1       8.262  19.928  52.349  1.00  0.00    -0.206 F 
BRANCH  12  18
HETATM   18  O   UNL     1       7.429  23.478  56.448  1.00  0.00    -0.354 OA
HETATM   19  C   UNL     1       8.631  23.834  57.127  1.00  0.00     0.210 C 
ENDBRANCH  12  18
ENDBRANCH   1  11
BRANCH   6  20
HETATM   20  C   UNL     1       5.557  29.524  55.868  1.00  0.00    -0.026 A 
HETATM   21  C   UNL     1       4.973  30.693  56.493  1.00  0.00    -0.001 A 
HETATM   22  C   UNL     1       4.428  30.288  57.717  1.00  0.00     0.042 A 
HETATM   23  C   UNL     1       4.845  32.063  56.163  1.00  0.00     0.014 A 
HETATM   24  C   UNL     1       3.803  31.164  58.614  1.00  0.00     0.030 A 
HETATM   25  N   UNL     1       4.626  28.937  57.826  1.00  0.00    -0.365 N 
HETATM   26  C   UNL     1       3.710  32.509  58.259  1.00  0.00     0.002 A 
HETATM   27  C   UNL     1       4.220  32.955  57.048  1.00  0.00     0.001 A 
HETATM   28  H   UNL     1       4.324  28.375  58.610  1.00  0.00     0.165 HD
HETATM   29  C   UNL     1       5.268  28.465  56.719  1.00  0.00     0.096 A 
ENDBRANCH   6  20
TORSDOF 3
ENDMDL
MODEL 10
REMARK VINA RESULT:      -8.5      3.552      8.785
REMARK  3 active torsions:
REMARK  status: ('A' for Active; 'I' for Inactive)
REMARK    1  A    between atoms: O_2  and  C_3 
REMARK    2  A    between atoms: C_4  and  N_5 
REMARK       I    between atoms: N_5  and  C_6 
REMARK       I    between atoms: C_6  and  N_7 
REMARK    3  A    between atoms: C_10  and  C_11 
ROOT
HETATM    1  N   UNL     1       7.238  24.790  54.488  1.00  0.00    -0.306 N 
HETATM    2  C   UNL     1       6.412  25.292  55.465  1.00  0.00     0.323 C 
HETATM    3  N   UNL     1       6.262  26.689  55.397  1.00  0.00    -0.334 N 
HETATM    4  C   UNL     1       7.420  27.527  55.071  1.00  0.00     0.128 C 
HETATM    5  C   UNL     1       7.028  28.966  54.747  1.00  0.00     0.029 C 
HETATM    6  C   UNL     1       6.167  29.600  55.845  1.00  0.00     0.024 C 
HETATM    7  C   UNL     1       4.930  28.689  56.008  1.00  0.00     0.029 C 
HETATM    8  C   UNL     1       5.329  27.260  56.366  1.00  0.00     0.128 C 
HETATM    9  O   UNL     1       5.830  24.609  56.303  1.00  0.00    -0.247 OA
HETATM   10  H   UNL     1       7.253  25.309  53.620  1.00  0.00     0.171 HD
ENDROOT
BRANCH   1  11
HETATM   11  C   UNL     1       7.775  23.491  54.399  1.00  0.00     0.072 A 
HETATM   12  C   UNL     1       8.759  23.135  55.343  1.00  0.00     0.095 A 
HETATM   13  C   UNL     1       9.337  21.863  55.323  1.00  0.00     0.042 A 
HETATM   14  C   UNL     1       8.896  20.923  54.392  1.00  0.00     0.045 A 
HETATM   15  C   UNL     1       7.899  21.268  53.485  1.00  0.00     0.118 A 
HETATM   16  C   UNL     1       7.336  22.541  53.476  1.00  0.00     0.074 A 
HETATM   17  F   UNL     1       7.471  20.352  52.606  1.00  0.00    -0.206 F 
BRANCH  12  18
HETATM   18  O   UNL     1       9.161  24.114  56.223  1.00  0.00    -0.354 OA
HETATM   19  C   UNL     1       8.848  23.809  57.580  1.00  0.00     0.210 C 
ENDBRANCH  12  18
ENDBRANCH   1  11
BRANCH   6  20
HETATM   20  C   UNL     1       6.852  29.905  57.172  1.00  0.00    -0.026 A 
HETATM   21  C   UNL     1       6.558  30.883  58.199  1.00  0.00    -0.001 A 
HETATM   22  C   UNL     1       7.526  30.745  59.201  1.00  0.00     0.042 A 
HETATM   23  C   UNL     1       5.578  31.885  58.396  1.00  0.00     0.014 A 
HETATM   24  C   UNL     1       7.577  31.552  60.345  1.00  0.00     0.030 A 
HETATM   25  N   UNL     1       8.348  29.711  58.837  1.00  0.00    -0.365 N 
HETATM   26  C   UNL     1       6.602  32.538  60.495  1.00  0.00     0.002 A 
HETATM   27  C   UNL     1       5.612  32.701  59.537  1.00  0.00     0.001 A 
HETATM   28  H   UNL     1       9.133  29.384  59.382  1.00  0.00     0.165 HD
HETATM   29  C   UNL     1       7.939  29.182  57.648  1.00  0.00     0.096 A 
ENDBRANCH   6  20
TORSDOF 3
ENDMDL
