MODEL 1
REMARK VINA RESULT:      -7.6      0.000      0.000
REMARK  5 active torsions:
REMARK  status: ('A' for Active; 'I' for Inactive)
REMARK    1  A    between atoms: C_2  and  O_3 
REMARK    2  A    between atoms: C_4  and  C_5 
REMARK    3  A    between atoms: C_5  and  O_6 
REMARK    4  A    between atoms: C_9  and  C_10 
REMARK    5  A    between atoms: C_22  and  O_23 
ROOT
HETATM    1  C   UNL     1       7.307  25.785  57.668  1.00  0.00     0.047 C 
HETATM    2  C   UNL     1       6.766  25.718  56.230  1.00  0.00     0.073 C 
HETATM    3  C   UNL     1       7.599  26.626  55.264  1.00  0.00     0.133 C 
HETATM    4  C   UNL     1       7.308  28.158  55.289  1.00  0.00     0.074 C 
HETATM    5  C   UNL     1       5.918  28.456  55.732  1.00  0.00     0.030 A 
HETATM    6  C   UNL     1       5.020  27.499  56.155  1.00  0.00     0.042 A 
HETATM    7  N   UNL     1       3.849  28.147  56.431  1.00  0.00    -0.279 N 
HETATM    8  H   UNL     1       2.970  27.756  56.756  1.00  0.00     0.189 HD
HETATM    9  N   UNL     1       3.919  29.475  56.197  1.00  0.00    -0.149 NA
HETATM   10  C   UNL     1       5.162  29.629  55.758  1.00  0.00     0.190 A 
HETATM   11  C   UNL     1       5.244  26.037  56.227  1.00  0.00     0.097 C 
ENDROOT
BRANCH   4  12
HETATM   12  C   UNL     1       8.291  28.939  56.157  1.00  0.00    -0.047 A 
HETATM   13  C   UNL     1       8.044  29.339  57.481  1.00  0.00     0.027 A 
HETATM   14  C   UNL     1       9.014  30.033  58.210  1.00  0.00     0.011 A 
HETATM   15 BR   UNL     1       8.651  30.550  59.993  1.00  0.00    -0.051 Br
HETATM   16  C   UNL     1      10.244  30.344  57.640  1.00  0.00     0.019 A 
HETATM   17  C   UNL     1      10.508  29.958  56.330  1.00  0.00     0.002 A 
HETATM   18  C   UNL     1       9.545  29.258  55.599  1.00  0.00     0.008 A 
ENDBRANCH   4  12
BRANCH   3  19
HETATM   19  C   UNL     1       7.478  26.121  53.839  1.00  0.00     0.266 C 
HETATM   20  O   UNL     1       7.987  25.068  53.467  1.00  0.00    -0.265 OA
BRANCH  19  21
HETATM   21  O   UNL     1       6.746  26.947  53.048  1.00  0.00    -0.326 OA
HETATM   22  C   UNL     1       5.579  26.346  52.485  1.00  0.00     0.213 C 
ENDBRANCH  19  21
ENDBRANCH   3  19
BRANCH   2  23
HETATM   23  O   UNL     1       6.905  24.336  55.851  1.00  0.00    -0.389 OA
HETATM   24  H   UNL     1       6.216  24.119  55.196  1.00  0.00     0.210 HD
ENDBRANCH   2  23
BRANCH  10  25
HETATM   25  O   UNL     1       5.492  30.866  55.406  1.00  0.00    -0.343 OA
HETATM   26  H   UNL     1       6.449  30.918  55.566  1.00  0.00     0.219 HD
ENDBRANCH  10  25
TORSDOF 5
ENDMDL
MODEL 2
REMARK VINA RESULT:      -7.1      7.277      9.951
REMARK  5 active torsions:
REMARK  status: ('A' for Active; 'I' for Inactive)
REMARK    1  A    between atoms: C_2  and  O_3 
REMARK    2  A    between atoms: C_4  and  C_5 
REMARK    3  A    between atoms: C_5  and  O_6 
REMARK    4  A    between atoms: C_9  and  C_10 
REMARK    5  A    between atoms: C_22  and  O_23 
ROOT
HETATM    1  C   UNL     1       5.465  36.450  62.160  1.00  0.00     0.047 C 
HETATM    2  C   UNL     1       4.094  35.894  62.584  1.00  0.00     0.073 C 
HETATM    3  C   UNL     1       4.237  34.515  63.308  1.00  0.00     0.133 C 
HETATM    4  C   UNL     1       4.458  33.254  62.417  1.00  0.00     0.074 C 
HETATM    5  C   UNL     1       3.896  33.430  61.050  1.00  0.00     0.030 A 
HETATM    6  C   UNL     1       3.324  34.599  60.595  1.00  0.00     0.042 A 
HETATM    7  N   UNL     1       2.888  34.360  59.322  1.00  0.00    -0.279 N 
HETATM    8  H   UNL     1       2.411  34.992  58.686  1.00  0.00     0.189 HD
HETATM    9  N   UNL     1       3.124  33.093  58.919  1.00  0.00    -0.149 NA
HETATM   10  C   UNL     1       3.708  32.553  59.981  1.00  0.00     0.190 A 
HETATM   11  C   UNL     1       3.142  35.858  61.355  1.00  0.00     0.097 C 
ENDROOT
BRANCH   4  12
HETATM   12  C   UNL     1       5.926  32.850  62.309  1.00  0.00    -0.047 A 
HETATM   13  C   UNL     1       6.590  32.567  61.103  1.00  0.00     0.027 A 
HETATM   14  C   UNL     1       7.946  32.226  61.097  1.00  0.00     0.011 A 
HETATM   15 BR   UNL     1       8.810  31.859  59.456  1.00  0.00    -0.051 Br
HETATM   16  C   UNL     1       8.666  32.156  62.285  1.00  0.00     0.019 A 
HETATM   17  C   UNL     1       8.028  32.430  63.490  1.00  0.00     0.002 A 
HETATM   18  C   UNL     1       6.674  32.780  63.501  1.00  0.00     0.008 A 
ENDBRANCH   4  12
BRANCH   3  19
HETATM   19  C   UNL     1       3.046  34.277  64.217  1.00  0.00     0.266 C 
HETATM   20  O   UNL     1       2.017  33.732  63.828  1.00  0.00    -0.265 OA
BRANCH  19  21
HETATM   21  O   UNL     1       3.256  34.716  65.485  1.00  0.00    -0.326 OA
HETATM   22  C   UNL     1       4.372  34.113  66.142  1.00  0.00     0.213 C 
ENDBRANCH  19  21
ENDBRANCH   3  19
BRANCH   2  23
HETATM   23  O   UNL     1       3.566  36.878  63.494  1.00  0.00    -0.389 OA
HETATM   24  H   UNL     1       4.018  36.785  64.353  1.00  0.00     0.210 HD
ENDBRANCH   2  23
BRANCH  10  25
HETATM   25  O   UNL     1       4.016  31.266  59.869  1.00  0.00    -0.343 OA
HETATM   26  H   UNL     1       3.312  30.894  59.313  1.00  0.00     0.219 HD
ENDBRANCH  10  25
TORSDOF 5
ENDMDL
MODEL 3
REMARK VINA RESULT:      -7.1      3.697      5.833
REMARK  5 active torsions:
REMARK  status: ('A' for Active; 'I' for Inactive)
REMARK    1  A    between atoms: C_2  and  O_3 
REMARK    2  A    between atoms: C_4  and  C_5 
REMARK    3  A    between atoms: C_5  and  O_6 
REMARK    4  A    between atoms: C_9  and  C_10 
REMARK    5  A    between atoms: C_22  and  O_23 
ROOT
HETATM    1  C   UNL     1       8.307  27.797  53.901  1.00  0.00     0.047 C 
HETATM    2  C   UNL     1       6.838  28.113  54.226  1.00  0.00     0.073 C 
HETATM    3  C   UNL     1       6.131  26.898  54.913  1.00  0.00     0.133 C 
HETATM    4  C   UNL     1       5.662  25.727  53.997  1.00  0.00     0.074 C 
HETATM    5  C   UNL     1       5.387  26.181  52.605  1.00  0.00     0.030 A 
HETATM    6  C   UNL     1       5.605  27.466  52.156  1.00  0.00     0.042 A 
HETATM    7  N   UNL     1       5.195  27.507  50.853  1.00  0.00    -0.279 N 
HETATM    8  H   UNL     1       5.199  28.293  50.210  1.00  0.00     0.189 HD
HETATM    9  N   UNL     1       4.702  26.324  50.424  1.00  0.00    -0.149 NA
HETATM   10  C   UNL     1       4.809  25.556  51.500  1.00  0.00     0.190 A 
HETATM   11  C   UNL     1       6.113  28.613  52.944  1.00  0.00     0.097 C 
ENDROOT
BRANCH   4  12
HETATM   12  C   UNL     1       6.650  24.564  53.961  1.00  0.00    -0.047 A 
HETATM   13  C   UNL     1       6.883  23.680  55.028  1.00  0.00     0.027 A 
HETATM   14  C   UNL     1       7.792  22.627  54.897  1.00  0.00     0.011 A 
HETATM   15 BR   UNL     1       8.075  21.451  56.351  1.00  0.00    -0.051 Br
HETATM   16  C   UNL     1       8.488  22.432  53.709  1.00  0.00     0.019 A 
HETATM   17  C   UNL     1       8.274  23.297  52.641  1.00  0.00     0.002 A 
HETATM   18  C   UNL     1       7.360  24.347  52.763  1.00  0.00     0.008 A 
ENDBRANCH   4  12
BRANCH   3  19
HETATM   19  C   UNL     1       4.955  27.379  55.744  1.00  0.00     0.266 C 
HETATM   20  O   UNL     1       4.116  28.161  55.309  1.00  0.00    -0.265 OA
BRANCH  19  21
HETATM   21  O   UNL     1       4.938  26.842  56.991  1.00  0.00    -0.326 OA
HETATM   22  C   UNL     1       6.211  26.396  57.460  1.00  0.00     0.213 C 
ENDBRANCH  19  21
ENDBRANCH   3  19
BRANCH   2  23
HETATM   23  O   UNL     1       6.897  29.229  55.135  1.00  0.00    -0.389 OA
HETATM   24  H   UNL     1       7.636  29.090  55.755  1.00  0.00     0.210 HD
ENDBRANCH   2  23
BRANCH  10  25
HETATM   25  O   UNL     1       4.345  24.319  51.365  1.00  0.00    -0.343 OA
HETATM   26  H   UNL     1       4.271  23.985  52.274  1.00  0.00     0.219 HD
ENDBRANCH  10  25
TORSDOF 5
ENDMDL
MODEL 4
REMARK VINA RESULT:      -7.0      2.857      4.188
REMARK  5 active torsions:
REMARK  status: ('A' for Active; 'I' for Inactive)
REMARK    1  A    between atoms: C_2  and  O_3 
REMARK    2  A    between atoms: C_4  and  C_5 
REMARK    3  A    between atoms: C_5  and  O_6 
REMARK    4  A    between atoms: C_9  and  C_10 
REMARK    5  A    between atoms: C_22  and  O_23 
ROOT
HETATM    1  C   UNL     1       5.249  29.263  55.871  1.00  0.00     0.047 C 
HETATM    2  C   UNL     1       6.093  27.978  55.934  1.00  0.00     0.073 C 
HETATM    3  C   UNL     1       6.700  27.764  57.361  1.00  0.00     0.133 C 
HETATM    4  C   UNL     1       7.963  28.597  57.737  1.00  0.00     0.074 C 
HETATM    5  C   UNL     1       8.755  28.985  56.538  1.00  0.00     0.030 A 
HETATM    6  C   UNL     1       8.374  28.717  55.241  1.00  0.00     0.042 A 
HETATM    7  N   UNL     1       9.369  29.182  54.428  1.00  0.00    -0.279 N 
HETATM    8  H   UNL     1       9.430  29.146  53.415  1.00  0.00     0.189 HD
HETATM    9  N   UNL     1      10.395  29.726  55.119  1.00  0.00    -0.149 NA
HETATM   10  C   UNL     1      10.010  29.575  56.380  1.00  0.00     0.190 A 
HETATM   11  C   UNL     1       7.157  27.995  54.801  1.00  0.00     0.097 C 
ENDROOT
BRANCH   4  12
HETATM   12  C   UNL     1       7.634  29.847  58.549  1.00  0.00    -0.047 A 
HETATM   13  C   UNL     1       8.295  30.232  59.727  1.00  0.00     0.027 A 
HETATM   14  C   UNL     1       7.942  31.409  60.393  1.00  0.00     0.011 A 
HETATM   15 BR   UNL     1       8.859  31.901  61.972  1.00  0.00    -0.051 Br
HETATM   16  C   UNL     1       6.924  32.223  59.906  1.00  0.00     0.019 A 
HETATM   17  C   UNL     1       6.255  31.859  58.743  1.00  0.00     0.002 A 
HETATM   18  C   UNL     1       6.610  30.688  58.068  1.00  0.00     0.008 A 
ENDBRANCH   4  12
BRANCH   3  19
HETATM   19  C   UNL     1       6.990  26.292  57.589  1.00  0.00     0.266 C 
HETATM   20  O   UNL     1       6.112  25.436  57.569  1.00  0.00    -0.265 OA
BRANCH  19  21
HETATM   21  O   UNL     1       8.308  26.042  57.797  1.00  0.00    -0.326 OA
HETATM   22  C   UNL     1       8.741  24.751  57.366  1.00  0.00     0.213 C 
ENDBRANCH  19  21
ENDBRANCH   3  19
BRANCH   2  23
HETATM   23  O   UNL     1       5.169  26.918  55.626  1.00  0.00    -0.389 OA
HETATM   24  H   UNL     1       4.737  27.116  54.774  1.00  0.00     0.210 HD
ENDBRANCH   2  23
BRANCH  10  25
HETATM   25  O   UNL     1      10.876  29.997  57.293  1.00  0.00    -0.343 OA
HETATM   26  H   UNL     1      10.434  29.833  58.143  1.00  0.00     0.219 HD
ENDBRANCH  10  25
TORSDOF 5
ENDMDL
MODEL 5
REMARK VINA RESULT:      -7.0      8.632     11.375
REMARK  5 active torsions:
REMARK  status: ('A' for Active; 'I' for Inactive)
REMARK    1  A    between atoms: C_2  and  O_3 
REMARK    2  A    between atoms: C_4  and  C_5 
REMARK    3  A    between atoms: C_5  and  O_6 
REMARK    4  A    between atoms: C_9  and  C_10 
REMARK    5  A    between atoms: C_22  and  O_23 
ROOT
HETATM    1  C   UNL     1       6.179  36.959  63.031  1.00  0.00     0.047 C 
HETATM    2  C   UNL     1       5.131  36.675  64.120  1.00  0.00     0.073 C 
HETATM    3  C   UNL     1       5.382  35.292  64.807  1.00  0.00     0.133 C 
HETATM    4  C   UNL     1       4.914  34.015  64.043  1.00  0.00     0.074 C 
HETATM    5  C   UNL     1       3.784  34.300  63.116  1.00  0.00     0.030 A 
HETATM    6  C   UNL     1       3.267  35.558  62.893  1.00  0.00     0.042 A 
HETATM    7  N   UNL     1       2.222  35.410  62.025  1.00  0.00    -0.279 N 
HETATM    8  H   UNL     1       1.606  36.124  61.647  1.00  0.00     0.189 HD
HETATM    9  N   UNL     1       2.010  34.122  61.678  1.00  0.00    -0.149 NA
HETATM   10  C   UNL     1       2.945  33.477  62.364  1.00  0.00     0.190 A 
HETATM   11  C   UNL     1       3.703  36.826  63.524  1.00  0.00     0.097 C 
ENDROOT
BRANCH   4  12
HETATM   12  C   UNL     1       6.041  33.336  63.269  1.00  0.00    -0.047 A 
HETATM   13  C   UNL     1       5.998  33.030  61.898  1.00  0.00     0.027 A 
HETATM   14  C   UNL     1       7.088  32.428  61.266  1.00  0.00     0.011 A 
HETATM   15 BR   UNL     1       6.998  32.037  59.418  1.00  0.00    -0.051 Br
HETATM   16  C   UNL     1       8.240  32.114  61.980  1.00  0.00     0.019 A 
HETATM   17  C   UNL     1       8.304  32.407  63.339  1.00  0.00     0.002 A 
HETATM   18  C   UNL     1       7.219  33.017  63.974  1.00  0.00     0.008 A 
ENDBRANCH   4  12
BRANCH   3  19
HETATM   19  C   UNL     1       4.781  35.284  66.200  1.00  0.00     0.266 C 
HETATM   20  O   UNL     1       3.793  35.949  66.496  1.00  0.00    -0.265 OA
BRANCH  19  21
HETATM   21  O   UNL     1       5.445  34.464  67.055  1.00  0.00    -0.326 OA
HETATM   22  C   UNL     1       5.810  35.071  68.295  1.00  0.00     0.213 C 
ENDBRANCH  19  21
ENDBRANCH   3  19
BRANCH   2  23
HETATM   23  O   UNL     1       5.300  37.739  65.075  1.00  0.00    -0.389 OA
HETATM   24  H   UNL     1       6.253  37.921  65.177  1.00  0.00     0.210 HD
ENDBRANCH   2  23
BRANCH  10  25
HETATM   25  O   UNL     1       2.935  32.156  62.236  1.00  0.00    -0.343 OA
HETATM   26  H   UNL     1       3.842  31.929  61.974  1.00  0.00     0.219 HD
ENDBRANCH  10  25
TORSDOF 5
ENDMDL
MODEL 6
REMARK VINA RESULT:      -6.8      7.789      9.667
REMARK  5 active torsions:
REMARK  status: ('A' for Active; 'I' for Inactive)
REMARK    1  A    between atoms: C_2  and  O_3 
REMARK    2  A    between atoms: C_4  and  C_5 
REMARK    3  A    between atoms: C_5  and  O_6 
REMARK    4  A    between atoms: C_9  and  C_10 
REMARK    5  A    between atoms: C_22  and  O_23 
ROOT
HETATM    1  C   UNL     1       3.666  31.743  61.657  1.00  0.00     0.047 C 
HETATM    2  C   UNL     1       3.542  33.269  61.799  1.00  0.00     0.073 C 
HETATM    3  C   UNL     1       4.838  33.995  61.306  1.00  0.00     0.133 C 
HETATM    4  C   UNL     1       6.062  34.017  62.272  1.00  0.00     0.074 C 
HETATM    5  C   UNL     1       5.650  33.912  63.699  1.00  0.00     0.030 A 
HETATM    6  C   UNL     1       4.349  33.729  64.116  1.00  0.00     0.042 A 
HETATM    7  N   UNL     1       4.365  33.729  65.482  1.00  0.00    -0.279 N 
HETATM    8  H   UNL     1       3.585  33.628  66.125  1.00  0.00     0.189 HD
HETATM    9  N   UNL     1       5.602  33.920  65.989  1.00  0.00    -0.149 NA
HETATM   10  C   UNL     1       6.348  34.048  64.900  1.00  0.00     0.190 A 
HETATM   11  C   UNL     1       3.144  33.628  63.259  1.00  0.00     0.097 C 
ENDROOT
BRANCH   4  12
HETATM   12  C   UNL     1       7.086  32.928  61.962  1.00  0.00    -0.047 A 
HETATM   13  C   UNL     1       7.821  32.838  60.768  1.00  0.00     0.027 A 
HETATM   14  C   UNL     1       8.757  31.818  60.580  1.00  0.00     0.011 A 
HETATM   15 BR   UNL     1       9.734  31.732  58.963  1.00  0.00    -0.051 Br
HETATM   16  C   UNL     1       8.981  30.867  61.570  1.00  0.00     0.019 A 
HETATM   17  C   UNL     1       8.263  30.937  62.760  1.00  0.00     0.002 A 
HETATM   18  C   UNL     1       7.331  31.960  62.956  1.00  0.00     0.008 A 
ENDBRANCH   4  12
BRANCH   3  19
HETATM   19  C   UNL     1       4.512  35.416  60.885  1.00  0.00     0.266 C 
HETATM   20  O   UNL     1       3.940  35.678  59.832  1.00  0.00    -0.265 OA
BRANCH  19  21
HETATM   21  O   UNL     1       4.908  36.339  61.799  1.00  0.00    -0.326 OA
HETATM   22  C   UNL     1       3.851  37.143  62.324  1.00  0.00     0.213 C 
ENDBRANCH  19  21
ENDBRANCH   3  19
BRANCH   2  23
HETATM   23  O   UNL     1       2.427  33.625  60.961  1.00  0.00    -0.389 OA
HETATM   24  H   UNL     1       2.338  32.957  60.256  1.00  0.00     0.210 HD
ENDBRANCH   2  23
BRANCH  10  25
HETATM   25  O   UNL     1       7.634  34.293  65.116  1.00  0.00    -0.343 OA
HETATM   26  H   UNL     1       7.640  35.030  65.749  1.00  0.00     0.219 HD
ENDBRANCH  10  25
TORSDOF 5
ENDMDL
MODEL 7
REMARK VINA RESULT:      -6.6      8.536     10.580
REMARK  5 active torsions:
REMARK  status: ('A' for Active; 'I' for Inactive)
REMARK    1  A    between atoms: C_2  and  O_3 
REMARK    2  A    between atoms: C_4  and  C_5 
REMARK    3  A    between atoms: C_5  and  O_6 
REMARK    4  A    between atoms: C_9  and  C_10 
REMARK    5  A    between atoms: C_22  and  O_23 
ROOT
HETATM    1  C   UNL     1       4.445  34.383  59.578  1.00  0.00     0.047 C 
HETATM    2  C   UNL     1       3.965  35.662  60.285  1.00  0.00     0.073 C 
HETATM    3  C   UNL     1       4.986  36.127  61.376  1.00  0.00     0.133 C 
HETATM    4  C   UNL     1       4.966  35.380  62.744  1.00  0.00     0.074 C 
HETATM    5  C   UNL     1       3.631  34.790  63.040  1.00  0.00     0.030 A 
HETATM    6  C   UNL     1       2.562  34.824  62.170  1.00  0.00     0.042 A 
HETATM    7  N   UNL     1       1.511  34.228  62.808  1.00  0.00    -0.279 N 
HETATM    8  H   UNL     1       0.563  34.086  62.472  1.00  0.00     0.189 HD
HETATM    9  N   UNL     1       1.822  33.820  64.057  1.00  0.00    -0.149 NA
HETATM   10  C   UNL     1       3.091  34.188  64.177  1.00  0.00     0.190 A 
HETATM   11  C   UNL     1       2.524  35.451  60.828  1.00  0.00     0.097 C 
ENDROOT
BRANCH   4  12
HETATM   12  C   UNL     1       6.031  34.290  62.845  1.00  0.00    -0.047 A 
HETATM   13  C   UNL     1       6.405  33.439  61.792  1.00  0.00     0.027 A 
HETATM   14  C   UNL     1       7.409  32.483  61.969  1.00  0.00     0.011 A 
HETATM   15 BR   UNL     1       7.892  31.358  60.527  1.00  0.00    -0.051 Br
HETATM   16  C   UNL     1       8.057  32.351  63.192  1.00  0.00     0.019 A 
HETATM   17  C   UNL     1       7.701  33.183  64.249  1.00  0.00     0.002 A 
HETATM   18  C   UNL     1       6.703  34.146  64.075  1.00  0.00     0.008 A 
ENDBRANCH   4  12
BRANCH   3  19
HETATM   19  C   UNL     1       4.843  37.618  61.623  1.00  0.00     0.266 C 
HETATM   20  O   UNL     1       4.149  38.073  62.526  1.00  0.00    -0.265 OA
BRANCH  19  21
HETATM   21  O   UNL     1       5.570  38.366  60.754  1.00  0.00    -0.326 OA
HETATM   22  C   UNL     1       6.794  38.871  61.289  1.00  0.00     0.213 C 
ENDBRANCH  19  21
ENDBRANCH   3  19
BRANCH   2  23
HETATM   23  O   UNL     1       3.878  36.647  59.238  1.00  0.00    -0.389 OA
HETATM   24  H   UNL     1       3.663  36.196  58.400  1.00  0.00     0.210 HD
ENDBRANCH   2  23
BRANCH  10  25
HETATM   25  O   UNL     1       3.647  33.937  65.356  1.00  0.00    -0.343 OA
HETATM   26  H   UNL     1       4.030  33.049  65.262  1.00  0.00     0.219 HD
ENDBRANCH  10  25
TORSDOF 5
ENDMDL
MODEL 8
REMARK VINA RESULT:      -6.5      3.510      6.007
REMARK  5 active torsions:
REMARK  status: ('A' for Active; 'I' for Inactive)
REMARK    1  A    between atoms: C_2  and  O_3 
REMARK    2  A    between atoms: C_4  and  C_5 
REMARK    3  A    between atoms: C_5  and  O_6 
REMARK    4  A    between atoms: C_9  and  C_10 
REMARK    5  A    between atoms: C_22  and  O_23 
ROOT
HETATM    1  C   UNL     1       4.989  27.003  56.811  1.00  0.00     0.047 C 
HETATM    2  C   UNL     1       6.481  27.318  57.008  1.00  0.00     0.073 C 
HETATM    3  C   UNL     1       7.192  27.591  55.641  1.00  0.00     0.133 C 
HETATM    4  C   UNL     1       7.582  26.354  54.775  1.00  0.00     0.074 C 
HETATM    5  C   UNL     1       7.793  25.135  55.603  1.00  0.00     0.030 A 
HETATM    6  C   UNL     1       7.585  25.081  56.965  1.00  0.00     0.042 A 
HETATM    7  N   UNL     1       7.926  23.822  57.370  1.00  0.00    -0.279 N 
HETATM    8  H   UNL     1       7.908  23.430  58.307  1.00  0.00     0.189 HD
HETATM    9  N   UNL     1       8.366  23.048  56.355  1.00  0.00    -0.149 NA
HETATM   10  C   UNL     1       8.296  23.866  55.313  1.00  0.00     0.190 A 
HETATM   11  C   UNL     1       7.148  26.190  57.845  1.00  0.00     0.097 C 
ENDROOT
BRANCH   4  12
HETATM   12  C   UNL     1       6.564  26.048  53.680  1.00  0.00    -0.047 A 
HETATM   13  C   UNL     1       6.392  26.811  52.513  1.00  0.00     0.027 A 
HETATM   14  C   UNL     1       5.449  26.442  51.550  1.00  0.00     0.011 A 
HETATM   15 BR   UNL     1       5.249  27.488  49.987  1.00  0.00    -0.051 Br
HETATM   16  C   UNL     1       4.657  25.312  51.727  1.00  0.00     0.019 A 
HETATM   17  C   UNL     1       4.810  24.543  52.876  1.00  0.00     0.002 A 
HETATM   18  C   UNL     1       5.758  24.903  53.839  1.00  0.00     0.008 A 
ENDBRANCH   4  12
BRANCH   3  19
HETATM   19  C   UNL     1       8.422  28.454  55.856  1.00  0.00     0.266 C 
HETATM   20  O   UNL     1       8.834  29.237  55.006  1.00  0.00    -0.265 OA
BRANCH  19  21
HETATM   21  O   UNL     1       8.987  28.269  57.076  1.00  0.00    -0.326 OA
HETATM   22  C   UNL     1       9.849  29.329  57.495  1.00  0.00     0.213 C 
ENDBRANCH  19  21
ENDBRANCH   3  19
BRANCH   2  23
HETATM   23  O   UNL     1       6.498  28.508  57.820  1.00  0.00    -0.389 OA
HETATM   24  H   UNL     1       7.340  28.541  58.310  1.00  0.00     0.210 HD
ENDBRANCH   2  23
BRANCH  10  25
HETATM   25  O   UNL     1       8.721  23.359  54.161  1.00  0.00    -0.343 OA
HETATM   26  H   UNL     1       9.065  22.481  54.393  1.00  0.00     0.219 HD
ENDBRANCH  10  25
TORSDOF 5
ENDMDL
MODEL 9
REMARK VINA RESULT:      -6.4      8.520     10.659
REMARK  5 active torsions:
REMARK  status: ('A' for Active; 'I' for Inactive)
REMARK    1  A    between atoms: C_2  and  O_3 
REMARK    2  A    between atoms: C_4  and  C_5 
REMARK    3  A    between atoms: C_5  and  O_6 
REMARK    4  A    between atoms: C_9  and  C_10 
REMARK    5  A    between atoms: C_22  and  O_23 
ROOT
HETATM    1  C   UNL     1       3.457  32.922  62.496  1.00  0.00     0.047 C 
HETATM    2  C   UNL     1       4.819  33.119  61.810  1.00  0.00     0.073 C 
HETATM    3  C   UNL     1       5.977  33.221  62.859  1.00  0.00     0.133 C 
HETATM    4  C   UNL     1       6.163  34.584  63.593  1.00  0.00     0.074 C 
HETATM    5  C   UNL     1       5.660  35.729  62.784  1.00  0.00     0.030 A 
HETATM    6  C   UNL     1       5.024  35.595  61.569  1.00  0.00     0.042 A 
HETATM    7  N   UNL     1       4.756  36.857  61.119  1.00  0.00    -0.279 N 
HETATM    8  H   UNL     1       4.304  37.139  60.254  1.00  0.00     0.189 HD
HETATM    9  N   UNL     1       5.196  37.816  61.961  1.00  0.00    -0.149 NA
HETATM   10  C   UNL     1       5.752  37.112  62.939  1.00  0.00     0.190 A 
HETATM   11  C   UNL     1       4.747  34.333  60.842  1.00  0.00     0.097 C 
ENDROOT
BRANCH   4  12
HETATM   12  C   UNL     1       5.508  34.615  64.971  1.00  0.00    -0.047 A 
HETATM   13  C   UNL     1       6.180  34.371  66.181  1.00  0.00     0.027 A 
HETATM   14  C   UNL     1       5.503  34.444  67.401  1.00  0.00     0.011 A 
HETATM   15 BR   UNL     1       6.440  34.117  69.011  1.00  0.00    -0.051 Br
HETATM   16  C   UNL     1       4.148  34.756  67.445  1.00  0.00     0.019 A 
HETATM   17  C   UNL     1       3.463  34.999  66.259  1.00  0.00     0.002 A 
HETATM   18  C   UNL     1       4.138  34.936  65.036  1.00  0.00     0.008 A 
ENDBRANCH   4  12
BRANCH   3  19
HETATM   19  C   UNL     1       7.294  32.815  62.224  1.00  0.00     0.266 C 
HETATM   20  O   UNL     1       7.596  33.126  61.076  1.00  0.00    -0.265 OA
BRANCH  19  21
HETATM   21  O   UNL     1       8.082  32.095  63.063  1.00  0.00    -0.326 OA
HETATM   22  C   UNL     1       8.440  30.802  62.575  1.00  0.00     0.213 C 
ENDBRANCH  19  21
ENDBRANCH   3  19
BRANCH   2  23
HETATM   23  O   UNL     1       4.992  31.944  60.996  1.00  0.00    -0.389 OA
HETATM   24  H   UNL     1       4.139  31.477  60.935  1.00  0.00     0.210 HD
ENDBRANCH   2  23
BRANCH  10  25
HETATM   25  O   UNL     1       6.316  37.828  63.905  1.00  0.00    -0.343 OA
HETATM   26  H   UNL     1       7.268  37.664  63.807  1.00  0.00     0.219 HD
ENDBRANCH  10  25
TORSDOF 5
ENDMDL
MODEL 10
REMARK VINA RESULT:      -6.4      7.991     10.004
REMARK  5 active torsions:
REMARK  status: ('A' for Active; 'I' for Inactive)
REMARK    1  A    between atoms: C_2  and  O_3 
REMARK    2  A    between atoms: C_4  and  C_5 
REMARK    3  A    between atoms: C_5  and  O_6 
REMARK    4  A    between atoms: C_9  and  C_10 
REMARK    5  A    between atoms: C_22  and  O_23 
ROOT
HETATM    1  C   UNL     1       2.215  33.905  62.926  1.00  0.00     0.047 C 
HETATM    2  C   UNL     1       2.676  34.164  61.482  1.00  0.00     0.073 C 
HETATM    3  C   UNL     1       4.188  33.806  61.293  1.00  0.00     0.133 C 
HETATM    4  C   UNL     1       5.239  34.840  61.800  1.00  0.00     0.074 C 
HETATM    5  C   UNL     1       4.700  36.228  61.812  1.00  0.00     0.030 A 
HETATM    6  C   UNL     1       3.398  36.552  61.495  1.00  0.00     0.042 A 
HETATM    7  N   UNL     1       3.297  37.913  61.574  1.00  0.00    -0.279 N 
HETATM    8  H   UNL     1       2.487  38.500  61.397  1.00  0.00     0.189 HD
HETATM    9  N   UNL     1       4.465  38.504  61.906  1.00  0.00    -0.149 NA
HETATM   10  C   UNL     1       5.292  37.474  62.021  1.00  0.00     0.190 A 
HETATM   11  C   UNL     1       2.324  35.622  61.074  1.00  0.00     0.097 C 
ENDROOT
BRANCH   4  12
HETATM   12  C   UNL     1       5.789  34.502  63.184  1.00  0.00    -0.047 A 
HETATM   13  C   UNL     1       5.222  34.933  64.396  1.00  0.00     0.027 A 
HETATM   14  C   UNL     1       5.781  34.555  65.619  1.00  0.00     0.011 A 
HETATM   15 BR   UNL     1       4.987  35.146  67.231  1.00  0.00    -0.051 Br
HETATM   16  C   UNL     1       6.913  33.747  65.665  1.00  0.00     0.019 A 
HETATM   17  C   UNL     1       7.491  33.312  64.477  1.00  0.00     0.002 A 
HETATM   18  C   UNL     1       6.931  33.680  63.251  1.00  0.00     0.008 A 
ENDBRANCH   4  12
BRANCH   3  19
HETATM   19  C   UNL     1       4.470  33.485  59.837  1.00  0.00     0.266 C 
HETATM   20  O   UNL     1       4.119  34.219  58.919  1.00  0.00    -0.265 OA
BRANCH  19  21
HETATM   21  O   UNL     1       5.153  32.322  59.679  1.00  0.00    -0.326 OA
HETATM   22  C   UNL     1       5.763  32.165  58.397  1.00  0.00     0.213 C 
ENDBRANCH  19  21
ENDBRANCH   3  19
BRANCH   2  23
HETATM   23  O   UNL     1       1.858  33.295  60.676  1.00  0.00    -0.389 OA
HETATM   24  H   UNL     1       0.947  33.312  61.022  1.00  0.00     0.210 HD
ENDBRANCH   2  23
BRANCH  10  25
HETATM   25  O   UNL     1       6.551  37.783  62.308  1.00  0.00    -0.343 OA
HETATM   26  H   UNL     1       6.914  38.127  61.476  1.00  0.00     0.219 HD
ENDBRANCH  10  25
TORSDOF 5
ENDMDL
