MODEL 1
REMARK VINA RESULT:     -10.1      0.000      0.000
REMARK  4 active torsions:
REMARK  status: ('A' for Active; 'I' for Inactive)
REMARK    1  A    between atoms: O_2  and  C_3 
REMARK    2  A    between atoms: C_4  and  N_5 
REMARK    3  A    between atoms: C_14  and  C_15 
REMARK       I    between atoms: C_15  and  N_16 
REMARK    4  A    between atoms: N_16  and  C_17 
ROOT
HETATM    1  N   UNL     1       6.832  26.544  54.416  1.00  0.00    -0.221 NA
HETATM    2  C   UNL     1       7.241  25.358  54.758  1.00  0.00     0.186 C 
HETATM    3  O   UNL     1       7.016  24.258  53.939  1.00  0.00    -0.290 OA
HETATM    4  C   UNL     1       7.620  23.016  54.202  1.00  0.00     0.088 A 
HETATM    5  C   UNL     1       8.367  22.824  55.356  1.00  0.00    -0.001 A 
HETATM    6  C   UNL     1       7.455  22.007  53.257  1.00  0.00     0.038 A 
HETATM    7  C   UNL     1       8.062  20.771  53.475  1.00  0.00     0.003 A 
HETATM    8  C   UNL     1       8.818  20.559  54.630  1.00  0.00     0.001 A 
HETATM    9  C   UNL     1       8.969  21.582  55.572  1.00  0.00     0.014 A 
HETATM   10  C   UNL     1       7.955  25.125  56.039  1.00  0.00     0.086 C 
HETATM   11  C   UNL     1       8.488  23.919  56.303  1.00  0.00     0.035 C 
ENDROOT
BRANCH  10  12
HETATM   12  C   UNL     1       8.124  26.180  57.106  1.00  0.00     0.260 C 
HETATM   13  N   UNL     1       8.480  27.424  56.636  1.00  0.00    -0.323 N 
HETATM   14  H   UNL     1       8.622  27.502  55.625  1.00  0.00     0.169 HD
HETATM   15  O   UNL     1       7.935  25.893  58.287  1.00  0.00    -0.267 OA
BRANCH  13  16
HETATM   16  C   UNL     1       8.703  28.608  57.366  1.00  0.00     0.035 A 
HETATM   17  C   UNL     1       7.783  29.168  58.254  1.00  0.00     0.029 A 
HETATM   18  C   UNL     1       8.091  30.347  58.941  1.00  0.00     0.002 A 
HETATM   19  C   UNL     1       9.320  30.974  58.747  1.00  0.00     0.000 A 
HETATM   20  C   UNL     1      10.243  30.425  57.860  1.00  0.00     0.002 A 
HETATM   21  C   UNL     1       9.935  29.248  57.173  1.00  0.00     0.029 A 
ENDBRANCH  13  16
ENDBRANCH  10  12
BRANCH   1  22
HETATM   22  C   UNL     1       6.101  26.717  53.225  1.00  0.00     0.093 A 
HETATM   23  C   UNL     1       5.001  27.598  53.203  1.00  0.00     0.097 A 
HETATM   24  C   UNL     1       4.281  27.782  52.016  1.00  0.00     0.039 A 
HETATM   25  C   UNL     1       4.675  27.129  50.847  1.00  0.00     0.003 A 
HETATM   26  C   UNL     1       5.790  26.294  50.852  1.00  0.00     0.002 A 
HETATM   27  C   UNL     1       6.503  26.096  52.034  1.00  0.00     0.034 A 
BRANCH  23  28
HETATM   28  O   UNL     1       4.688  28.210  54.393  1.00  0.00    -0.354 OA
HETATM   29  C   UNL     1       4.296  29.574  54.309  1.00  0.00     0.210 C 
ENDBRANCH  23  28
ENDBRANCH   1  22
TORSDOF 4
ENDMDL
MODEL 2
REMARK VINA RESULT:     -10.0      2.097      6.623
REMARK  4 active torsions:
REMARK  status: ('A' for Active; 'I' for Inactive)
REMARK    1  A    between atoms: O_2  and  C_3 
REMARK    2  A    between atoms: C_4  and  N_5 
REMARK    3  A    between atoms: C_14  and  C_15 
REMARK       I    between atoms: C_15  and  N_16 
REMARK    4  A    between atoms: N_16  and  C_17 
ROOT
HETATM    1  N   UNL     1       6.479  27.335  54.406  1.00  0.00    -0.221 NA
HETATM    2  C   UNL     1       6.832  26.153  53.996  1.00  0.00     0.186 C 
HETATM    3  O   UNL     1       7.819  25.430  54.655  1.00  0.00    -0.290 OA
HETATM    4  C   UNL     1       8.069  24.083  54.344  1.00  0.00     0.088 A 
HETATM    5  C   UNL     1       7.414  23.469  53.285  1.00  0.00    -0.001 A 
HETATM    6  C   UNL     1       8.977  23.394  55.144  1.00  0.00     0.038 A 
HETATM    7  C   UNL     1       9.228  22.049  54.879  1.00  0.00     0.003 A 
HETATM    8  C   UNL     1       8.577  21.414  53.818  1.00  0.00     0.001 A 
HETATM    9  C   UNL     1       7.673  22.122  53.020  1.00  0.00     0.014 A 
HETATM   10  C   UNL     1       6.204  25.528  52.804  1.00  0.00     0.086 C 
HETATM   11  C   UNL     1       6.488  24.252  52.485  1.00  0.00     0.035 C 
ENDROOT
BRANCH  10  12
HETATM   12  C   UNL     1       5.247  26.250  51.888  1.00  0.00     0.260 C 
HETATM   13  N   UNL     1       5.501  26.088  50.544  1.00  0.00    -0.323 N 
HETATM   14  H   UNL     1       6.322  25.525  50.304  1.00  0.00     0.169 HD
HETATM   15  O   UNL     1       4.324  26.909  52.363  1.00  0.00    -0.267 OA
BRANCH  13  16
HETATM   16  C   UNL     1       4.794  26.618  49.447  1.00  0.00     0.035 A 
HETATM   17  C   UNL     1       5.004  27.892  48.918  1.00  0.00     0.029 A 
HETATM   18  C   UNL     1       4.256  28.335  47.822  1.00  0.00     0.002 A 
HETATM   19  C   UNL     1       3.295  27.507  47.245  1.00  0.00     0.000 A 
HETATM   20  C   UNL     1       3.077  26.235  47.768  1.00  0.00     0.002 A 
HETATM   21  C   UNL     1       3.822  25.794  48.864  1.00  0.00     0.029 A 
ENDBRANCH  13  16
ENDBRANCH  10  12
BRANCH   1  22
HETATM   22  C   UNL     1       7.141  27.924  55.500  1.00  0.00     0.093 A 
HETATM   23  C   UNL     1       6.662  27.704  56.807  1.00  0.00     0.097 A 
HETATM   24  C   UNL     1       7.327  28.278  57.898  1.00  0.00     0.039 A 
HETATM   25  C   UNL     1       8.487  29.030  57.697  1.00  0.00     0.003 A 
HETATM   26  C   UNL     1       8.991  29.211  56.411  1.00  0.00     0.002 A 
HETATM   27  C   UNL     1       8.325  28.654  55.320  1.00  0.00     0.034 A 
BRANCH  23  28
HETATM   28  O   UNL     1       5.524  26.942  56.917  1.00  0.00    -0.354 OA
HETATM   29  C   UNL     1       5.711  25.602  57.354  1.00  0.00     0.210 C 
ENDBRANCH  23  28
ENDBRANCH   1  22
TORSDOF 4
ENDMDL
MODEL 3
REMARK VINA RESULT:      -9.7      1.898      6.832
REMARK  4 active torsions:
REMARK  status: ('A' for Active; 'I' for Inactive)
REMARK    1  A    between atoms: O_2  and  C_3 
REMARK    2  A    between atoms: C_4  and  N_5 
REMARK    3  A    between atoms: C_14  and  C_15 
REMARK       I    between atoms: C_15  and  N_16 
REMARK    4  A    between atoms: N_16  and  C_17 
ROOT
HETATM    1  N   UNL     1       6.847  26.785  54.769  1.00  0.00    -0.221 NA
HETATM    2  C   UNL     1       6.242  26.712  53.621  1.00  0.00     0.186 C 
HETATM    3  O   UNL     1       5.286  27.652  53.252  1.00  0.00    -0.290 OA
HETATM    4  C   UNL     1       4.772  27.697  51.945  1.00  0.00     0.088 A 
HETATM    5  C   UNL     1       5.120  26.728  51.014  1.00  0.00    -0.001 A 
HETATM    6  C   UNL     1       3.924  28.754  51.622  1.00  0.00     0.038 A 
HETATM    7  C   UNL     1       3.418  28.843  50.327  1.00  0.00     0.003 A 
HETATM    8  C   UNL     1       3.758  27.877  49.377  1.00  0.00     0.001 A 
HETATM    9  C   UNL     1       4.605  26.819  49.720  1.00  0.00     0.014 A 
HETATM   10  C   UNL     1       6.537  25.621  52.658  1.00  0.00     0.086 C 
HETATM   11  C   UNL     1       6.001  25.648  51.425  1.00  0.00     0.035 C 
ENDROOT
BRANCH  10  12
HETATM   12  C   UNL     1       7.418  24.439  52.979  1.00  0.00     0.260 C 
HETATM   13  N   UNL     1       6.987  23.669  54.037  1.00  0.00    -0.323 N 
HETATM   14  H   UNL     1       6.139  23.988  54.512  1.00  0.00     0.169 HD
HETATM   15  O   UNL     1       8.427  24.225  52.309  1.00  0.00    -0.267 OA
BRANCH  13  16
HETATM   16  C   UNL     1       7.575  22.507  54.574  1.00  0.00     0.035 A 
HETATM   17  C   UNL     1       7.822  21.342  53.846  1.00  0.00     0.029 A 
HETATM   18  C   UNL     1       8.414  20.235  54.462  1.00  0.00     0.002 A 
HETATM   19  C   UNL     1       8.766  20.284  55.809  1.00  0.00     0.000 A 
HETATM   20  C   UNL     1       8.522  21.440  56.545  1.00  0.00     0.002 A 
HETATM   21  C   UNL     1       7.928  22.546  55.930  1.00  0.00     0.029 A 
ENDBRANCH  13  16
ENDBRANCH  10  12
BRANCH   1  22
HETATM   22  C   UNL     1       6.494  27.796  55.684  1.00  0.00     0.093 A 
HETATM   23  C   UNL     1       7.340  28.911  55.853  1.00  0.00     0.097 A 
HETATM   24  C   UNL     1       6.984  29.924  56.752  1.00  0.00     0.039 A 
HETATM   25  C   UNL     1       5.776  29.853  57.448  1.00  0.00     0.003 A 
HETATM   26  C   UNL     1       4.915  28.776  57.250  1.00  0.00     0.002 A 
HETATM   27  C   UNL     1       5.270  27.758  56.365  1.00  0.00     0.034 A 
BRANCH  23  28
HETATM   28  O   UNL     1       8.503  28.908  55.121  1.00  0.00    -0.354 OA
HETATM   29  C   UNL     1       9.652  29.432  55.775  1.00  0.00     0.210 C 
ENDBRANCH  23  28
ENDBRANCH   1  22
TORSDOF 4
ENDMDL
MODEL 4
REMARK VINA RESULT:      -9.2      1.805      2.721
REMARK  4 active torsions:
REMARK  status: ('A' for Active; 'I' for Inactive)
REMARK    1  A    between atoms: O_2  and  C_3 
REMARK    2  A    between atoms: C_4  and  N_5 
REMARK    3  A    between atoms: C_14  and  C_15 
REMARK       I    between atoms: C_15  and  N_16 
REMARK    4  A    between atoms: N_16  and  C_17 
ROOT
HETATM    1  N   UNL     1       6.678  28.665  54.855  1.00  0.00    -0.221 NA
HETATM    2  C   UNL     1       7.084  27.601  55.481  1.00  0.00     0.186 C 
HETATM    3  O   UNL     1       6.651  26.336  55.102  1.00  0.00    -0.290 OA
HETATM    4  C   UNL     1       7.231  25.174  55.639  1.00  0.00     0.088 A 
HETATM    5  C   UNL     1       8.175  25.259  56.654  1.00  0.00    -0.001 A 
HETATM    6  C   UNL     1       6.837  23.950  55.103  1.00  0.00     0.038 A 
HETATM    7  C   UNL     1       7.411  22.780  55.596  1.00  0.00     0.003 A 
HETATM    8  C   UNL     1       8.363  22.846  56.617  1.00  0.00     0.001 A 
HETATM    9  C   UNL     1       8.743  24.083  57.147  1.00  0.00     0.014 A 
HETATM   10  C   UNL     1       8.019  27.690  56.633  1.00  0.00     0.086 C 
HETATM   11  C   UNL     1       8.530  26.569  57.172  1.00  0.00     0.035 C 
ENDROOT
BRANCH  10  12
HETATM   12  C   UNL     1       8.441  28.992  57.268  1.00  0.00     0.260 C 
HETATM   13  N   UNL     1       7.873  29.245  58.497  1.00  0.00    -0.323 N 
HETATM   14  H   UNL     1       7.207  28.548  58.839  1.00  0.00     0.169 HD
HETATM   15  O   UNL     1       9.240  29.726  56.689  1.00  0.00    -0.267 OA
BRANCH  13  16
HETATM   16  C   UNL     1       8.067  30.356  59.341  1.00  0.00     0.035 A 
HETATM   17  C   UNL     1       9.179  30.532  60.165  1.00  0.00     0.029 A 
HETATM   18  C   UNL     1       9.291  31.671  60.969  1.00  0.00     0.002 A 
HETATM   19  C   UNL     1       8.292  32.642  60.955  1.00  0.00     0.000 A 
HETATM   20  C   UNL     1       7.176  32.474  60.140  1.00  0.00     0.002 A 
HETATM   21  C   UNL     1       7.065  31.336  59.337  1.00  0.00     0.029 A 
ENDBRANCH  13  16
ENDBRANCH  10  12
BRANCH   1  22
HETATM   22  C   UNL     1       5.741  28.549  53.810  1.00  0.00     0.093 A 
HETATM   23  C   UNL     1       4.397  28.907  54.034  1.00  0.00     0.097 A 
HETATM   24  C   UNL     1       3.467  28.805  52.992  1.00  0.00     0.039 A 
HETATM   25  C   UNL     1       3.876  28.393  51.723  1.00  0.00     0.003 A 
HETATM   26  C   UNL     1       5.213  28.083  51.484  1.00  0.00     0.002 A 
HETATM   27  C   UNL     1       6.141  28.169  52.521  1.00  0.00     0.034 A 
BRANCH  23  28
HETATM   28  O   UNL     1       4.081  29.314  55.308  1.00  0.00    -0.354 OA
HETATM   29  C   UNL     1       3.440  30.579  55.417  1.00  0.00     0.210 C 
ENDBRANCH  23  28
ENDBRANCH   1  22
TORSDOF 4
ENDMDL
MODEL 5
REMARK VINA RESULT:      -9.1      1.838      7.099
REMARK  4 active torsions:
REMARK  status: ('A' for Active; 'I' for Inactive)
REMARK    1  A    between atoms: O_2  and  C_3 
REMARK    2  A    between atoms: C_4  and  N_5 
REMARK    3  A    between atoms: C_14  and  C_15 
REMARK       I    between atoms: C_15  and  N_16 
REMARK    4  A    between atoms: N_16  and  C_17 
ROOT
HETATM    1  N   UNL     1       6.834  26.954  54.446  1.00  0.00    -0.221 NA
HETATM    2  C   UNL     1       6.283  27.213  53.298  1.00  0.00     0.186 C 
HETATM    3  O   UNL     1       6.040  28.522  52.898  1.00  0.00    -0.290 OA
HETATM    4  C   UNL     1       5.629  28.821  51.588  1.00  0.00     0.088 A 
HETATM    5  C   UNL     1       5.341  27.804  50.687  1.00  0.00    -0.001 A 
HETATM    6  C   UNL     1       5.543  30.164  51.230  1.00  0.00     0.038 A 
HETATM    7  C   UNL     1       5.163  30.495  49.930  1.00  0.00     0.003 A 
HETATM    8  C   UNL     1       4.870  29.485  49.011  1.00  0.00     0.001 A 
HETATM    9  C   UNL     1       4.956  28.142  49.388  1.00  0.00     0.014 A 
HETATM   10  C   UNL     1       5.880  26.126  52.369  1.00  0.00     0.086 C 
HETATM   11  C   UNL     1       5.441  26.425  51.133  1.00  0.00     0.035 C 
ENDROOT
BRANCH  10  12
HETATM   12  C   UNL     1       5.921  24.661  52.729  1.00  0.00     0.260 C 
HETATM   13  N   UNL     1       7.112  24.234  53.273  1.00  0.00    -0.323 N 
HETATM   14  H   UNL     1       7.851  24.938  53.352  1.00  0.00     0.169 HD
HETATM   15  O   UNL     1       4.934  23.954  52.536  1.00  0.00    -0.267 OA
BRANCH  13  16
HETATM   16  C   UNL     1       7.461  22.944  53.717  1.00  0.00     0.035 A 
HETATM   17  C   UNL     1       7.836  21.897  52.874  1.00  0.00     0.029 A 
HETATM   18  C   UNL     1       8.171  20.647  53.405  1.00  0.00     0.002 A 
HETATM   19  C   UNL     1       8.136  20.434  54.781  1.00  0.00     0.000 A 
HETATM   20  C   UNL     1       7.760  21.472  55.631  1.00  0.00     0.002 A 
HETATM   21  C   UNL     1       7.424  22.720  55.101  1.00  0.00     0.029 A 
ENDBRANCH  13  16
ENDBRANCH  10  12
BRANCH   1  22
HETATM   22  C   UNL     1       7.143  28.006  55.329  1.00  0.00     0.093 A 
HETATM   23  C   UNL     1       6.181  28.439  56.263  1.00  0.00     0.097 A 
HETATM   24  C   UNL     1       6.490  29.476  57.152  1.00  0.00     0.039 A 
HETATM   25  C   UNL     1       7.762  30.051  57.144  1.00  0.00     0.003 A 
HETATM   26  C   UNL     1       8.732  29.595  56.254  1.00  0.00     0.002 A 
HETATM   27  C   UNL     1       8.425  28.572  55.358  1.00  0.00     0.034 A 
BRANCH  23  28
HETATM   28  O   UNL     1       4.958  27.811  56.212  1.00  0.00    -0.354 OA
HETATM   29  C   UNL     1       3.851  28.631  55.862  1.00  0.00     0.210 C 
ENDBRANCH  23  28
ENDBRANCH   1  22
TORSDOF 4
ENDMDL
MODEL 6
REMARK VINA RESULT:      -9.0      5.146      8.512
REMARK  4 active torsions:
REMARK  status: ('A' for Active; 'I' for Inactive)
REMARK    1  A    between atoms: O_2  and  C_3 
REMARK    2  A    between atoms: C_4  and  N_5 
REMARK    3  A    between atoms: C_14  and  C_15 
REMARK       I    between atoms: C_15  and  N_16 
REMARK    4  A    between atoms: N_16  and  C_17 
ROOT
HETATM    1  N   UNL     1       7.108  30.931  58.961  1.00  0.00    -0.221 NA
HETATM    2  C   UNL     1       6.074  31.351  58.295  1.00  0.00     0.186 C 
HETATM    3  O   UNL     1       6.013  31.228  56.912  1.00  0.00    -0.290 OA
HETATM    4  C   UNL     1       4.828  31.497  56.206  1.00  0.00     0.088 A 
HETATM    5  C   UNL     1       3.715  32.007  56.862  1.00  0.00    -0.001 A 
HETATM    6  C   UNL     1       4.811  31.215  54.843  1.00  0.00     0.038 A 
HETATM    7  C   UNL     1       3.643  31.445  54.119  1.00  0.00     0.003 A 
HETATM    8  C   UNL     1       2.513  31.958  54.761  1.00  0.00     0.001 A 
HETATM    9  C   UNL     1       2.549  32.241  56.130  1.00  0.00     0.014 A 
HETATM   10  C   UNL     1       4.920  31.989  58.979  1.00  0.00     0.086 C 
HETATM   11  C   UNL     1       3.808  32.287  58.284  1.00  0.00     0.035 C 
ENDROOT
BRANCH  10  12
HETATM   12  C   UNL     1       4.910  32.346  60.445  1.00  0.00     0.260 C 
HETATM   13  N   UNL     1       6.085  32.893  60.913  1.00  0.00    -0.323 N 
HETATM   14  H   UNL     1       6.847  32.974  60.235  1.00  0.00     0.169 HD
HETATM   15  O   UNL     1       3.900  32.149  61.118  1.00  0.00    -0.267 OA
BRANCH  13  16
HETATM   16  C   UNL     1       6.390  33.335  62.215  1.00  0.00     0.035 A 
HETATM   17  C   UNL     1       5.851  34.481  62.802  1.00  0.00     0.029 A 
HETATM   18  C   UNL     1       6.208  34.843  64.105  1.00  0.00     0.002 A 
HETATM   19  C   UNL     1       7.105  34.062  64.831  1.00  0.00     0.000 A 
HETATM   20  C   UNL     1       7.651  32.919  64.253  1.00  0.00     0.002 A 
HETATM   21  C   UNL     1       7.295  32.558  62.951  1.00  0.00     0.029 A 
ENDBRANCH  13  16
ENDBRANCH  10  12
BRANCH   1  22
HETATM   22  C   UNL     1       8.213  30.391  58.274  1.00  0.00     0.093 A 
HETATM   23  C   UNL     1       9.449  31.067  58.299  1.00  0.00     0.097 A 
HETATM   24  C   UNL     1      10.552  30.525  57.629  1.00  0.00     0.039 A 
HETATM   25  C   UNL     1      10.442  29.297  56.972  1.00  0.00     0.003 A 
HETATM   26  C   UNL     1       9.234  28.603  56.983  1.00  0.00     0.002 A 
HETATM   27  C   UNL     1       8.128  29.144  57.639  1.00  0.00     0.034 A 
BRANCH  23  28
HETATM   28  O   UNL     1       9.475  32.262  58.979  1.00  0.00    -0.354 OA
HETATM   29  C   UNL     1       9.775  32.183  60.366  1.00  0.00     0.210 C 
ENDBRANCH  23  28
ENDBRANCH   1  22
TORSDOF 4
ENDMDL
MODEL 7
REMARK VINA RESULT:      -8.9      2.532      8.146
REMARK  4 active torsions:
REMARK  status: ('A' for Active; 'I' for Inactive)
REMARK    1  A    between atoms: O_2  and  C_3 
REMARK    2  A    between atoms: C_4  and  N_5 
REMARK    3  A    between atoms: C_14  and  C_15 
REMARK       I    between atoms: C_15  and  N_16 
REMARK    4  A    between atoms: N_16  and  C_17 
ROOT
HETATM    1  N   UNL     1       7.350  29.351  57.888  1.00  0.00    -0.221 NA
HETATM    2  C   UNL     1       6.295  29.722  57.227  1.00  0.00     0.186 C 
HETATM    3  O   UNL     1       5.894  31.053  57.202  1.00  0.00    -0.290 OA
HETATM    4  C   UNL     1       4.878  31.494  56.338  1.00  0.00     0.088 A 
HETATM    5  C   UNL     1       4.163  30.588  55.566  1.00  0.00    -0.001 A 
HETATM    6  C   UNL     1       4.635  32.864  56.276  1.00  0.00     0.038 A 
HETATM    7  C   UNL     1       3.651  33.338  55.410  1.00  0.00     0.003 A 
HETATM    8  C   UNL     1       2.922  32.441  54.625  1.00  0.00     0.001 A 
HETATM    9  C   UNL     1       3.175  31.068  54.704  1.00  0.00     0.014 A 
HETATM   10  C   UNL     1       5.466  28.743  56.477  1.00  0.00     0.086 C 
HETATM   11  C   UNL     1       4.464  29.172  55.691  1.00  0.00     0.035 C 
ENDROOT
BRANCH  10  12
HETATM   12  C   UNL     1       5.671  27.249  56.546  1.00  0.00     0.260 C 
HETATM   13  N   UNL     1       6.886  26.811  56.068  1.00  0.00    -0.323 N 
HETATM   14  H   UNL     1       7.509  27.530  55.692  1.00  0.00     0.169 HD
HETATM   15  O   UNL     1       4.788  26.530  57.011  1.00  0.00    -0.267 OA
BRANCH  13  16
HETATM   16  C   UNL     1       7.380  25.494  56.003  1.00  0.00     0.035 A 
HETATM   17  C   UNL     1       7.167  24.626  54.932  1.00  0.00     0.029 A 
HETATM   18  C   UNL     1       7.701  23.333  54.952  1.00  0.00     0.002 A 
HETATM   19  C   UNL     1       8.452  22.898  56.042  1.00  0.00     0.000 A 
HETATM   20  C   UNL     1       8.667  23.756  57.118  1.00  0.00     0.002 A 
HETATM   21  C   UNL     1       8.133  25.047  57.098  1.00  0.00     0.029 A 
ENDBRANCH  13  16
ENDBRANCH  10  12
BRANCH   1  22
HETATM   22  C   UNL     1       8.074  30.295  58.641  1.00  0.00     0.093 A 
HETATM   23  C   UNL     1       9.347  30.712  58.201  1.00  0.00     0.097 A 
HETATM   24  C   UNL     1      10.062  31.662  58.940  1.00  0.00     0.039 A 
HETATM   25  C   UNL     1       9.501  32.228  60.086  1.00  0.00     0.003 A 
HETATM   26  C   UNL     1       8.224  31.854  60.500  1.00  0.00     0.002 A 
HETATM   27  C   UNL     1       7.512  30.898  59.774  1.00  0.00     0.034 A 
BRANCH  23  28
HETATM   28  O   UNL     1       9.820  30.115  57.057  1.00  0.00    -0.354 OA
HETATM   29  C   UNL     1      11.198  29.764  57.061  1.00  0.00     0.210 C 
ENDBRANCH  23  28
ENDBRANCH   1  22
TORSDOF 4
ENDMDL
MODEL 8
REMARK VINA RESULT:      -8.8      2.385      5.878
REMARK  4 active torsions:
REMARK  status: ('A' for Active; 'I' for Inactive)
REMARK    1  A    between atoms: O_2  and  C_3 
REMARK    2  A    between atoms: C_4  and  N_5 
REMARK    3  A    between atoms: C_14  and  C_15 
REMARK       I    between atoms: C_15  and  N_16 
REMARK    4  A    between atoms: N_16  and  C_17 
ROOT
HETATM    1  N   UNL     1       6.709  28.298  54.435  1.00  0.00    -0.221 NA
HETATM    2  C   UNL     1       6.914  27.088  54.005  1.00  0.00     0.186 C 
HETATM    3  O   UNL     1       7.718  26.202  54.713  1.00  0.00    -0.290 OA
HETATM    4  C   UNL     1       7.788  24.842  54.366  1.00  0.00     0.088 A 
HETATM    5  C   UNL     1       7.145  24.369  53.230  1.00  0.00    -0.001 A 
HETATM    6  C   UNL     1       8.505  23.997  55.209  1.00  0.00     0.038 A 
HETATM    7  C   UNL     1       8.573  22.639  54.907  1.00  0.00     0.003 A 
HETATM    8  C   UNL     1       7.932  22.144  53.769  1.00  0.00     0.001 A 
HETATM    9  C   UNL     1       7.221  23.007  52.929  1.00  0.00     0.014 A 
HETATM   10  C   UNL     1       6.309  26.603  52.738  1.00  0.00     0.086 C 
HETATM   11  C   UNL     1       6.424  25.309  52.390  1.00  0.00     0.035 C 
ENDROOT
BRANCH  10  12
HETATM   12  C   UNL     1       5.558  27.492  51.777  1.00  0.00     0.260 C 
HETATM   13  N   UNL     1       5.936  28.816  51.800  1.00  0.00    -0.323 N 
HETATM   14  H   UNL     1       6.661  29.067  52.478  1.00  0.00     0.169 HD
HETATM   15  O   UNL     1       4.690  27.013  51.049  1.00  0.00    -0.267 OA
BRANCH  13  16
HETATM   16  C   UNL     1       5.440  29.884  51.027  1.00  0.00     0.035 A 
HETATM   17  C   UNL     1       5.878  30.192  49.739  1.00  0.00     0.029 A 
HETATM   18  C   UNL     1       5.325  31.271  49.042  1.00  0.00     0.002 A 
HETATM   19  C   UNL     1       4.329  32.050  49.628  1.00  0.00     0.000 A 
HETATM   20  C   UNL     1       3.888  31.753  50.914  1.00  0.00     0.002 A 
HETATM   21  C   UNL     1       4.442  30.675  51.610  1.00  0.00     0.029 A 
ENDBRANCH  13  16
ENDBRANCH  10  12
BRANCH   1  22
HETATM   22  C   UNL     1       7.351  28.744  55.606  1.00  0.00     0.093 A 
HETATM   23  C   UNL     1       6.626  28.831  56.811  1.00  0.00     0.097 A 
HETATM   24  C   UNL     1       7.266  29.262  57.979  1.00  0.00     0.039 A 
HETATM   25  C   UNL     1       8.629  29.563  57.963  1.00  0.00     0.003 A 
HETATM   26  C   UNL     1       9.361  29.434  56.785  1.00  0.00     0.002 A 
HETATM   27  C   UNL     1       8.726  29.019  55.615  1.00  0.00     0.034 A 
BRANCH  23  28
HETATM   28  O   UNL     1       5.292  28.504  56.742  1.00  0.00    -0.354 OA
HETATM   29  C   UNL     1       4.378  29.579  56.911  1.00  0.00     0.210 C 
ENDBRANCH  23  28
ENDBRANCH   1  22
TORSDOF 4
ENDMDL
MODEL 9
REMARK VINA RESULT:      -8.7      5.943     10.545
REMARK  4 active torsions:
REMARK  status: ('A' for Active; 'I' for Inactive)
REMARK    1  A    between atoms: O_2  and  C_3 
REMARK    2  A    between atoms: C_4  and  N_5 
REMARK    3  A    between atoms: C_14  and  C_15 
REMARK       I    between atoms: C_15  and  N_16 
REMARK    4  A    between atoms: N_16  and  C_17 
ROOT
HETATM    1  N   UNL     1       4.866  33.400  59.695  1.00  0.00    -0.221 NA
HETATM    2  C   UNL     1       5.582  33.417  60.780  1.00  0.00     0.186 C 
HETATM    3  O   UNL     1       5.167  34.126  61.901  1.00  0.00    -0.290 OA
HETATM    4  C   UNL     1       5.828  33.993  63.135  1.00  0.00     0.088 A 
HETATM    5  C   UNL     1       6.988  33.237  63.237  1.00  0.00    -0.001 A 
HETATM    6  C   UNL     1       5.266  34.629  64.239  1.00  0.00     0.038 A 
HETATM    7  C   UNL     1       5.882  34.496  65.482  1.00  0.00     0.003 A 
HETATM    8  C   UNL     1       7.049  33.738  65.605  1.00  0.00     0.001 A 
HETATM    9  C   UNL     1       7.603  33.111  64.484  1.00  0.00     0.014 A 
HETATM   10  C   UNL     1       6.874  32.690  60.866  1.00  0.00     0.086 C 
HETATM   11  C   UNL     1       7.524  32.610  62.041  1.00  0.00     0.035 C 
ENDROOT
BRANCH  10  12
HETATM   12  C   UNL     1       7.537  32.021  59.687  1.00  0.00     0.260 C 
HETATM   13  N   UNL     1       6.879  30.909  59.210  1.00  0.00    -0.323 N 
HETATM   14  H   UNL     1       6.031  30.634  59.715  1.00  0.00     0.169 HD
HETATM   15  O   UNL     1       8.579  32.482  59.226  1.00  0.00    -0.267 OA
BRANCH  13  16
HETATM   16  C   UNL     1       7.230  30.078  58.129  1.00  0.00     0.035 A 
HETATM   17  C   UNL     1       8.341  29.234  58.114  1.00  0.00     0.029 A 
HETATM   18  C   UNL     1       8.611  28.439  56.996  1.00  0.00     0.002 A 
HETATM   19  C   UNL     1       7.772  28.480  55.884  1.00  0.00     0.000 A 
HETATM   20  C   UNL     1       6.663  29.321  55.887  1.00  0.00     0.002 A 
HETATM   21  C   UNL     1       6.394  30.117  57.004  1.00  0.00     0.029 A 
ENDBRANCH  13  16
ENDBRANCH  10  12
BRANCH   1  22
HETATM   22  C   UNL     1       3.679  34.154  59.626  1.00  0.00     0.093 A 
HETATM   23  C   UNL     1       3.521  35.119  58.611  1.00  0.00     0.097 A 
HETATM   24  C   UNL     1       2.336  35.860  58.532  1.00  0.00     0.039 A 
HETATM   25  C   UNL     1       1.294  35.615  59.429  1.00  0.00     0.003 A 
HETATM   26  C   UNL     1       1.426  34.630  60.405  1.00  0.00     0.002 A 
HETATM   27  C   UNL     1       2.610  33.898  60.497  1.00  0.00     0.034 A 
BRANCH  23  28
HETATM   28  O   UNL     1       4.590  35.288  57.762  1.00  0.00    -0.354 OA
HETATM   29  C   UNL     1       4.415  36.242  56.723  1.00  0.00     0.210 C 
ENDBRANCH  23  28
ENDBRANCH   1  22
TORSDOF 4
ENDMDL
MODEL 10
REMARK VINA RESULT:      -8.7      2.273      3.236
REMARK  4 active torsions:
REMARK  status: ('A' for Active; 'I' for Inactive)
REMARK    1  A    between atoms: O_2  and  C_3 
REMARK    2  A    between atoms: C_4  and  N_5 
REMARK    3  A    between atoms: C_14  and  C_15 
REMARK       I    between atoms: C_15  and  N_16 
REMARK    4  A    between atoms: N_16  and  C_17 
ROOT
HETATM    1  N   UNL     1       5.323  27.831  52.538  1.00  0.00    -0.221 NA
HETATM    2  C   UNL     1       5.854  26.864  53.225  1.00  0.00     0.186 C 
HETATM    3  O   UNL     1       6.316  25.711  52.602  1.00  0.00    -0.290 OA
HETATM    4  C   UNL     1       7.065  24.751  53.304  1.00  0.00     0.088 A 
HETATM    5  C   UNL     1       7.264  24.873  54.673  1.00  0.00    -0.001 A 
HETATM    6  C   UNL     1       7.608  23.697  52.575  1.00  0.00     0.038 A 
HETATM    7  C   UNL     1       8.377  22.741  53.236  1.00  0.00     0.003 A 
HETATM    8  C   UNL     1       8.589  22.847  54.613  1.00  0.00     0.001 A 
HETATM    9  C   UNL     1       8.031  23.910  55.332  1.00  0.00     0.014 A 
HETATM   10  C   UNL     1       5.982  26.943  54.703  1.00  0.00     0.086 C 
HETATM   11  C   UNL     1       6.659  25.993  55.372  1.00  0.00     0.035 C 
ENDROOT
BRANCH  10  12
HETATM   12  C   UNL     1       5.377  28.047  55.536  1.00  0.00     0.260 C 
HETATM   13  N   UNL     1       6.126  29.202  55.595  1.00  0.00    -0.323 N 
HETATM   14  H   UNL     1       7.020  29.186  55.097  1.00  0.00     0.169 HD
HETATM   15  O   UNL     1       4.293  27.874  56.090  1.00  0.00    -0.267 OA
BRANCH  13  16
HETATM   16  C   UNL     1       5.836  30.402  56.272  1.00  0.00     0.035 A 
HETATM   17  C   UNL     1       5.027  31.418  55.761  1.00  0.00     0.029 A 
HETATM   18  C   UNL     1       4.791  32.577  56.508  1.00  0.00     0.002 A 
HETATM   19  C   UNL     1       5.359  32.728  57.771  1.00  0.00     0.000 A 
HETATM   20  C   UNL     1       6.170  31.722  58.288  1.00  0.00     0.002 A 
HETATM   21  C   UNL     1       6.408  30.565  57.542  1.00  0.00     0.029 A 
ENDBRANCH  13  16
ENDBRANCH  10  12
BRANCH   1  22
HETATM   22  C   UNL     1       5.158  27.694  51.147  1.00  0.00     0.093 A 
HETATM   23  C   UNL     1       5.529  28.751  50.292  1.00  0.00     0.097 A 
HETATM   24  C   UNL     1       5.379  28.612  48.907  1.00  0.00     0.039 A 
HETATM   25  C   UNL     1       4.905  27.414  48.369  1.00  0.00     0.003 A 
HETATM   26  C   UNL     1       4.580  26.350  49.206  1.00  0.00     0.002 A 
HETATM   27  C   UNL     1       4.715  26.488  50.588  1.00  0.00     0.034 A 
BRANCH  23  28
HETATM   28  O   UNL     1       5.999  29.890  50.902  1.00  0.00    -0.354 OA
HETATM   29  C   UNL     1       5.273  31.083  50.638  1.00  0.00     0.210 C 
ENDBRANCH  23  28
ENDBRANCH   1  22
TORSDOF 4
ENDMDL
