MODEL 1
REMARK VINA RESULT:      -9.5      0.000      0.000
REMARK  10 active torsions:
REMARK  status: ('A' for Active; 'I' for Inactive)
REMARK    1  A    between atoms: C_6  and  C_7 
REMARK    2  A    between atoms: C_7  and  N_8 
REMARK    3  A    between atoms: N_8  and  C_10 
REMARK    4  A    between atoms: N_8  and  C_20 
REMARK    5  A    between atoms: C_10  and  C_11 
REMARK    6  A    between atoms: N_12  and  C_13 
REMARK    7  A    between atoms: C_20  and  C_21 
REMARK    8  A    between atoms: C_21  and  C_22 
REMARK    9  A    between atoms: C_22  and  N_23 
REMARK   10  A    between atoms: C_30  and  O_31 
ROOT
HETATM    1  N   UNL     1       6.942  27.154  55.215  1.00  0.00    -0.060 N 
HETATM    2  H   UNL     1       7.190  26.622  54.369  1.00  0.00     0.280 HD
ENDROOT
BRANCH   1   3
HETATM    3  C   UNL     1       7.405  26.245  56.364  1.00  0.00     0.278 C 
BRANCH   3   4
HETATM    4  C   UNL     1       7.705  24.816  56.047  1.00  0.00     0.021 A 
HETATM    5  C   UNL     1       7.516  24.294  54.766  1.00  0.00     0.027 A 
HETATM    6  C   UNL     1       7.859  22.961  54.481  1.00  0.00    -0.006 A 
HETATM    7  C   UNL     1       8.395  22.163  55.519  1.00  0.00     0.075 A 
HETATM    8  C   UNL     1       7.692  22.435  53.190  1.00  0.00     0.014 A 
HETATM    9  C   UNL     1       8.744  20.839  55.227  1.00  0.00    -0.032 A 
HETATM   10  N   UNL     1       8.571  22.672  56.756  1.00  0.00    -0.223 NA
HETATM   11  C   UNL     1       9.370  19.946  56.267  1.00  0.00     0.050 C 
HETATM   12  C   UNL     1       8.582  20.328  53.928  1.00  0.00     0.009 A 
HETATM   13  C   UNL     1       8.055  21.121  52.916  1.00  0.00     0.002 A 
HETATM   14  C   UNL     1       8.244  23.948  56.972  1.00  0.00     0.170 A 
BRANCH  14  15
HETATM   15  O   UNL     1       8.506  24.334  58.244  1.00  0.00    -0.344 OA
HETATM   16  H   UNL     1       7.579  24.423  58.559  1.00  0.00     0.219 HD
ENDBRANCH  14  15
ENDBRANCH   3   4
ENDBRANCH   1   3
BRANCH   1  17
HETATM   17  C   UNL     1       5.394  27.209  55.105  1.00  0.00     0.316 C 
BRANCH  17  18
HETATM   18  C   UNL     1       4.988  27.874  53.847  1.00  0.00     0.163 A 
HETATM   19  N   UNL     1       5.016  27.393  52.557  1.00  0.00    -0.253 N 
HETATM   20  N   UNL     1       4.614  28.391  51.741  1.00  0.00    -0.002 NA
HETATM   21  N   UNL     1       4.279  29.405  52.519  1.00  0.00     0.018 NA
HETATM   22  N   UNL     1       4.489  29.098  53.827  1.00  0.00    -0.145 NA
BRANCH  19  23
HETATM   23  C   UNL     1       5.374  26.101  51.950  1.00  0.00     0.042 C 
HETATM   24  C   UNL     1       4.746  24.884  52.655  1.00  0.00     0.039 C 
HETATM   25  C   UNL     1       4.888  26.070  50.482  1.00  0.00     0.039 C 
HETATM   26  C   UNL     1       6.905  25.933  51.980  1.00  0.00     0.039 C 
ENDBRANCH  19  23
ENDBRANCH  17  18
ENDBRANCH   1  17
BRANCH   1  27
HETATM   27  C   UNL     1       7.552  28.531  55.159  1.00  0.00     0.237 C 
BRANCH  27  28
HETATM   28  C   UNL     1       8.151  29.036  56.485  1.00  0.00     0.055 C 
BRANCH  28  29
HETATM   29  C   UNL     1       7.124  29.412  57.555  1.00  0.00     0.236 C 
BRANCH  29  30
HETATM   30  N   UNL     1       7.756  30.279  58.627  1.00  0.00    -0.067 N 
HETATM   31  H   UNL     1       7.849  29.740  59.500  1.00  0.00     0.280 HD
HETATM   32  C   UNL     1       9.187  30.706  58.244  1.00  0.00     0.261 C 
HETATM   33  C   UNL     1       9.793  31.554  59.368  1.00  0.00     0.195 C 
HETATM   34  O   UNL     1       8.983  32.703  59.623  1.00  0.00    -0.388 OA
HETATM   35  C   UNL     1       7.668  32.348  60.054  1.00  0.00     0.195 C 
HETATM   36  C   UNL     1       6.943  31.541  58.970  1.00  0.00     0.261 C 
ENDBRANCH  29  30
ENDBRANCH  28  29
ENDBRANCH  27  28
ENDBRANCH   1  27
TORSDOF 10
ENDMDL
MODEL 2
REMARK VINA RESULT:      -9.5      3.123      6.919
REMARK  10 active torsions:
REMARK  status: ('A' for Active; 'I' for Inactive)
REMARK    1  A    between atoms: C_6  and  C_7 
REMARK    2  A    between atoms: C_7  and  N_8 
REMARK    3  A    between atoms: N_8  and  C_10 
REMARK    4  A    between atoms: N_8  and  C_20 
REMARK    5  A    between atoms: C_10  and  C_11 
REMARK    6  A    between atoms: N_12  and  C_13 
REMARK    7  A    between atoms: C_20  and  C_21 
REMARK    8  A    between atoms: C_21  and  C_22 
REMARK    9  A    between atoms: C_22  and  N_23 
REMARK   10  A    between atoms: C_30  and  O_31 
ROOT
HETATM    1  N   UNL     1       6.153  26.798  53.222  1.00  0.00    -0.060 N 
HETATM    2  H   UNL     1       6.033  26.601  54.226  1.00  0.00     0.280 HD
ENDROOT
BRANCH   1   3
HETATM    3  C   UNL     1       7.377  25.956  52.830  1.00  0.00     0.278 C 
BRANCH   3   4
HETATM    4  C   UNL     1       7.597  24.666  53.550  1.00  0.00     0.021 A 
HETATM    5  C   UNL     1       7.858  23.478  52.863  1.00  0.00     0.027 A 
HETATM    6  C   UNL     1       8.118  22.289  53.567  1.00  0.00    -0.006 A 
HETATM    7  C   UNL     1       8.105  22.323  54.981  1.00  0.00     0.075 A 
HETATM    8  C   UNL     1       8.402  21.096  52.884  1.00  0.00     0.014 A 
HETATM    9  C   UNL     1       8.373  21.137  55.676  1.00  0.00    -0.032 A 
HETATM   10  N   UNL     1       7.848  23.472  55.639  1.00  0.00    -0.223 NA
HETATM   11  C   UNL     1       8.430  21.108  57.182  1.00  0.00     0.050 C 
HETATM   12  C   UNL     1       8.667  19.953  54.980  1.00  0.00     0.009 A 
HETATM   13  C   UNL     1       8.677  19.932  53.591  1.00  0.00     0.002 A 
HETATM   14  C   UNL     1       7.622  24.577  54.926  1.00  0.00     0.170 A 
BRANCH  14  15
HETATM   15  O   UNL     1       7.415  25.660  55.713  1.00  0.00    -0.344 OA
HETATM   16  H   UNL     1       8.160  25.524  56.340  1.00  0.00     0.219 HD
ENDBRANCH  14  15
ENDBRANCH   3   4
ENDBRANCH   1   3
BRANCH   1  17
HETATM   17  C   UNL     1       6.473  28.317  53.239  1.00  0.00     0.316 C 
BRANCH  17  18
HETATM   18  C   UNL     1       7.067  28.706  54.537  1.00  0.00     0.163 A 
HETATM   19  N   UNL     1       6.455  29.224  55.658  1.00  0.00    -0.253 N 
HETATM   20  N   UNL     1       7.420  29.485  56.565  1.00  0.00    -0.002 NA
HETATM   21  N   UNL     1       8.557  29.065  56.041  1.00  0.00     0.018 NA
HETATM   22  N   UNL     1       8.357  28.565  54.793  1.00  0.00    -0.145 NA
BRANCH  19  23
HETATM   23  C   UNL     1       5.061  29.521  56.020  1.00  0.00     0.042 C 
HETATM   24  C   UNL     1       4.368  30.524  55.078  1.00  0.00     0.039 C 
HETATM   25  C   UNL     1       4.229  28.217  55.977  1.00  0.00     0.039 C 
HETATM   26  C   UNL     1       5.020  30.100  57.447  1.00  0.00     0.039 C 
ENDBRANCH  19  23
ENDBRANCH  17  18
ENDBRANCH   1  17
BRANCH   1  27
HETATM   27  C   UNL     1       4.872  26.509  52.482  1.00  0.00     0.237 C 
BRANCH  27  28
HETATM   28  C   UNL     1       5.050  26.007  51.037  1.00  0.00     0.055 C 
BRANCH  28  29
HETATM   29  C   UNL     1       4.767  27.048  49.953  1.00  0.00     0.236 C 
BRANCH  29  30
HETATM   30  N   UNL     1       3.564  26.646  49.121  1.00  0.00    -0.067 N 
HETATM   31  H   UNL     1       3.023  25.924  49.618  1.00  0.00     0.280 HD
HETATM   32  C   UNL     1       2.594  27.827  48.915  1.00  0.00     0.261 C 
HETATM   33  C   UNL     1       1.384  27.366  48.096  1.00  0.00     0.195 C 
HETATM   34  O   UNL     1       1.801  26.840  46.835  1.00  0.00    -0.388 OA
HETATM   35  C   UNL     1       2.643  25.695  46.983  1.00  0.00     0.195 C 
HETATM   36  C   UNL     1       3.924  26.061  47.743  1.00  0.00     0.261 C 
ENDBRANCH  29  30
ENDBRANCH  28  29
ENDBRANCH  27  28
ENDBRANCH   1  27
TORSDOF 10
ENDMDL
MODEL 3
REMARK VINA RESULT:      -9.5      3.182      6.865
REMARK  10 active torsions:
REMARK  status: ('A' for Active; 'I' for Inactive)
REMARK    1  A    between atoms: C_6  and  C_7 
REMARK    2  A    between atoms: C_7  and  N_8 
REMARK    3  A    between atoms: N_8  and  C_10 
REMARK    4  A    between atoms: N_8  and  C_20 
REMARK    5  A    between atoms: C_10  and  C_11 
REMARK    6  A    between atoms: N_12  and  C_13 
REMARK    7  A    between atoms: C_20  and  C_21 
REMARK    8  A    between atoms: C_21  and  C_22 
REMARK    9  A    between atoms: C_22  and  N_23 
REMARK   10  A    between atoms: C_30  and  O_31 
ROOT
HETATM    1  N   UNL     1       6.030  27.257  53.988  1.00  0.00    -0.060 N 
HETATM    2  H   UNL     1       5.935  26.950  54.967  1.00  0.00     0.280 HD
ENDROOT
BRANCH   1   3
HETATM    3  C   UNL     1       7.417  26.736  53.579  1.00  0.00     0.278 C 
BRANCH   3   4
HETATM    4  C   UNL     1       7.686  25.274  53.726  1.00  0.00     0.021 A 
HETATM    5  C   UNL     1       7.757  24.664  54.980  1.00  0.00     0.027 A 
HETATM    6  C   UNL     1       7.955  23.276  55.088  1.00  0.00    -0.006 A 
HETATM    7  C   UNL     1       8.083  22.516  53.902  1.00  0.00     0.075 A 
HETATM    8  C   UNL     1       8.007  22.652  56.345  1.00  0.00     0.014 A 
HETATM    9  C   UNL     1       8.270  21.133  54.016  1.00  0.00    -0.032 A 
HETATM   10  N   UNL     1       8.017  23.112  52.693  1.00  0.00    -0.223 NA
HETATM   11  C   UNL     1       8.361  20.252  52.797  1.00  0.00     0.050 C 
HETATM   12  C   UNL     1       8.309  20.520  55.279  1.00  0.00     0.009 A 
HETATM   13  C   UNL     1       8.182  21.277  56.438  1.00  0.00     0.002 A 
HETATM   14  C   UNL     1       7.813  24.430  52.643  1.00  0.00     0.170 A 
BRANCH  14  15
HETATM   15  O   UNL     1       7.733  24.887  51.371  1.00  0.00    -0.344 OA
HETATM   16  H   UNL     1       8.670  24.745  51.110  1.00  0.00     0.219 HD
ENDBRANCH  14  15
ENDBRANCH   3   4
ENDBRANCH   1   3
BRANCH   1  17
HETATM   17  C   UNL     1       6.012  28.802  54.144  1.00  0.00     0.316 C 
BRANCH  17  18
HETATM   18  C   UNL     1       5.500  29.181  55.479  1.00  0.00     0.163 A 
HETATM   19  N   UNL     1       6.143  29.166  56.697  1.00  0.00    -0.253 N 
HETATM   20  N   UNL     1       5.245  29.532  57.636  1.00  0.00    -0.002 NA
HETATM   21  N   UNL     1       4.129  29.833  56.997  1.00  0.00     0.018 NA
HETATM   22  N   UNL     1       4.273  29.638  55.659  1.00  0.00    -0.145 NA
BRANCH  19  23
HETATM   23  C   UNL     1       7.513  28.852  57.130  1.00  0.00     0.042 C 
HETATM   24  C   UNL     1       8.599  29.245  56.110  1.00  0.00     0.039 C 
HETATM   25  C   UNL     1       7.828  29.618  58.437  1.00  0.00     0.039 C 
HETATM   26  C   UNL     1       7.629  27.338  57.391  1.00  0.00     0.039 C 
ENDBRANCH  19  23
ENDBRANCH  17  18
ENDBRANCH   1  17
BRANCH   1  27
HETATM   27  C   UNL     1       4.860  26.766  53.175  1.00  0.00     0.237 C 
BRANCH  27  28
HETATM   28  C   UNL     1       5.061  26.809  51.648  1.00  0.00     0.055 C 
BRANCH  28  29
HETATM   29  C   UNL     1       4.317  27.936  50.931  1.00  0.00     0.236 C 
BRANCH  29  30
HETATM   30  N   UNL     1       3.600  27.412  49.701  1.00  0.00    -0.067 N 
HETATM   31  H   UNL     1       2.610  27.234  49.924  1.00  0.00     0.280 HD
HETATM   32  C   UNL     1       3.592  28.451  48.561  1.00  0.00     0.261 C 
HETATM   33  C   UNL     1       2.835  27.888  47.353  1.00  0.00     0.195 C 
HETATM   34  O   UNL     1       3.431  26.668  46.909  1.00  0.00    -0.388 OA
HETATM   35  C   UNL     1       3.390  25.654  47.915  1.00  0.00     0.195 C 
HETATM   36  C   UNL     1       4.177  26.092  49.157  1.00  0.00     0.261 C 
ENDBRANCH  29  30
ENDBRANCH  28  29
ENDBRANCH  27  28
ENDBRANCH   1  27
TORSDOF 10
ENDMDL
MODEL 4
REMARK VINA RESULT:      -9.5      1.519      1.904
REMARK  10 active torsions:
REMARK  status: ('A' for Active; 'I' for Inactive)
REMARK    1  A    between atoms: C_6  and  C_7 
REMARK    2  A    between atoms: C_7  and  N_8 
REMARK    3  A    between atoms: N_8  and  C_10 
REMARK    4  A    between atoms: N_8  and  C_20 
REMARK    5  A    between atoms: C_10  and  C_11 
REMARK    6  A    between atoms: N_12  and  C_13 
REMARK    7  A    between atoms: C_20  and  C_21 
REMARK    8  A    between atoms: C_21  and  C_22 
REMARK    9  A    between atoms: C_22  and  N_23 
REMARK   10  A    between atoms: C_30  and  O_31 
ROOT
HETATM    1  N   UNL     1       7.124  27.812  56.421  1.00  0.00    -0.060 N 
HETATM    2  H   UNL     1       7.247  27.567  55.428  1.00  0.00     0.280 HD
ENDROOT
BRANCH   1   3
HETATM    3  C   UNL     1       8.002  26.790  57.158  1.00  0.00     0.278 C 
BRANCH   3   4
HETATM    4  C   UNL     1       8.058  25.398  56.618  1.00  0.00     0.021 A 
HETATM    5  C   UNL     1       7.764  25.117  55.282  1.00  0.00     0.027 A 
HETATM    6  C   UNL     1       7.880  23.807  54.786  1.00  0.00    -0.006 A 
HETATM    7  C   UNL     1       8.295  22.783  55.669  1.00  0.00     0.075 A 
HETATM    8  C   UNL     1       7.607  23.521  53.439  1.00  0.00     0.014 A 
HETATM    9  C   UNL     1       8.416  21.481  55.167  1.00  0.00    -0.032 A 
HETATM   10  N   UNL     1       8.573  23.059  56.960  1.00  0.00    -0.223 NA
HETATM   11  C   UNL     1       8.904  20.350  56.035  1.00  0.00     0.050 C 
HETATM   12  C   UNL     1       8.151  21.211  53.814  1.00  0.00     0.009 A 
HETATM   13  C   UNL     1       7.745  22.225  52.956  1.00  0.00     0.002 A 
HETATM   14  C   UNL     1       8.463  24.322  57.379  1.00  0.00     0.170 A 
BRANCH  14  15
HETATM   15  O   UNL     1       8.806  24.459  58.682  1.00  0.00    -0.344 OA
HETATM   16  H   UNL     1       8.905  23.507  58.904  1.00  0.00     0.219 HD
ENDBRANCH  14  15
ENDBRANCH   3   4
ENDBRANCH   1   3
BRANCH   1  17
HETATM   17  C   UNL     1       5.610  27.533  56.626  1.00  0.00     0.316 C 
BRANCH  17  18
HETATM   18  C   UNL     1       4.797  28.492  55.847  1.00  0.00     0.163 A 
HETATM   19  N   UNL     1       4.606  28.572  54.485  1.00  0.00    -0.253 N 
HETATM   20  N   UNL     1       3.839  29.657  54.244  1.00  0.00    -0.002 NA
HETATM   21  N   UNL     1       3.515  30.162  55.421  1.00  0.00     0.018 NA
HETATM   22  N   UNL     1       4.085  29.444  56.426  1.00  0.00    -0.145 NA
BRANCH  19  23
HETATM   23  C   UNL     1       5.046  27.763  53.338  1.00  0.00     0.042 C 
HETATM   24  C   UNL     1       4.823  26.249  53.517  1.00  0.00     0.039 C 
HETATM   25  C   UNL     1       4.257  28.187  52.076  1.00  0.00     0.039 C 
HETATM   26  C   UNL     1       6.549  27.998  53.098  1.00  0.00     0.039 C 
ENDBRANCH  19  23
ENDBRANCH  17  18
ENDBRANCH   1  17
BRANCH   1  27
HETATM   27  C   UNL     1       7.455  29.266  56.640  1.00  0.00     0.237 C 
BRANCH  27  28
HETATM   28  C   UNL     1       8.109  29.591  57.996  1.00  0.00     0.055 C 
BRANCH  28  29
HETATM   29  C   UNL     1       7.638  30.893  58.645  1.00  0.00     0.236 C 
BRANCH  29  30
HETATM   30  N   UNL     1       7.612  30.765  60.156  1.00  0.00    -0.067 N 
HETATM   31  H   UNL     1       7.102  29.911  60.425  1.00  0.00     0.280 HD
HETATM   32  C   UNL     1       9.032  30.604  60.738  1.00  0.00     0.261 C 
HETATM   33  C   UNL     1       8.953  30.449  62.260  1.00  0.00     0.195 C 
HETATM   34  O   UNL     1       8.301  31.577  62.847  1.00  0.00    -0.388 OA
HETATM   35  C   UNL     1       6.954  31.716  62.389  1.00  0.00     0.195 C 
HETATM   36  C   UNL     1       6.920  31.939  60.872  1.00  0.00     0.261 C 
ENDBRANCH  29  30
ENDBRANCH  28  29
ENDBRANCH  27  28
ENDBRANCH   1  27
TORSDOF 10
ENDMDL
MODEL 5
REMARK VINA RESULT:      -9.4      2.060      3.218
REMARK  10 active torsions:
REMARK  status: ('A' for Active; 'I' for Inactive)
REMARK    1  A    between atoms: C_6  and  C_7 
REMARK    2  A    between atoms: C_7  and  N_8 
REMARK    3  A    between atoms: N_8  and  C_10 
REMARK    4  A    between atoms: N_8  and  C_20 
REMARK    5  A    between atoms: C_10  and  C_11 
REMARK    6  A    between atoms: N_12  and  C_13 
REMARK    7  A    between atoms: C_20  and  C_21 
REMARK    8  A    between atoms: C_21  and  C_22 
REMARK    9  A    between atoms: C_22  and  N_23 
REMARK   10  A    between atoms: C_30  and  O_31 
ROOT
HETATM    1  N   UNL     1       6.098  27.056  55.471  1.00  0.00    -0.060 N 
HETATM    2  H   UNL     1       5.924  26.763  54.500  1.00  0.00     0.280 HD
ENDROOT
BRANCH   1   3
HETATM    3  C   UNL     1       5.981  25.750  56.272  1.00  0.00     0.278 C 
BRANCH   3   4
HETATM    4  C   UNL     1       6.631  24.527  55.712  1.00  0.00     0.021 A 
HETATM    5  C   UNL     1       7.293  23.608  56.531  1.00  0.00     0.027 A 
HETATM    6  C   UNL     1       7.846  22.437  55.986  1.00  0.00    -0.006 A 
HETATM    7  C   UNL     1       7.722  22.213  54.595  1.00  0.00     0.075 A 
HETATM    8  C   UNL     1       8.494  21.498  56.806  1.00  0.00     0.014 A 
HETATM    9  C   UNL     1       8.268  21.040  54.060  1.00  0.00    -0.032 A 
HETATM   10  N   UNL     1       7.087  23.106  53.809  1.00  0.00    -0.223 NA
HETATM   11  C   UNL     1       8.128  20.708  52.596  1.00  0.00     0.050 C 
HETATM   12  C   UNL     1       8.904  20.103  54.893  1.00  0.00     0.009 A 
HETATM   13  C   UNL     1       9.019  20.334  56.258  1.00  0.00     0.002 A 
HETATM   14  C   UNL     1       6.564  24.195  54.376  1.00  0.00     0.170 A 
BRANCH  14  15
HETATM   15  O   UNL     1       5.926  24.983  53.478  1.00  0.00    -0.344 OA
HETATM   16  H   UNL     1       5.093  24.466  53.402  1.00  0.00     0.219 HD
ENDBRANCH  14  15
ENDBRANCH   3   4
ENDBRANCH   1   3
BRANCH   1  17
HETATM   17  C   UNL     1       4.898  28.006  55.730  1.00  0.00     0.316 C 
BRANCH  17  18
HETATM   18  C   UNL     1       4.319  28.469  54.449  1.00  0.00     0.163 A 
HETATM   19  N   UNL     1       3.795  29.701  54.122  1.00  0.00    -0.253 N 
HETATM   20  N   UNL     1       3.325  29.621  52.859  1.00  0.00    -0.002 NA
HETATM   21  N   UNL     1       3.628  28.413  52.417  1.00  0.00     0.018 NA
HETATM   22  N   UNL     1       4.258  27.691  53.382  1.00  0.00    -0.145 NA
BRANCH  19  23
HETATM   23  C   UNL     1       3.663  30.981  54.833  1.00  0.00     0.042 C 
HETATM   24  C   UNL     1       2.666  30.946  56.007  1.00  0.00     0.039 C 
HETATM   25  C   UNL     1       5.035  31.387  55.422  1.00  0.00     0.039 C 
HETATM   26  C   UNL     1       3.197  32.066  53.843  1.00  0.00     0.039 C 
ENDBRANCH  19  23
ENDBRANCH  17  18
ENDBRANCH   1  17
BRANCH   1  27
HETATM   27  C   UNL     1       7.414  27.786  55.563  1.00  0.00     0.237 C 
BRANCH  27  28
HETATM   28  C   UNL     1       8.107  27.717  56.936  1.00  0.00     0.055 C 
BRANCH  28  29
HETATM   29  C   UNL     1       7.585  28.713  57.973  1.00  0.00     0.236 C 
BRANCH  29  30
HETATM   30  N   UNL     1       8.689  29.651  58.423  1.00  0.00    -0.067 N 
HETATM   31  H   UNL     1       9.282  29.180  59.122  1.00  0.00     0.280 HD
HETATM   32  C   UNL     1       9.629  30.023  57.260  1.00  0.00     0.261 C 
HETATM   33  C   UNL     1      10.742  30.946  57.768  1.00  0.00     0.195 C 
HETATM   34  O   UNL     1      10.188  32.125  58.356  1.00  0.00    -0.388 OA
HETATM   35  C   UNL     1       9.368  31.825  59.488  1.00  0.00     0.195 C 
HETATM   36  C   UNL     1       8.179  30.948  59.077  1.00  0.00     0.261 C 
ENDBRANCH  29  30
ENDBRANCH  28  29
ENDBRANCH  27  28
ENDBRANCH   1  27
TORSDOF 10
ENDMDL
MODEL 6
REMARK VINA RESULT:      -9.4      2.211      3.074
REMARK  10 active torsions:
REMARK  status: ('A' for Active; 'I' for Inactive)
REMARK    1  A    between atoms: C_6  and  C_7 
REMARK    2  A    between atoms: C_7  and  N_8 
REMARK    3  A    between atoms: N_8  and  C_10 
REMARK    4  A    between atoms: N_8  and  C_20 
REMARK    5  A    between atoms: C_10  and  C_11 
REMARK    6  A    between atoms: N_12  and  C_13 
REMARK    7  A    between atoms: C_20  and  C_21 
REMARK    8  A    between atoms: C_21  and  C_22 
REMARK    9  A    between atoms: C_22  and  N_23 
REMARK   10  A    between atoms: C_30  and  O_31 
ROOT
HETATM    1  N   UNL     1       6.199  27.403  54.035  1.00  0.00    -0.060 N 
HETATM    2  H   UNL     1       6.090  28.253  53.464  1.00  0.00     0.280 HD
ENDROOT
BRANCH   1   3
HETATM    3  C   UNL     1       7.558  26.839  53.592  1.00  0.00     0.278 C 
BRANCH   3   4
HETATM    4  C   UNL     1       7.785  25.369  53.733  1.00  0.00     0.021 A 
HETATM    5  C   UNL     1       7.821  24.750  54.985  1.00  0.00     0.027 A 
HETATM    6  C   UNL     1       7.980  23.357  55.087  1.00  0.00    -0.006 A 
HETATM    7  C   UNL     1       8.105  22.601  53.899  1.00  0.00     0.075 A 
HETATM    8  C   UNL     1       7.996  22.725  56.341  1.00  0.00     0.014 A 
HETATM    9  C   UNL     1       8.253  21.213  54.007  1.00  0.00    -0.032 A 
HETATM   10  N   UNL     1       8.073  23.205  52.693  1.00  0.00    -0.223 NA
HETATM   11  C   UNL     1       8.338  20.337  52.784  1.00  0.00     0.050 C 
HETATM   12  C   UNL     1       8.257  20.592  55.267  1.00  0.00     0.009 A 
HETATM   13  C   UNL     1       8.133  21.345  56.428  1.00  0.00     0.002 A 
HETATM   14  C   UNL     1       7.905  24.528  52.648  1.00  0.00     0.170 A 
BRANCH  14  15
HETATM   15  O   UNL     1       7.856  24.994  51.377  1.00  0.00    -0.344 OA
HETATM   16  H   UNL     1       6.964  24.657  51.136  1.00  0.00     0.219 HD
ENDBRANCH  14  15
ENDBRANCH   3   4
ENDBRANCH   1   3
BRANCH   1  17
HETATM   17  C   UNL     1       5.016  26.534  53.528  1.00  0.00     0.316 C 
BRANCH  17  18
HETATM   18  C   UNL     1       4.835  26.707  52.070  1.00  0.00     0.163 A 
HETATM   19  N   UNL     1       4.381  27.803  51.370  1.00  0.00    -0.253 N 
HETATM   20  N   UNL     1       4.322  27.458  50.066  1.00  0.00    -0.002 NA
HETATM   21  N   UNL     1       4.800  26.230  49.976  1.00  0.00     0.018 NA
HETATM   22  N   UNL     1       5.137  25.754  51.205  1.00  0.00    -0.145 NA
BRANCH  19  23
HETATM   23  C   UNL     1       3.981  29.168  51.747  1.00  0.00     0.042 C 
HETATM   24  C   UNL     1       5.157  30.154  51.871  1.00  0.00     0.039 C 
HETATM   25  C   UNL     1       3.027  29.740  50.672  1.00  0.00     0.039 C 
HETATM   26  C   UNL     1       3.249  29.126  53.102  1.00  0.00     0.039 C 
ENDBRANCH  19  23
ENDBRANCH  17  18
ENDBRANCH   1  17
BRANCH   1  27
HETATM   27  C   UNL     1       6.054  27.739  55.497  1.00  0.00     0.237 C 
BRANCH  27  28
HETATM   28  C   UNL     1       7.097  28.732  56.045  1.00  0.00     0.055 C 
BRANCH  28  29
HETATM   29  C   UNL     1       7.338  28.647  57.553  1.00  0.00     0.236 C 
BRANCH  29  30
HETATM   30  N   UNL     1       8.622  29.359  57.935  1.00  0.00    -0.067 N 
HETATM   31  H   UNL     1       9.072  28.868  58.721  1.00  0.00     0.280 HD
HETATM   32  C   UNL     1       9.648  29.338  56.785  1.00  0.00     0.261 C 
HETATM   33  C   UNL     1      10.936  30.043  57.226  1.00  0.00     0.195 C 
HETATM   34  O   UNL     1      10.662  31.388  57.623  1.00  0.00    -0.388 OA
HETATM   35  C   UNL     1       9.770  31.447  58.738  1.00  0.00     0.195 C 
HETATM   36  C   UNL     1       8.417  30.818  58.383  1.00  0.00     0.261 C 
ENDBRANCH  29  30
ENDBRANCH  28  29
ENDBRANCH  27  28
ENDBRANCH   1  27
TORSDOF 10
ENDMDL
MODEL 7
REMARK VINA RESULT:      -9.4      1.870      2.456
REMARK  10 active torsions:
REMARK  status: ('A' for Active; 'I' for Inactive)
REMARK    1  A    between atoms: C_6  and  C_7 
REMARK    2  A    between atoms: C_7  and  N_8 
REMARK    3  A    between atoms: N_8  and  C_10 
REMARK    4  A    between atoms: N_8  and  C_20 
REMARK    5  A    between atoms: C_10  and  C_11 
REMARK    6  A    between atoms: N_12  and  C_13 
REMARK    7  A    between atoms: C_20  and  C_21 
REMARK    8  A    between atoms: C_21  and  C_22 
REMARK    9  A    between atoms: C_22  and  N_23 
REMARK   10  A    between atoms: C_30  and  O_31 
ROOT
HETATM    1  N   UNL     1       6.684  27.321  53.891  1.00  0.00    -0.060 N 
HETATM    2  H   UNL     1       6.966  26.697  53.121  1.00  0.00     0.280 HD
ENDROOT
BRANCH   1   3
HETATM    3  C   UNL     1       6.026  26.372  54.905  1.00  0.00     0.278 C 
BRANCH   3   4
HETATM    4  C   UNL     1       6.568  24.985  55.019  1.00  0.00     0.021 A 
HETATM    5  C   UNL     1       6.851  24.213  53.890  1.00  0.00     0.027 A 
HETATM    6  C   UNL     1       7.415  22.932  54.025  1.00  0.00    -0.006 A 
HETATM    7  C   UNL     1       7.684  22.444  55.324  1.00  0.00     0.075 A 
HETATM    8  C   UNL     1       7.721  22.158  52.894  1.00  0.00     0.014 A 
HETATM    9  C   UNL     1       8.254  21.171  55.452  1.00  0.00    -0.032 A 
HETATM   10  N   UNL     1       7.405  23.193  56.411  1.00  0.00    -0.223 NA
HETATM   11  C   UNL     1       8.618  20.607  56.801  1.00  0.00     0.050 C 
HETATM   12  C   UNL     1       8.566  20.412  54.311  1.00  0.00     0.009 A 
HETATM   13  C   UNL     1       8.297  20.902  53.039  1.00  0.00     0.002 A 
HETATM   14  C   UNL     1       6.885  24.408  56.231  1.00  0.00     0.170 A 
BRANCH  14  15
HETATM   15  O   UNL     1       6.690  25.060  57.402  1.00  0.00    -0.344 OA
HETATM   16  H   UNL     1       6.587  24.275  57.985  1.00  0.00     0.219 HD
ENDBRANCH  14  15
ENDBRANCH   3   4
ENDBRANCH   1   3
BRANCH   1  17
HETATM   17  C   UNL     1       5.644  28.233  53.188  1.00  0.00     0.316 C 
BRANCH  17  18
HETATM   18  C   UNL     1       5.294  27.689  51.857  1.00  0.00     0.163 A 
HETATM   19  N   UNL     1       4.670  28.308  50.797  1.00  0.00    -0.253 N 
HETATM   20  N   UNL     1       4.505  27.385  49.825  1.00  0.00    -0.002 NA
HETATM   21  N   UNL     1       5.081  26.276  50.254  1.00  0.00     0.018 NA
HETATM   22  N   UNL     1       5.589  26.450  51.503  1.00  0.00    -0.145 NA
BRANCH  19  23
HETATM   23  C   UNL     1       4.188  29.675  50.546  1.00  0.00     0.042 C 
HETATM   24  C   UNL     1       3.225  30.208  51.623  1.00  0.00     0.039 C 
HETATM   25  C   UNL     1       5.393  30.645  50.501  1.00  0.00     0.039 C 
HETATM   26  C   UNL     1       3.456  29.714  49.191  1.00  0.00     0.039 C 
ENDBRANCH  19  23
ENDBRANCH  17  18
ENDBRANCH   1  17
BRANCH   1  27
HETATM   27  C   UNL     1       7.873  28.108  54.380  1.00  0.00     0.237 C 
BRANCH  27  28
HETATM   28  C   UNL     1       7.652  28.875  55.697  1.00  0.00     0.055 C 
BRANCH  28  29
HETATM   29  C   UNL     1       8.308  28.247  56.928  1.00  0.00     0.236 C 
BRANCH  29  30
HETATM   30  N   UNL     1       9.080  29.287  57.718  1.00  0.00    -0.067 N 
HETATM   31  H   UNL     1       9.534  28.842  58.529  1.00  0.00     0.280 HD
HETATM   32  C   UNL     1      10.222  29.902  56.885  1.00  0.00     0.261 C 
HETATM   33  C   UNL     1      10.989  30.923  57.733  1.00  0.00     0.195 C 
HETATM   34  O   UNL     1      10.111  31.947  58.204  1.00  0.00    -0.388 OA
HETATM   35  C   UNL     1       9.079  31.424  59.043  1.00  0.00     0.195 C 
HETATM   36  C   UNL     1       8.206  30.428  58.270  1.00  0.00     0.261 C 
ENDBRANCH  29  30
ENDBRANCH  28  29
ENDBRANCH  27  28
ENDBRANCH   1  27
TORSDOF 10
ENDMDL
MODEL 8
REMARK VINA RESULT:      -9.3      1.856      2.832
REMARK  10 active torsions:
REMARK  status: ('A' for Active; 'I' for Inactive)
REMARK    1  A    between atoms: C_6  and  C_7 
REMARK    2  A    between atoms: C_7  and  N_8 
REMARK    3  A    between atoms: N_8  and  C_10 
REMARK    4  A    between atoms: N_8  and  C_20 
REMARK    5  A    between atoms: C_10  and  C_11 
REMARK    6  A    between atoms: N_12  and  C_13 
REMARK    7  A    between atoms: C_20  and  C_21 
REMARK    8  A    between atoms: C_21  and  C_22 
REMARK    9  A    between atoms: C_22  and  N_23 
REMARK   10  A    between atoms: C_30  and  O_31 
ROOT
HETATM    1  N   UNL     1       6.147  27.217  53.266  1.00  0.00    -0.060 N 
HETATM    2  H   UNL     1       6.320  28.231  53.208  1.00  0.00     0.280 HD
ENDROOT
BRANCH   1   3
HETATM    3  C   UNL     1       7.552  26.620  53.441  1.00  0.00     0.278 C 
BRANCH   3   4
HETATM    4  C   UNL     1       7.657  25.218  53.946  1.00  0.00     0.021 A 
HETATM    5  C   UNL     1       7.681  24.125  53.076  1.00  0.00     0.027 A 
HETATM    6  C   UNL     1       7.838  22.820  53.575  1.00  0.00    -0.006 A 
HETATM    7  C   UNL     1       7.967  22.640  54.972  1.00  0.00     0.075 A 
HETATM    8  C   UNL     1       7.884  21.718  52.706  1.00  0.00     0.014 A 
HETATM    9  C   UNL     1       8.133  21.339  55.462  1.00  0.00    -0.032 A 
HETATM   10  N   UNL     1       7.939  23.699  55.807  1.00  0.00    -0.223 NA
HETATM   11  C   UNL     1       8.330  21.075  56.932  1.00  0.00     0.050 C 
HETATM   12  C   UNL     1       8.189  20.246  54.580  1.00  0.00     0.009 A 
HETATM   13  C   UNL     1       8.061  20.435  53.209  1.00  0.00     0.002 A 
HETATM   14  C   UNL     1       7.804  24.919  55.284  1.00  0.00     0.170 A 
BRANCH  14  15
HETATM   15  O   UNL     1       7.828  25.887  56.231  1.00  0.00    -0.344 OA
HETATM   16  H   UNL     1       8.277  25.378  56.942  1.00  0.00     0.219 HD
ENDBRANCH  14  15
ENDBRANCH   3   4
ENDBRANCH   1   3
BRANCH   1  17
HETATM   17  C   UNL     1       5.559  26.920  51.860  1.00  0.00     0.316 C 
BRANCH  17  18
HETATM   18  C   UNL     1       5.528  28.152  51.042  1.00  0.00     0.163 A 
HETATM   19  N   UNL     1       5.043  28.341  49.766  1.00  0.00    -0.253 N 
HETATM   20  N   UNL     1       5.299  29.619  49.418  1.00  0.00    -0.002 NA
HETATM   21  N   UNL     1       5.844  30.198  50.473  1.00  0.00     0.018 NA
HETATM   22  N   UNL     1       5.978  29.310  51.493  1.00  0.00    -0.145 NA
BRANCH  19  23
HETATM   23  C   UNL     1       4.354  27.480  48.792  1.00  0.00     0.042 C 
HETATM   24  C   UNL     1       4.271  26.000  49.213  1.00  0.00     0.039 C 
HETATM   25  C   UNL     1       2.900  27.975  48.605  1.00  0.00     0.039 C 
HETATM   26  C   UNL     1       5.091  27.551  47.441  1.00  0.00     0.039 C 
ENDBRANCH  19  23
ENDBRANCH  17  18
ENDBRANCH   1  17
BRANCH   1  27
HETATM   27  C   UNL     1       5.150  26.924  54.359  1.00  0.00     0.237 C 
BRANCH  27  28
HETATM   28  C   UNL     1       5.156  27.920  55.533  1.00  0.00     0.055 C 
BRANCH  28  29
HETATM   29  C   UNL     1       5.711  29.307  55.201  1.00  0.00     0.236 C 
BRANCH  29  30
HETATM   30  N   UNL     1       6.859  29.664  56.126  1.00  0.00    -0.067 N 
HETATM   31  H   UNL     1       6.941  30.688  56.199  1.00  0.00     0.280 HD
HETATM   32  C   UNL     1       6.611  29.160  57.562  1.00  0.00     0.261 C 
HETATM   33  C   UNL     1       7.782  29.569  58.463  1.00  0.00     0.195 C 
HETATM   34  O   UNL     1       9.012  29.045  57.958  1.00  0.00    -0.388 OA
HETATM   35  C   UNL     1       9.314  29.548  56.655  1.00  0.00     0.195 C 
HETATM   36  C   UNL     1       8.228  29.141  55.652  1.00  0.00     0.261 C 
ENDBRANCH  29  30
ENDBRANCH  28  29
ENDBRANCH  27  28
ENDBRANCH   1  27
TORSDOF 10
ENDMDL
MODEL 9
REMARK VINA RESULT:      -9.3      2.187      3.037
REMARK  10 active torsions:
REMARK  status: ('A' for Active; 'I' for Inactive)
REMARK    1  A    between atoms: C_6  and  C_7 
REMARK    2  A    between atoms: C_7  and  N_8 
REMARK    3  A    between atoms: N_8  and  C_10 
REMARK    4  A    between atoms: N_8  and  C_20 
REMARK    5  A    between atoms: C_10  and  C_11 
REMARK    6  A    between atoms: N_12  and  C_13 
REMARK    7  A    between atoms: C_20  and  C_21 
REMARK    8  A    between atoms: C_21  and  C_22 
REMARK    9  A    between atoms: C_22  and  N_23 
REMARK   10  A    between atoms: C_30  and  O_31 
ROOT
HETATM    1  N   UNL     1       5.915  27.562  53.559  1.00  0.00    -0.060 N 
HETATM    2  H   UNL     1       6.016  28.587  53.531  1.00  0.00     0.280 HD
ENDROOT
BRANCH   1   3
HETATM    3  C   UNL     1       7.360  27.052  53.444  1.00  0.00     0.278 C 
BRANCH   3   4
HETATM    4  C   UNL     1       7.603  25.591  53.635  1.00  0.00     0.021 A 
HETATM    5  C   UNL     1       7.741  25.031  54.907  1.00  0.00     0.027 A 
HETATM    6  C   UNL     1       7.912  23.644  55.061  1.00  0.00    -0.006 A 
HETATM    7  C   UNL     1       7.945  22.833  53.903  1.00  0.00     0.075 A 
HETATM    8  C   UNL     1       8.030  23.071  56.338  1.00  0.00     0.014 A 
HETATM    9  C   UNL     1       8.106  21.451  54.063  1.00  0.00    -0.032 A 
HETATM   10  N   UNL     1       7.815  23.380  52.677  1.00  0.00    -0.223 NA
HETATM   11  C   UNL     1       8.097  20.519  52.879  1.00  0.00     0.050 C 
HETATM   12  C   UNL     1       8.212  20.890  55.347  1.00  0.00     0.009 A 
HETATM   13  C   UNL     1       8.178  21.696  56.478  1.00  0.00     0.002 A 
HETATM   14  C   UNL     1       7.639  24.700  52.583  1.00  0.00     0.170 A 
BRANCH  14  15
HETATM   15  O   UNL     1       7.488  25.106  51.300  1.00  0.00    -0.344 OA
HETATM   16  H   UNL     1       8.429  25.050  51.022  1.00  0.00     0.219 HD
ENDBRANCH  14  15
ENDBRANCH   3   4
ENDBRANCH   1   3
BRANCH   1  17
HETATM   17  C   UNL     1       5.098  27.294  52.266  1.00  0.00     0.316 C 
BRANCH  17  18
HETATM   18  C   UNL     1       5.351  28.353  51.265  1.00  0.00     0.163 A 
HETATM   19  N   UNL     1       5.076  28.363  49.915  1.00  0.00    -0.253 N 
HETATM   20  N   UNL     1       5.554  29.520  49.411  1.00  0.00    -0.002 NA
HETATM   21  N   UNL     1       6.024  30.214  50.432  1.00  0.00     0.018 NA
HETATM   22  N   UNL     1       5.892  29.515  51.590  1.00  0.00    -0.145 NA
BRANCH  19  23
HETATM   23  C   UNL     1       4.414  27.424  48.996  1.00  0.00     0.042 C 
HETATM   24  C   UNL     1       4.497  25.951  49.438  1.00  0.00     0.039 C 
HETATM   25  C   UNL     1       2.912  27.778  48.894  1.00  0.00     0.039 C 
HETATM   26  C   UNL     1       5.058  27.541  47.602  1.00  0.00     0.039 C 
ENDBRANCH  19  23
ENDBRANCH  17  18
ENDBRANCH   1  17
BRANCH   1  27
HETATM   27  C   UNL     1       5.153  27.151  54.793  1.00  0.00     0.237 C 
BRANCH  27  28
HETATM   28  C   UNL     1       5.173  28.174  55.945  1.00  0.00     0.055 C 
BRANCH  28  29
HETATM   29  C   UNL     1       6.293  27.974  56.966  1.00  0.00     0.236 C 
BRANCH  29  30
HETATM   30  N   UNL     1       6.432  29.192  57.859  1.00  0.00    -0.067 N 
HETATM   31  H   UNL     1       5.884  29.056  58.721  1.00  0.00     0.280 HD
HETATM   32  C   UNL     1       7.890  29.398  58.319  1.00  0.00     0.261 C 
HETATM   33  C   UNL     1       7.975  30.620  59.240  1.00  0.00     0.195 C 
HETATM   34  O   UNL     1       7.495  31.788  58.571  1.00  0.00    -0.388 OA
HETATM   35  C   UNL     1       6.122  31.665  58.195  1.00  0.00     0.195 C 
HETATM   36  C   UNL     1       5.932  30.499  57.217  1.00  0.00     0.261 C 
ENDBRANCH  29  30
ENDBRANCH  28  29
ENDBRANCH  27  28
ENDBRANCH   1  27
TORSDOF 10
ENDMDL
MODEL 10
REMARK VINA RESULT:      -9.1      2.485      6.272
REMARK  10 active torsions:
REMARK  status: ('A' for Active; 'I' for Inactive)
REMARK    1  A    between atoms: C_6  and  C_7 
REMARK    2  A    between atoms: C_7  and  N_8 
REMARK    3  A    between atoms: N_8  and  C_10 
REMARK    4  A    between atoms: N_8  and  C_20 
REMARK    5  A    between atoms: C_10  and  C_11 
REMARK    6  A    between atoms: N_12  and  C_13 
REMARK    7  A    between atoms: C_20  and  C_21 
REMARK    8  A    between atoms: C_21  and  C_22 
REMARK    9  A    between atoms: C_22  and  N_23 
REMARK   10  A    between atoms: C_30  and  O_31 
ROOT
HETATM    1  N   UNL     1       5.763  27.131  55.375  1.00  0.00    -0.060 N 
HETATM    2  H   UNL     1       5.209  26.270  55.263  1.00  0.00     0.280 HD
ENDROOT
BRANCH   1   3
HETATM    3  C   UNL     1       7.217  26.638  55.311  1.00  0.00     0.278 C 
BRANCH   3   4
HETATM    4  C   UNL     1       7.455  25.163  55.290  1.00  0.00     0.021 A 
HETATM    5  C   UNL     1       7.494  24.444  54.094  1.00  0.00     0.027 A 
HETATM    6  C   UNL     1       7.776  23.067  54.099  1.00  0.00    -0.006 A 
HETATM    7  C   UNL     1       8.014  22.429  55.339  1.00  0.00     0.075 A 
HETATM    8  C   UNL     1       7.839  22.341  52.899  1.00  0.00     0.014 A 
HETATM    9  C   UNL     1       8.303  21.059  55.336  1.00  0.00    -0.032 A 
HETATM   10  N   UNL     1       7.970  23.129  56.491  1.00  0.00    -0.223 NA
HETATM   11  C   UNL     1       8.620  20.323  56.613  1.00  0.00     0.050 C 
HETATM   12  C   UNL     1       8.374  20.346  54.127  1.00  0.00     0.009 A 
HETATM   13  C   UNL     1       8.139  20.984  52.915  1.00  0.00     0.002 A 
HETATM   14  C   UNL     1       7.714  24.437  56.433  1.00  0.00     0.170 A 
BRANCH  14  15
HETATM   15  O   UNL     1       7.736  25.017  57.656  1.00  0.00    -0.344 OA
HETATM   16  H   UNL     1       6.819  24.796  57.935  1.00  0.00     0.219 HD
ENDBRANCH  14  15
ENDBRANCH   3   4
ENDBRANCH   1   3
BRANCH   1  17
HETATM   17  C   UNL     1       5.363  27.575  56.808  1.00  0.00     0.316 C 
BRANCH  17  18
HETATM   18  C   UNL     1       6.415  28.431  57.398  1.00  0.00     0.163 A 
HETATM   19  N   UNL     1       6.405  29.788  57.637  1.00  0.00    -0.253 N 
HETATM   20  N   UNL     1       7.620  30.125  58.122  1.00  0.00    -0.002 NA
HETATM   21  N   UNL     1       8.304  29.002  58.245  1.00  0.00     0.018 NA
HETATM   22  N   UNL     1       7.569  27.941  57.817  1.00  0.00    -0.145 NA
BRANCH  19  23
HETATM   23  C   UNL     1       5.401  30.851  57.477  1.00  0.00     0.042 C 
HETATM   24  C   UNL     1       3.981  30.442  57.910  1.00  0.00     0.039 C 
HETATM   25  C   UNL     1       5.800  32.070  58.341  1.00  0.00     0.039 C 
HETATM   26  C   UNL     1       5.345  31.276  55.997  1.00  0.00     0.039 C 
ENDBRANCH  19  23
ENDBRANCH  17  18
ENDBRANCH   1  17
BRANCH   1  27
HETATM   27  C   UNL     1       5.352  28.149  54.342  1.00  0.00     0.237 C 
BRANCH  27  28
HETATM   28  C   UNL     1       4.129  27.759  53.491  1.00  0.00     0.055 C 
BRANCH  28  29
HETATM   29  C   UNL     1       3.797  28.730  52.356  1.00  0.00     0.236 C 
BRANCH  29  30
HETATM   30  N   UNL     1       3.677  27.995  51.035  1.00  0.00    -0.067 N 
HETATM   31  H   UNL     1       2.804  27.448  51.018  1.00  0.00     0.280 HD
HETATM   32  C   UNL     1       3.580  28.972  49.846  1.00  0.00     0.261 C 
HETATM   33  C   UNL     1       3.432  28.186  48.539  1.00  0.00     0.195 C 
HETATM   34  O   UNL     1       4.535  27.295  48.361  1.00  0.00    -0.388 OA
HETATM   35  C   UNL     1       4.614  26.324  49.406  1.00  0.00     0.195 C 
HETATM   36  C   UNL     1       4.826  27.006  50.764  1.00  0.00     0.261 C 
ENDBRANCH  29  30
ENDBRANCH  28  29
ENDBRANCH  27  28
ENDBRANCH   1  27
TORSDOF 10
ENDMDL
