MODEL 1
REMARK VINA RESULT:     -11.0      0.000      0.000
REMARK  8 active torsions:
REMARK  status: ('A' for Active; 'I' for Inactive)
REMARK    1  A    between atoms: C_4  and  C_5 
REMARK    2  A    between atoms: C_5  and  N_6 
REMARK    3  A    between atoms: C_5  and  C_36 
REMARK    4  A    between atoms: N_10  and  C_11 
REMARK    5  A    between atoms: C_13  and  C_14 
REMARK       I    between atoms: C_14  and  N_15 
REMARK    6  A    between atoms: N_15  and  C_16 
REMARK    7  A    between atoms: C_19  and  O_20 
REMARK    8  A    between atoms: O_20  and  C_21 
ROOT
HETATM    1  C   UNL     1       7.458  27.678  57.669  1.00  0.00     0.181 C 
HETATM    2  N   UNL     1       6.242  28.275  57.597  1.00  0.00    -0.249 NA
HETATM    3  C   UNL     1       6.123  29.732  57.494  1.00  0.00     0.164 C 
HETATM    4  C   UNL     1       7.415  30.460  57.752  1.00  0.00     0.134 C 
HETATM    5  C   UNL     1       8.589  29.632  57.317  1.00  0.00     0.247 C 
HETATM    6  O   UNL     1       9.567  30.181  56.817  1.00  0.00    -0.271 OA
HETATM    7  N   UNL     1       8.588  28.296  57.622  1.00  0.00    -0.185 NA
HETATM    8  H   UNL     1       5.700  27.852  56.837  1.00  0.00     0.131 HD
ENDROOT
BRANCH   1   9
HETATM    9  N   UNL     1       7.385  26.306  57.817  1.00  0.00    -0.353 N 
HETATM   10  C   UNL     1       8.475  25.388  57.446  1.00  0.00     0.153 C 
HETATM   11  C   UNL     1       8.225  24.834  56.032  1.00  0.00     0.256 C 
HETATM   12  N   UNL     1       6.865  24.133  55.995  1.00  0.00    -0.056 N 
HETATM   13  H   UNL     1       6.890  23.430  56.739  1.00  0.00     0.281 HD
HETATM   14  C   UNL     1       5.747  25.096  56.414  1.00  0.00     0.256 C 
HETATM   15  C   UNL     1       6.057  25.653  57.824  1.00  0.00     0.153 C 
BRANCH  12  16
HETATM   16  C   UNL     1       6.648  23.320  54.718  1.00  0.00     0.254 C 
BRANCH  16  17
HETATM   17  C   UNL     1       7.517  22.071  54.605  1.00  0.00    -0.023 A 
HETATM   18  C   UNL     1       7.904  21.618  53.328  1.00  0.00     0.009 A 
HETATM   19  C   UNL     1       8.676  20.465  53.174  1.00  0.00     0.001 A 
HETATM   20  C   UNL     1       9.079  19.743  54.293  1.00  0.00     0.000 A 
HETATM   21  C   UNL     1       8.718  20.178  55.565  1.00  0.00     0.001 A 
HETATM   22  C   UNL     1       7.945  21.331  55.721  1.00  0.00     0.009 A 
ENDBRANCH  16  17
BRANCH  16  23
HETATM   23  C   UNL     1       6.491  24.196  53.474  1.00  0.00    -0.023 A 
HETATM   24  C   UNL     1       7.573  24.648  52.702  1.00  0.00     0.009 A 
HETATM   25  C   UNL     1       7.367  25.427  51.559  1.00  0.00     0.001 A 
HETATM   26  C   UNL     1       6.078  25.769  51.163  1.00  0.00     0.000 A 
HETATM   27  C   UNL     1       4.989  25.325  51.903  1.00  0.00     0.001 A 
HETATM   28  C   UNL     1       5.191  24.543  53.043  1.00  0.00     0.009 A 
ENDBRANCH  16  23
ENDBRANCH  12  16
ENDBRANCH   1   9
BRANCH   3  29
HETATM   29  C   UNL     1       5.482  30.089  56.139  1.00  0.00     0.240 C 
HETATM   30  N   UNL     1       5.153  28.984  55.369  1.00  0.00    -0.326 N 
HETATM   31  H   UNL     1       5.308  28.065  55.767  1.00  0.00     0.169 HD
HETATM   32  O   UNL     1       5.425  31.268  55.790  1.00  0.00    -0.271 OA
BRANCH  30  33
HETATM   33  C   UNL     1       4.824  28.990  53.994  1.00  0.00     0.034 A 
HETATM   34  C   UNL     1       5.886  28.933  53.081  1.00  0.00     0.032 A 
HETATM   35  C   UNL     1       5.652  29.028  51.705  1.00  0.00     0.039 A 
HETATM   36  C   UNL     1       4.346  29.134  51.228  1.00  0.00     0.076 A 
HETATM   37  C   UNL     1       3.285  29.175  52.130  1.00  0.00     0.039 A 
HETATM   38  C   UNL     1       3.520  29.099  53.506  1.00  0.00     0.032 A 
BRANCH  36  39
HETATM   39  O   UNL     1       4.022  29.302  49.903  1.00  0.00    -0.311 OA
BRANCH  39  40
HETATM   40  C   UNL     1       3.689  28.201  49.149  1.00  0.00     0.076 A 
HETATM   41  C   UNL     1       2.374  27.829  48.860  1.00  0.00     0.037 A 
HETATM   42  C   UNL     1       2.129  26.726  48.042  1.00  0.00     0.003 A 
HETATM   43  C   UNL     1       3.193  26.011  47.491  1.00  0.00     0.000 A 
HETATM   44  C   UNL     1       4.506  26.403  47.753  1.00  0.00     0.003 A 
HETATM   45  C   UNL     1       4.753  27.501  48.578  1.00  0.00     0.037 A 
ENDBRANCH  39  40
ENDBRANCH  36  39
ENDBRANCH  30  33
ENDBRANCH   3  29
TORSDOF 8
ENDMDL
MODEL 2
REMARK VINA RESULT:     -11.0      4.706     10.012
REMARK  8 active torsions:
REMARK  status: ('A' for Active; 'I' for Inactive)
REMARK    1  A    between atoms: C_4  and  C_5 
REMARK    2  A    between atoms: C_5  and  N_6 
REMARK    3  A    between atoms: C_5  and  C_36 
REMARK    4  A    between atoms: N_10  and  C_11 
REMARK    5  A    between atoms: C_13  and  C_14 
REMARK       I    between atoms: C_14  and  N_15 
REMARK    6  A    between atoms: N_15  and  C_16 
REMARK    7  A    between atoms: C_19  and  O_20 
REMARK    8  A    between atoms: O_20  and  C_21 
ROOT
HETATM    1  C   UNL     1       3.302  32.312  58.356  1.00  0.00     0.181 C 
HETATM    2  N   UNL     1       3.303  30.955  58.345  1.00  0.00    -0.249 NA
HETATM    3  C   UNL     1       3.342  30.212  57.083  1.00  0.00     0.164 C 
HETATM    4  C   UNL     1       3.105  31.073  55.872  1.00  0.00     0.134 C 
HETATM    5  C   UNL     1       3.618  32.465  56.098  1.00  0.00     0.247 C 
HETATM    6  O   UNL     1       4.132  33.082  55.168  1.00  0.00    -0.271 OA
HETATM    7  N   UNL     1       3.368  33.059  57.308  1.00  0.00    -0.185 NA
HETATM    8  H   UNL     1       4.059  30.611  58.946  1.00  0.00     0.131 HD
ENDROOT
BRANCH   1   9
HETATM    9  N   UNL     1       3.208  32.848  59.626  1.00  0.00    -0.353 N 
HETATM   10  C   UNL     1       3.603  34.226  59.960  1.00  0.00     0.153 C 
HETATM   11  C   UNL     1       5.040  34.233  60.512  1.00  0.00     0.256 C 
HETATM   12  N   UNL     1       5.116  33.317  61.736  1.00  0.00    -0.056 N 
HETATM   13  H   UNL     1       4.400  33.653  62.385  1.00  0.00     0.281 HD
HETATM   14  C   UNL     1       4.672  31.893  61.376  1.00  0.00     0.256 C 
HETATM   15  C   UNL     1       3.239  31.939  60.794  1.00  0.00     0.153 C 
BRANCH  12  16
HETATM   16  C   UNL     1       6.426  33.467  62.511  1.00  0.00     0.254 C 
BRANCH  16  17
HETATM   17  C   UNL     1       7.539  32.524  62.064  1.00  0.00    -0.023 A 
HETATM   18  C   UNL     1       8.248  32.812  60.880  1.00  0.00     0.009 A 
HETATM   19  C   UNL     1       9.256  31.965  60.418  1.00  0.00     0.001 A 
HETATM   20  C   UNL     1       9.580  30.814  61.130  1.00  0.00     0.000 A 
HETATM   21  C   UNL     1       8.900  30.516  62.307  1.00  0.00     0.001 A 
HETATM   22  C   UNL     1       7.891  31.362  62.772  1.00  0.00     0.009 A 
ENDBRANCH  16  17
BRANCH  16  23
HETATM   23  C   UNL     1       6.210  33.657  64.013  1.00  0.00    -0.023 A 
HETATM   24  C   UNL     1       7.249  33.931  64.918  1.00  0.00     0.009 A 
HETATM   25  C   UNL     1       6.988  34.121  66.278  1.00  0.00     0.001 A 
HETATM   26  C   UNL     1       5.687  34.044  66.763  1.00  0.00     0.000 A 
HETATM   27  C   UNL     1       4.639  33.785  65.887  1.00  0.00     0.001 A 
HETATM   28  C   UNL     1       4.895  33.599  64.526  1.00  0.00     0.009 A 
ENDBRANCH  16  23
ENDBRANCH  12  16
ENDBRANCH   1   9
BRANCH   3  29
HETATM   29  C   UNL     1       4.656  29.410  57.013  1.00  0.00     0.240 C 
HETATM   30  N   UNL     1       4.518  28.165  56.418  1.00  0.00    -0.326 N 
HETATM   31  H   UNL     1       3.610  27.914  56.046  1.00  0.00     0.169 HD
HETATM   32  O   UNL     1       5.660  29.845  57.576  1.00  0.00    -0.271 OA
BRANCH  30  33
HETATM   33  C   UNL     1       5.455  27.107  56.465  1.00  0.00     0.034 A 
HETATM   34  C   UNL     1       6.699  27.327  55.856  1.00  0.00     0.032 A 
HETATM   35  C   UNL     1       7.648  26.300  55.777  1.00  0.00     0.039 A 
HETATM   36  C   UNL     1       7.376  25.058  56.350  1.00  0.00     0.076 A 
HETATM   37  C   UNL     1       6.148  24.839  56.971  1.00  0.00     0.039 A 
HETATM   38  C   UNL     1       5.193  25.859  57.032  1.00  0.00     0.032 A 
BRANCH  36  39
HETATM   39  O   UNL     1       8.213  23.972  56.264  1.00  0.00    -0.311 OA
BRANCH  39  40
HETATM   40  C   UNL     1       8.040  23.071  55.239  1.00  0.00     0.076 A 
HETATM   41  C   UNL     1       8.021  23.427  53.888  1.00  0.00     0.037 A 
HETATM   42  C   UNL     1       7.891  22.440  52.911  1.00  0.00     0.003 A 
HETATM   43  C   UNL     1       7.808  21.097  53.280  1.00  0.00     0.000 A 
HETATM   44  C   UNL     1       7.859  20.738  54.627  1.00  0.00     0.003 A 
HETATM   45  C   UNL     1       7.980  21.725  55.606  1.00  0.00     0.037 A 
ENDBRANCH  39  40
ENDBRANCH  36  39
ENDBRANCH  30  33
ENDBRANCH   3  29
TORSDOF 8
ENDMDL
MODEL 3
REMARK VINA RESULT:     -10.9      0.806      3.122
REMARK  8 active torsions:
REMARK  status: ('A' for Active; 'I' for Inactive)
REMARK    1  A    between atoms: C_4  and  C_5 
REMARK    2  A    between atoms: C_5  and  N_6 
REMARK    3  A    between atoms: C_5  and  C_36 
REMARK    4  A    between atoms: N_10  and  C_11 
REMARK    5  A    between atoms: C_13  and  C_14 
REMARK       I    between atoms: C_14  and  N_15 
REMARK    6  A    between atoms: N_15  and  C_16 
REMARK    7  A    between atoms: C_19  and  O_20 
REMARK    8  A    between atoms: O_20  and  C_21 
ROOT
HETATM    1  C   UNL     1       6.758  28.054  57.797  1.00  0.00     0.181 C 
HETATM    2  N   UNL     1       5.555  28.593  57.476  1.00  0.00    -0.249 NA
HETATM    3  C   UNL     1       5.334  30.040  57.546  1.00  0.00     0.164 C 
HETATM    4  C   UNL     1       6.439  30.783  58.247  1.00  0.00     0.134 C 
HETATM    5  C   UNL     1       7.758  30.095  58.043  1.00  0.00     0.247 C 
HETATM    6  O   UNL     1       8.779  30.765  57.912  1.00  0.00    -0.271 OA
HETATM    7  N   UNL     1       7.799  28.729  58.148  1.00  0.00    -0.185 NA
HETATM    8  H   UNL     1       5.274  28.268  56.545  1.00  0.00     0.131 HD
ENDROOT
BRANCH   1   9
HETATM    9  N   UNL     1       6.774  26.674  57.729  1.00  0.00    -0.353 N 
HETATM   10  C   UNL     1       8.010  25.876  57.676  1.00  0.00     0.153 C 
HETATM   11  C   UNL     1       8.347  25.541  56.212  1.00  0.00     0.256 C 
HETATM   12  N   UNL     1       7.172  24.793  55.580  1.00  0.00    -0.056 N 
HETATM   13  H   UNL     1       6.996  23.984  56.181  1.00  0.00     0.281 HD
HETATM   14  C   UNL     1       5.887  25.627  55.671  1.00  0.00     0.256 C 
HETATM   15  C   UNL     1       5.607  25.969  57.154  1.00  0.00     0.153 C 
BRANCH  12  16
HETATM   16  C   UNL     1       7.516  24.183  54.220  1.00  0.00     0.254 C 
BRANCH  16  17
HETATM   17  C   UNL     1       6.628  24.652  53.071  1.00  0.00    -0.023 A 
HETATM   18  C   UNL     1       7.172  25.506  52.090  1.00  0.00     0.009 A 
HETATM   19  C   UNL     1       6.391  25.983  51.035  1.00  0.00     0.001 A 
HETATM   20  C   UNL     1       5.054  25.615  50.937  1.00  0.00     0.000 A 
HETATM   21  C   UNL     1       4.499  24.764  51.889  1.00  0.00     0.001 A 
HETATM   22  C   UNL     1       5.278  24.286  52.945  1.00  0.00     0.009 A 
ENDBRANCH  16  17
BRANCH  16  23
HETATM   23  C   UNL     1       7.848  22.693  54.304  1.00  0.00    -0.023 A 
HETATM   24  C   UNL     1       7.764  21.944  55.489  1.00  0.00     0.009 A 
HETATM   25  C   UNL     1       8.057  20.576  55.499  1.00  0.00     0.001 A 
HETATM   26  C   UNL     1       8.437  19.929  54.329  1.00  0.00     0.000 A 
HETATM   27  C   UNL     1       8.517  20.644  53.140  1.00  0.00     0.001 A 
HETATM   28  C   UNL     1       8.221  22.009  53.124  1.00  0.00     0.009 A 
ENDBRANCH  16  23
ENDBRANCH  12  16
ENDBRANCH   1   9
BRANCH   3  29
HETATM   29  C   UNL     1       5.044  30.573  56.130  1.00  0.00     0.240 C 
HETATM   30  N   UNL     1       4.610  29.598  55.245  1.00  0.00    -0.326 N 
HETATM   31  H   UNL     1       4.475  28.660  55.601  1.00  0.00     0.169 HD
HETATM   32  O   UNL     1       5.325  31.740  55.854  1.00  0.00    -0.271 OA
BRANCH  30  33
HETATM   33  C   UNL     1       4.541  29.717  53.838  1.00  0.00     0.034 A 
HETATM   34  C   UNL     1       3.476  30.461  53.309  1.00  0.00     0.032 A 
HETATM   35  C   UNL     1       3.283  30.550  51.926  1.00  0.00     0.039 A 
HETATM   36  C   UNL     1       4.183  29.933  51.058  1.00  0.00     0.076 A 
HETATM   37  C   UNL     1       5.253  29.206  51.577  1.00  0.00     0.039 A 
HETATM   38  C   UNL     1       5.434  29.101  52.959  1.00  0.00     0.032 A 
BRANCH  36  39
HETATM   39  O   UNL     1       4.039  29.906  49.691  1.00  0.00    -0.311 OA
BRANCH  39  40
HETATM   40  C   UNL     1       3.898  28.695  49.055  1.00  0.00     0.076 A 
HETATM   41  C   UNL     1       2.716  27.950  49.060  1.00  0.00     0.037 A 
HETATM   42  C   UNL     1       2.646  26.755  48.343  1.00  0.00     0.003 A 
HETATM   43  C   UNL     1       3.744  26.317  47.602  1.00  0.00     0.000 A 
HETATM   44  C   UNL     1       4.913  27.077  47.571  1.00  0.00     0.003 A 
HETATM   45  C   UNL     1       4.988  28.268  48.294  1.00  0.00     0.037 A 
ENDBRANCH  39  40
ENDBRANCH  36  39
ENDBRANCH  30  33
ENDBRANCH   3  29
TORSDOF 8
ENDMDL
MODEL 4
REMARK VINA RESULT:     -10.8      1.349      3.504
REMARK  8 active torsions:
REMARK  status: ('A' for Active; 'I' for Inactive)
REMARK    1  A    between atoms: C_4  and  C_5 
REMARK    2  A    between atoms: C_5  and  N_6 
REMARK    3  A    between atoms: C_5  and  C_36 
REMARK    4  A    between atoms: N_10  and  C_11 
REMARK    5  A    between atoms: C_13  and  C_14 
REMARK       I    between atoms: C_14  and  N_15 
REMARK    6  A    between atoms: N_15  and  C_16 
REMARK    7  A    between atoms: C_19  and  O_20 
REMARK    8  A    between atoms: O_20  and  C_21 
ROOT
HETATM    1  C   UNL     1       6.523  28.886  57.560  1.00  0.00     0.181 C 
HETATM    2  N   UNL     1       5.345  28.491  57.014  1.00  0.00    -0.249 NA
HETATM    3  C   UNL     1       4.193  29.395  56.975  1.00  0.00     0.164 C 
HETATM    4  C   UNL     1       4.369  30.630  57.815  1.00  0.00     0.134 C 
HETATM    5  C   UNL     1       5.814  31.036  57.871  1.00  0.00     0.247 C 
HETATM    6  O   UNL     1       6.110  32.228  57.882  1.00  0.00    -0.271 OA
HETATM    7  N   UNL     1       6.755  30.055  58.049  1.00  0.00    -0.185 NA
HETATM    8  H   UNL     1       5.512  28.138  56.066  1.00  0.00     0.131 HD
ENDROOT
BRANCH   1   9
HETATM    9  N   UNL     1       7.484  27.893  57.564  1.00  0.00    -0.353 N 
HETATM   10  C   UNL     1       8.648  27.883  56.663  1.00  0.00     0.153 C 
HETATM   11  C   UNL     1       8.344  27.011  55.433  1.00  0.00     0.256 C 
HETATM   12  N   UNL     1       7.979  25.597  55.891  1.00  0.00    -0.056 N 
HETATM   13  H   UNL     1       8.762  25.277  56.467  1.00  0.00     0.281 HD
HETATM   14  C   UNL     1       6.783  25.629  56.851  1.00  0.00     0.256 C 
HETATM   15  C   UNL     1       7.121  26.543  58.053  1.00  0.00     0.153 C 
BRANCH  12  16
HETATM   16  C   UNL     1       7.925  24.592  54.738  1.00  0.00     0.254 C 
BRANCH  16  17
HETATM   17  C   UNL     1       6.904  24.925  53.655  1.00  0.00    -0.023 A 
HETATM   18  C   UNL     1       5.529  24.845  53.959  1.00  0.00     0.009 A 
HETATM   19  C   UNL     1       4.559  25.114  52.993  1.00  0.00     0.001 A 
HETATM   20  C   UNL     1       4.940  25.471  51.704  1.00  0.00     0.000 A 
HETATM   21  C   UNL     1       6.292  25.567  51.383  1.00  0.00     0.001 A 
HETATM   22  C   UNL     1       7.265  25.298  52.349  1.00  0.00     0.009 A 
ENDBRANCH  16  17
BRANCH  16  23
HETATM   23  C   UNL     1       8.021  23.141  55.209  1.00  0.00    -0.023 A 
HETATM   24  C   UNL     1       8.367  22.771  56.519  1.00  0.00     0.009 A 
HETATM   25  C   UNL     1       8.414  21.426  56.899  1.00  0.00     0.001 A 
HETATM   26  C   UNL     1       8.115  20.424  55.982  1.00  0.00     0.000 A 
HETATM   27  C   UNL     1       7.758  20.763  54.682  1.00  0.00     0.001 A 
HETATM   28  C   UNL     1       7.706  22.106  54.300  1.00  0.00     0.009 A 
ENDBRANCH  16  23
ENDBRANCH  12  16
ENDBRANCH   1   9
BRANCH   3  29
HETATM   29  C   UNL     1       3.845  29.702  55.505  1.00  0.00     0.240 C 
HETATM   30  N   UNL     1       4.272  28.727  54.616  1.00  0.00    -0.326 N 
HETATM   31  H   UNL     1       4.715  27.899  54.995  1.00  0.00     0.169 HD
HETATM   32  O   UNL     1       3.355  30.793  55.216  1.00  0.00    -0.271 OA
BRANCH  30  33
HETATM   33  C   UNL     1       4.354  28.856  53.210  1.00  0.00     0.034 A 
HETATM   34  C   UNL     1       3.159  28.741  52.486  1.00  0.00     0.032 A 
HETATM   35  C   UNL     1       3.166  28.764  51.086  1.00  0.00     0.039 A 
HETATM   36  C   UNL     1       4.366  28.950  50.401  1.00  0.00     0.076 A 
HETATM   37  C   UNL     1       5.555  29.080  51.116  1.00  0.00     0.039 A 
HETATM   38  C   UNL     1       5.550  29.038  52.514  1.00  0.00     0.032 A 
BRANCH  36  39
HETATM   39  O   UNL     1       4.483  28.917  49.032  1.00  0.00    -0.311 OA
BRANCH  39  40
HETATM   40  C   UNL     1       3.875  27.902  48.330  1.00  0.00     0.076 A 
HETATM   41  C   UNL     1       4.312  26.575  48.351  1.00  0.00     0.037 A 
HETATM   42  C   UNL     1       3.602  25.600  47.649  1.00  0.00     0.003 A 
HETATM   43  C   UNL     1       2.443  25.943  46.952  1.00  0.00     0.000 A 
HETATM   44  C   UNL     1       1.989  27.261  46.958  1.00  0.00     0.003 A 
HETATM   45  C   UNL     1       2.702  28.240  47.651  1.00  0.00     0.037 A 
ENDBRANCH  39  40
ENDBRANCH  36  39
ENDBRANCH  30  33
ENDBRANCH   3  29
TORSDOF 8
ENDMDL
MODEL 5
REMARK VINA RESULT:     -10.7      6.123     11.729
REMARK  8 active torsions:
REMARK  status: ('A' for Active; 'I' for Inactive)
REMARK    1  A    between atoms: C_4  and  C_5 
REMARK    2  A    between atoms: C_5  and  N_6 
REMARK    3  A    between atoms: C_5  and  C_36 
REMARK    4  A    between atoms: N_10  and  C_11 
REMARK    5  A    between atoms: C_13  and  C_14 
REMARK       I    between atoms: C_14  and  N_15 
REMARK    6  A    between atoms: N_15  and  C_16 
REMARK    7  A    between atoms: C_19  and  O_20 
REMARK    8  A    between atoms: O_20  and  C_21 
ROOT
HETATM    1  C   UNL     1       4.705  32.316  59.457  1.00  0.00     0.181 C 
HETATM    2  N   UNL     1       4.047  31.239  58.959  1.00  0.00    -0.249 NA
HETATM    3  C   UNL     1       3.556  31.227  57.579  1.00  0.00     0.164 C 
HETATM    4  C   UNL     1       3.610  32.574  56.911  1.00  0.00     0.134 C 
HETATM    5  C   UNL     1       4.758  33.386  57.438  1.00  0.00     0.247 C 
HETATM    6  O   UNL     1       5.380  34.123  56.678  1.00  0.00    -0.271 OA
HETATM    7  N   UNL     1       4.987  33.382  58.789  1.00  0.00    -0.185 NA
HETATM    8  H   UNL     1       4.613  30.396  59.108  1.00  0.00     0.131 HD
ENDROOT
BRANCH   1   9
HETATM    9  N   UNL     1       5.049  32.179  60.788  1.00  0.00    -0.353 N 
HETATM   10  C   UNL     1       4.074  31.899  61.856  1.00  0.00     0.153 C 
HETATM   11  C   UNL     1       3.649  33.216  62.527  1.00  0.00     0.256 C 
HETATM   12  N   UNL     1       4.888  33.930  63.074  1.00  0.00    -0.056 N 
HETATM   13  H   UNL     1       5.351  33.258  63.691  1.00  0.00     0.281 HD
HETATM   14  C   UNL     1       5.904  34.187  61.954  1.00  0.00     0.256 C 
HETATM   15  C   UNL     1       6.276  32.842  61.286  1.00  0.00     0.153 C 
BRANCH  12  16
HETATM   16  C   UNL     1       4.543  35.105  63.990  1.00  0.00     0.254 C 
BRANCH  16  17
HETATM   17  C   UNL     1       4.619  36.475  63.321  1.00  0.00    -0.023 A 
HETATM   18  C   UNL     1       3.523  36.927  62.558  1.00  0.00     0.009 A 
HETATM   19  C   UNL     1       3.558  38.160  61.905  1.00  0.00     0.001 A 
HETATM   20  C   UNL     1       4.685  38.969  62.004  1.00  0.00     0.000 A 
HETATM   21  C   UNL     1       5.775  38.547  62.761  1.00  0.00     0.001 A 
HETATM   22  C   UNL     1       5.743  37.313  63.415  1.00  0.00     0.009 A 
ENDBRANCH  16  17
BRANCH  16  23
HETATM   23  C   UNL     1       5.135  34.961  65.392  1.00  0.00    -0.023 A 
HETATM   24  C   UNL     1       4.559  35.529  66.540  1.00  0.00     0.009 A 
HETATM   25  C   UNL     1       5.133  35.342  67.802  1.00  0.00     0.001 A 
HETATM   26  C   UNL     1       6.289  34.583  67.944  1.00  0.00     0.000 A 
HETATM   27  C   UNL     1       6.873  34.000  66.826  1.00  0.00     0.001 A 
HETATM   28  C   UNL     1       6.301  34.181  65.564  1.00  0.00     0.009 A 
ENDBRANCH  16  23
ENDBRANCH  12  16
ENDBRANCH   1   9
BRANCH   3  29
HETATM   29  C   UNL     1       4.295  30.127  56.792  1.00  0.00     0.240 C 
HETATM   30  N   UNL     1       4.591  29.003  57.548  1.00  0.00    -0.326 N 
HETATM   31  H   UNL     1       4.264  28.977  58.507  1.00  0.00     0.169 HD
HETATM   32  O   UNL     1       4.671  30.356  55.642  1.00  0.00    -0.271 OA
BRANCH  30  33
HETATM   33  C   UNL     1       5.492  27.972  57.197  1.00  0.00     0.034 A 
HETATM   34  C   UNL     1       4.939  26.742  56.814  1.00  0.00     0.032 A 
HETATM   35  C   UNL     1       5.761  25.642  56.541  1.00  0.00     0.039 A 
HETATM   36  C   UNL     1       7.147  25.780  56.602  1.00  0.00     0.076 A 
HETATM   37  C   UNL     1       7.703  27.004  56.966  1.00  0.00     0.039 A 
HETATM   38  C   UNL     1       6.881  28.097  57.258  1.00  0.00     0.032 A 
BRANCH  36  39
HETATM   39  O   UNL     1       8.032  24.743  56.419  1.00  0.00    -0.311 OA
BRANCH  39  40
HETATM   40  C   UNL     1       7.942  23.978  55.279  1.00  0.00     0.076 A 
HETATM   41  C   UNL     1       7.997  24.505  53.986  1.00  0.00     0.037 A 
HETATM   42  C   UNL     1       7.951  23.648  52.886  1.00  0.00     0.003 A 
HETATM   43  C   UNL     1       7.878  22.268  53.075  1.00  0.00     0.000 A 
HETATM   44  C   UNL     1       7.856  21.740  54.366  1.00  0.00     0.003 A 
HETATM   45  C   UNL     1       7.893  22.596  55.468  1.00  0.00     0.037 A 
ENDBRANCH  39  40
ENDBRANCH  36  39
ENDBRANCH  30  33
ENDBRANCH   3  29
TORSDOF 8
ENDMDL
MODEL 6
REMARK VINA RESULT:     -10.7      4.714      9.513
REMARK  8 active torsions:
REMARK  status: ('A' for Active; 'I' for Inactive)
REMARK    1  A    between atoms: C_4  and  C_5 
REMARK    2  A    between atoms: C_5  and  N_6 
REMARK    3  A    between atoms: C_5  and  C_36 
REMARK    4  A    between atoms: N_10  and  C_11 
REMARK    5  A    between atoms: C_13  and  C_14 
REMARK       I    between atoms: C_14  and  N_15 
REMARK    6  A    between atoms: N_15  and  C_16 
REMARK    7  A    between atoms: C_19  and  O_20 
REMARK    8  A    between atoms: O_20  and  C_21 
ROOT
HETATM    1  C   UNL     1       6.047  28.504  57.498  1.00  0.00     0.181 C 
HETATM    2  N   UNL     1       7.105  29.351  57.562  1.00  0.00    -0.249 NA
HETATM    3  C   UNL     1       6.914  30.802  57.490  1.00  0.00     0.164 C 
HETATM    4  C   UNL     1       5.526  31.205  57.075  1.00  0.00     0.134 C 
HETATM    5  C   UNL     1       4.515  30.199  57.543  1.00  0.00     0.247 C 
HETATM    6  O   UNL     1       3.408  30.578  57.918  1.00  0.00    -0.271 OA
HETATM    7  N   UNL     1       4.814  28.868  57.407  1.00  0.00    -0.185 NA
HETATM    8  H   UNL     1       7.661  29.139  58.397  1.00  0.00     0.131 HD
ENDROOT
BRANCH   1   9
HETATM    9  N   UNL     1       6.411  27.171  57.524  1.00  0.00    -0.353 N 
HETATM   10  C   UNL     1       7.797  26.702  57.358  1.00  0.00     0.153 C 
HETATM   11  C   UNL     1       8.038  26.312  55.889  1.00  0.00     0.256 C 
HETATM   12  N   UNL     1       7.030  25.236  55.478  1.00  0.00    -0.056 N 
HETATM   13  H   UNL     1       7.139  24.475  56.153  1.00  0.00     0.281 HD
HETATM   14  C   UNL     1       5.593  25.731  55.687  1.00  0.00     0.256 C 
HETATM   15  C   UNL     1       5.407  26.144  57.166  1.00  0.00     0.153 C 
BRANCH  12  16
HETATM   16  C   UNL     1       7.361  24.593  54.130  1.00  0.00     0.254 C 
BRANCH  16  17
HETATM   17  C   UNL     1       6.498  25.078  52.968  1.00  0.00    -0.023 A 
HETATM   18  C   UNL     1       6.850  26.270  52.303  1.00  0.00     0.009 A 
HETATM   19  C   UNL     1       6.077  26.765  51.253  1.00  0.00     0.001 A 
HETATM   20  C   UNL     1       4.938  26.080  50.842  1.00  0.00     0.000 A 
HETATM   21  C   UNL     1       4.577  24.895  51.477  1.00  0.00     0.001 A 
HETATM   22  C   UNL     1       5.350  24.397  52.529  1.00  0.00     0.009 A 
ENDBRANCH  16  17
BRANCH  16  23
HETATM   23  C   UNL     1       7.639  23.094  54.238  1.00  0.00    -0.023 A 
HETATM   24  C   UNL     1       8.061  22.303  53.157  1.00  0.00     0.009 A 
HETATM   25  C   UNL     1       8.325  20.940  53.321  1.00  0.00     0.001 A 
HETATM   26  C   UNL     1       8.175  20.339  54.566  1.00  0.00     0.000 A 
HETATM   27  C   UNL     1       7.769  21.101  55.655  1.00  0.00     0.001 A 
HETATM   28  C   UNL     1       7.508  22.464  55.496  1.00  0.00     0.009 A 
ENDBRANCH  16  23
ENDBRANCH  12  16
ENDBRANCH   1   9
BRANCH   3  29
HETATM   29  C   UNL     1       7.359  31.433  58.824  1.00  0.00     0.240 C 
HETATM   30  N   UNL     1       6.353  31.491  59.776  1.00  0.00    -0.326 N 
HETATM   31  H   UNL     1       5.456  31.083  59.545  1.00  0.00     0.169 HD
HETATM   32  O   UNL     1       8.479  31.937  58.909  1.00  0.00    -0.271 OA
BRANCH  30  33
HETATM   33  C   UNL     1       6.371  32.256  60.966  1.00  0.00     0.034 A 
HETATM   34  C   UNL     1       5.677  33.474  60.955  1.00  0.00     0.032 A 
HETATM   35  C   UNL     1       5.722  34.333  62.059  1.00  0.00     0.039 A 
HETATM   36  C   UNL     1       6.423  33.956  63.203  1.00  0.00     0.076 A 
HETATM   37  C   UNL     1       7.102  32.739  63.226  1.00  0.00     0.039 A 
HETATM   38  C   UNL     1       7.073  31.890  62.116  1.00  0.00     0.032 A 
BRANCH  36  39
HETATM   39  O   UNL     1       6.582  34.759  64.308  1.00  0.00    -0.311 OA
BRANCH  39  40
HETATM   40  C   UNL     1       5.627  34.736  65.297  1.00  0.00     0.076 A 
HETATM   41  C   UNL     1       5.775  34.042  66.501  1.00  0.00     0.037 A 
HETATM   42  C   UNL     1       4.776  34.116  67.472  1.00  0.00     0.003 A 
HETATM   43  C   UNL     1       3.644  34.902  67.254  1.00  0.00     0.000 A 
HETATM   44  C   UNL     1       3.511  35.620  66.065  1.00  0.00     0.003 A 
HETATM   45  C   UNL     1       4.505  35.540  65.089  1.00  0.00     0.037 A 
ENDBRANCH  39  40
ENDBRANCH  36  39
ENDBRANCH  30  33
ENDBRANCH   3  29
TORSDOF 8
ENDMDL
MODEL 7
REMARK VINA RESULT:     -10.5      4.703      9.225
REMARK  8 active torsions:
REMARK  status: ('A' for Active; 'I' for Inactive)
REMARK    1  A    between atoms: C_4  and  C_5 
REMARK    2  A    between atoms: C_5  and  N_6 
REMARK    3  A    between atoms: C_5  and  C_36 
REMARK    4  A    between atoms: N_10  and  C_11 
REMARK    5  A    between atoms: C_13  and  C_14 
REMARK       I    between atoms: C_14  and  N_15 
REMARK    6  A    between atoms: N_15  and  C_16 
REMARK    7  A    between atoms: C_19  and  O_20 
REMARK    8  A    between atoms: O_20  and  C_21 
ROOT
HETATM    1  C   UNL     1       8.264  28.274  57.742  1.00  0.00     0.181 C 
HETATM    2  N   UNL     1       8.038  28.897  58.927  1.00  0.00    -0.249 NA
HETATM    3  C   UNL     1       8.801  30.087  59.310  1.00  0.00     0.164 C 
HETATM    4  C   UNL     1       9.987  30.351  58.423  1.00  0.00     0.134 C 
HETATM    5  C   UNL     1       9.722  29.881  57.022  1.00  0.00     0.247 C 
HETATM    6  O   UNL     1      10.161  30.522  56.072  1.00  0.00    -0.271 OA
HETATM    7  N   UNL     1       9.110  28.665  56.853  1.00  0.00    -0.185 NA
HETATM    8  H   UNL     1       7.039  29.112  59.012  1.00  0.00     0.131 HD
ENDROOT
BRANCH   1   9
HETATM    9  N   UNL     1       7.496  27.139  57.566  1.00  0.00    -0.353 N 
HETATM   10  C   UNL     1       8.015  25.771  57.733  1.00  0.00     0.153 C 
HETATM   11  C   UNL     1       8.427  25.204  56.363  1.00  0.00     0.256 C 
HETATM   12  N   UNL     1       7.223  25.235  55.418  1.00  0.00    -0.056 N 
HETATM   13  H   UNL     1       6.478  24.721  55.895  1.00  0.00     0.281 HD
HETATM   14  C   UNL     1       6.678  26.662  55.281  1.00  0.00     0.256 C 
HETATM   15  C   UNL     1       6.310  27.203  56.683  1.00  0.00     0.153 C 
BRANCH  12  16
HETATM   16  C   UNL     1       7.458  24.448  54.128  1.00  0.00     0.254 C 
BRANCH  16  17
HETATM   17  C   UNL     1       6.541  24.836  52.972  1.00  0.00    -0.023 A 
HETATM   18  C   UNL     1       7.042  25.667  51.949  1.00  0.00     0.009 A 
HETATM   19  C   UNL     1       6.233  26.070  50.886  1.00  0.00     0.001 A 
HETATM   20  C   UNL     1       4.908  25.651  50.821  1.00  0.00     0.000 A 
HETATM   21  C   UNL     1       4.395  24.822  51.814  1.00  0.00     0.001 A 
HETATM   22  C   UNL     1       5.203  24.416  52.879  1.00  0.00     0.009 A 
ENDBRANCH  16  17
BRANCH  16  23
HETATM   23  C   UNL     1       7.705  22.959  54.376  1.00  0.00    -0.023 A 
HETATM   24  C   UNL     1       7.493  22.333  55.615  1.00  0.00     0.009 A 
HETATM   25  C   UNL     1       7.712  20.961  55.775  1.00  0.00     0.001 A 
HETATM   26  C   UNL     1       8.144  20.187  54.704  1.00  0.00     0.000 A 
HETATM   27  C   UNL     1       8.349  20.779  53.464  1.00  0.00     0.001 A 
HETATM   28  C   UNL     1       8.128  22.149  53.298  1.00  0.00     0.009 A 
ENDBRANCH  16  23
ENDBRANCH  12  16
ENDBRANCH   1   9
BRANCH   3  29
HETATM   29  C   UNL     1       7.841  31.287  59.417  1.00  0.00     0.240 C 
HETATM   30  N   UNL     1       7.678  31.758  60.711  1.00  0.00    -0.326 N 
HETATM   31  H   UNL     1       8.223  31.324  61.446  1.00  0.00     0.169 HD
HETATM   32  O   UNL     1       7.212  31.648  58.422  1.00  0.00    -0.271 OA
BRANCH  30  33
HETATM   33  C   UNL     1       6.668  32.639  61.160  1.00  0.00     0.034 A 
HETATM   34  C   UNL     1       7.052  33.655  62.048  1.00  0.00     0.032 A 
HETATM   35  C   UNL     1       6.098  34.511  62.611  1.00  0.00     0.039 A 
HETATM   36  C   UNL     1       4.757  34.388  62.251  1.00  0.00     0.076 A 
HETATM   37  C   UNL     1       4.371  33.391  61.357  1.00  0.00     0.039 A 
HETATM   38  C   UNL     1       5.322  32.523  60.810  1.00  0.00     0.032 A 
BRANCH  36  39
HETATM   39  O   UNL     1       3.742  35.134  62.802  1.00  0.00    -0.311 OA
BRANCH  39  40
HETATM   40  C   UNL     1       3.781  35.435  64.143  1.00  0.00     0.076 A 
HETATM   41  C   UNL     1       3.250  34.610  65.138  1.00  0.00     0.037 A 
HETATM   42  C   UNL     1       3.380  34.969  66.480  1.00  0.00     0.003 A 
HETATM   43  C   UNL     1       4.063  36.135  66.830  1.00  0.00     0.000 A 
HETATM   44  C   UNL     1       4.621  36.942  65.838  1.00  0.00     0.003 A 
HETATM   45  C   UNL     1       4.484  36.588  64.495  1.00  0.00     0.037 A 
ENDBRANCH  39  40
ENDBRANCH  36  39
ENDBRANCH  30  33
ENDBRANCH   3  29
TORSDOF 8
ENDMDL
MODEL 8
REMARK VINA RESULT:     -10.0      2.065      7.039
REMARK  8 active torsions:
REMARK  status: ('A' for Active; 'I' for Inactive)
REMARK    1  A    between atoms: C_4  and  C_5 
REMARK    2  A    between atoms: C_5  and  N_6 
REMARK    3  A    between atoms: C_5  and  C_36 
REMARK    4  A    between atoms: N_10  and  C_11 
REMARK    5  A    between atoms: C_13  and  C_14 
REMARK       I    between atoms: C_14  and  N_15 
REMARK    6  A    between atoms: N_15  and  C_16 
REMARK    7  A    between atoms: C_19  and  O_20 
REMARK    8  A    between atoms: O_20  and  C_21 
ROOT
HETATM    1  C   UNL     1       4.273  30.447  55.417  1.00  0.00     0.181 C 
HETATM    2  N   UNL     1       5.612  30.230  55.390  1.00  0.00    -0.249 NA
HETATM    3  C   UNL     1       6.451  30.552  56.547  1.00  0.00     0.164 C 
HETATM    4  C   UNL     1       5.742  31.367  57.595  1.00  0.00     0.134 C 
HETATM    5  C   UNL     1       4.277  31.040  57.624  1.00  0.00     0.247 C 
HETATM    6  O   UNL     1       3.680  31.023  58.697  1.00  0.00    -0.271 OA
HETATM    7  N   UNL     1       3.620  30.906  56.429  1.00  0.00    -0.185 NA
HETATM    8  H   UNL     1       5.793  29.258  55.119  1.00  0.00     0.131 HD
ENDROOT
BRANCH   1   9
HETATM    9  N   UNL     1       3.645  30.140  54.225  1.00  0.00    -0.353 N 
HETATM   10  C   UNL     1       2.979  28.853  53.963  1.00  0.00     0.153 C 
HETATM   11  C   UNL     1       3.944  27.913  53.220  1.00  0.00     0.256 C 
HETATM   12  N   UNL     1       4.402  28.579  51.922  1.00  0.00    -0.056 N 
HETATM   13  H   UNL     1       3.548  28.818  51.410  1.00  0.00     0.281 HD
HETATM   14  C   UNL     1       5.067  29.931  52.211  1.00  0.00     0.256 C 
HETATM   15  C   UNL     1       4.074  30.830  52.987  1.00  0.00     0.153 C 
BRANCH  12  16
HETATM   16  C   UNL     1       5.143  27.620  50.989  1.00  0.00     0.254 C 
BRANCH  16  17
HETATM   17  C   UNL     1       4.451  27.374  49.651  1.00  0.00    -0.023 A 
HETATM   18  C   UNL     1       3.563  28.348  49.150  1.00  0.00     0.009 A 
HETATM   19  C   UNL     1       2.887  28.154  47.944  1.00  0.00     0.001 A 
HETATM   20  C   UNL     1       3.085  26.988  47.213  1.00  0.00     0.000 A 
HETATM   21  C   UNL     1       3.966  26.018  47.684  1.00  0.00     0.001 A 
HETATM   22  C   UNL     1       4.644  26.209  48.890  1.00  0.00     0.009 A 
ENDBRANCH  16  17
BRANCH  16  23
HETATM   23  C   UNL     1       5.733  26.415  51.721  1.00  0.00    -0.023 A 
HETATM   24  C   UNL     1       5.003  25.251  52.015  1.00  0.00     0.009 A 
HETATM   25  C   UNL     1       5.603  24.169  52.665  1.00  0.00     0.001 A 
HETATM   26  C   UNL     1       6.943  24.224  53.034  1.00  0.00     0.000 A 
HETATM   27  C   UNL     1       7.692  25.358  52.745  1.00  0.00     0.001 A 
HETATM   28  C   UNL     1       7.097  26.441  52.091  1.00  0.00     0.009 A 
ENDBRANCH  16  23
ENDBRANCH  12  16
ENDBRANCH   1   9
BRANCH   3  29
HETATM   29  C   UNL     1       7.066  29.251  57.099  1.00  0.00     0.240 C 
HETATM   30  N   UNL     1       7.050  28.200  56.195  1.00  0.00    -0.326 N 
HETATM   31  H   UNL     1       6.696  28.379  55.263  1.00  0.00     0.169 HD
HETATM   32  O   UNL     1       7.394  29.193  58.284  1.00  0.00    -0.271 OA
BRANCH  30  33
HETATM   33  C   UNL     1       7.274  26.836  56.495  1.00  0.00     0.034 A 
HETATM   34  C   UNL     1       8.529  26.493  57.017  1.00  0.00     0.032 A 
HETATM   35  C   UNL     1       8.863  25.154  57.253  1.00  0.00     0.039 A 
HETATM   36  C   UNL     1       7.925  24.151  57.013  1.00  0.00     0.076 A 
HETATM   37  C   UNL     1       6.670  24.488  56.509  1.00  0.00     0.039 A 
HETATM   38  C   UNL     1       6.343  25.823  56.255  1.00  0.00     0.032 A 
BRANCH  36  39
HETATM   39  O   UNL     1       8.183  22.808  57.148  1.00  0.00    -0.311 OA
BRANCH  39  40
HETATM   40  C   UNL     1       8.344  22.039  56.019  1.00  0.00     0.076 A 
HETATM   41  C   UNL     1       7.584  20.899  55.743  1.00  0.00     0.037 A 
HETATM   42  C   UNL     1       7.780  20.207  54.548  1.00  0.00     0.003 A 
HETATM   43  C   UNL     1       8.712  20.667  53.617  1.00  0.00     0.000 A 
HETATM   44  C   UNL     1       9.448  21.823  53.878  1.00  0.00     0.003 A 
HETATM   45  C   UNL     1       9.260  22.511  55.077  1.00  0.00     0.037 A 
ENDBRANCH  39  40
ENDBRANCH  36  39
ENDBRANCH  30  33
ENDBRANCH   3  29
TORSDOF 8
ENDMDL
MODEL 9
REMARK VINA RESULT:     -10.0      4.436      8.385
REMARK  8 active torsions:
REMARK  status: ('A' for Active; 'I' for Inactive)
REMARK    1  A    between atoms: C_4  and  C_5 
REMARK    2  A    between atoms: C_5  and  N_6 
REMARK    3  A    between atoms: C_5  and  C_36 
REMARK    4  A    between atoms: N_10  and  C_11 
REMARK    5  A    between atoms: C_13  and  C_14 
REMARK       I    between atoms: C_14  and  N_15 
REMARK    6  A    between atoms: N_15  and  C_16 
REMARK    7  A    between atoms: C_19  and  O_20 
REMARK    8  A    between atoms: O_20  and  C_21 
ROOT
HETATM    1  C   UNL     1       8.121  28.508  57.931  1.00  0.00     0.181 C 
HETATM    2  N   UNL     1       7.861  29.107  59.121  1.00  0.00    -0.249 NA
HETATM    3  C   UNL     1       8.627  30.276  59.559  1.00  0.00     0.164 C 
HETATM    4  C   UNL     1       9.848  30.543  58.720  1.00  0.00     0.134 C 
HETATM    5  C   UNL     1       9.626  30.109  57.301  1.00  0.00     0.247 C 
HETATM    6  O   UNL     1      10.108  30.765  56.382  1.00  0.00    -0.271 OA
HETATM    7  N   UNL     1       9.004  28.907  57.081  1.00  0.00    -0.185 NA
HETATM    8  H   UNL     1       6.863  29.334  59.176  1.00  0.00     0.131 HD
ENDROOT
BRANCH   1   9
HETATM    9  N   UNL     1       7.344  27.389  57.701  1.00  0.00    -0.353 N 
HETATM   10  C   UNL     1       7.826  26.010  57.891  1.00  0.00     0.153 C 
HETATM   11  C   UNL     1       8.310  25.442  56.545  1.00  0.00     0.256 C 
HETATM   12  N   UNL     1       7.168  25.501  55.529  1.00  0.00    -0.056 N 
HETATM   13  H   UNL     1       6.385  24.998  55.956  1.00  0.00     0.281 HD
HETATM   14  C   UNL     1       6.659  26.939  55.367  1.00  0.00     0.256 C 
HETATM   15  C   UNL     1       6.215  27.480  56.748  1.00  0.00     0.153 C 
BRANCH  12  16
HETATM   16  C   UNL     1       7.466  24.715  54.251  1.00  0.00     0.254 C 
BRANCH  16  17
HETATM   17  C   UNL     1       6.554  25.049  53.074  1.00  0.00    -0.023 A 
HETATM   18  C   UNL     1       6.965  26.023  52.142  1.00  0.00     0.009 A 
HETATM   19  C   UNL     1       6.152  26.380  51.065  1.00  0.00     0.001 A 
HETATM   20  C   UNL     1       4.914  25.770  50.895  1.00  0.00     0.000 A 
HETATM   21  C   UNL     1       4.492  24.797  51.797  1.00  0.00     0.001 A 
HETATM   22  C   UNL     1       5.304  24.438  52.876  1.00  0.00     0.009 A 
ENDBRANCH  16  17
BRANCH  16  23
HETATM   23  C   UNL     1       7.782  23.243  54.517  1.00  0.00    -0.023 A 
HETATM   24  C   UNL     1       7.403  22.567  55.688  1.00  0.00     0.009 A 
HETATM   25  C   UNL     1       7.697  21.212  55.864  1.00  0.00     0.001 A 
HETATM   26  C   UNL     1       8.373  20.503  54.877  1.00  0.00     0.000 A 
HETATM   27  C   UNL     1       8.749  21.145  53.703  1.00  0.00     0.001 A 
HETATM   28  C   UNL     1       8.453  22.499  53.521  1.00  0.00     0.009 A 
ENDBRANCH  16  23
ENDBRANCH  12  16
ENDBRANCH   1   9
BRANCH   3  29
HETATM   29  C   UNL     1       7.680  31.488  59.660  1.00  0.00     0.240 C 
HETATM   30  N   UNL     1       7.354  31.834  60.962  1.00  0.00    -0.326 N 
HETATM   31  H   UNL     1       7.789  31.314  61.715  1.00  0.00     0.169 HD
HETATM   32  O   UNL     1       7.196  31.963  58.632  1.00  0.00    -0.271 OA
BRANCH  30  33
HETATM   33  C   UNL     1       6.307  32.696  61.361  1.00  0.00     0.034 A 
HETATM   34  C   UNL     1       4.996  32.285  61.079  1.00  0.00     0.032 A 
HETATM   35  C   UNL     1       3.909  33.122  61.357  1.00  0.00     0.039 A 
HETATM   36  C   UNL     1       4.122  34.358  61.965  1.00  0.00     0.076 A 
HETATM   37  C   UNL     1       5.421  34.765  62.263  1.00  0.00     0.039 A 
HETATM   38  C   UNL     1       6.509  33.937  61.967  1.00  0.00     0.032 A 
BRANCH  36  39
HETATM   39  O   UNL     1       3.128  35.275  62.213  1.00  0.00    -0.311 OA
BRANCH  39  40
HETATM   40  C   UNL     1       3.072  36.424  61.459  1.00  0.00     0.076 A 
HETATM   41  C   UNL     1       2.625  36.462  60.136  1.00  0.00     0.037 A 
HETATM   42  C   UNL     1       2.552  37.682  59.463  1.00  0.00     0.003 A 
HETATM   43  C   UNL     1       2.899  38.865  60.117  1.00  0.00     0.000 A 
HETATM   44  C   UNL     1       3.315  38.831  61.448  1.00  0.00     0.003 A 
HETATM   45  C   UNL     1       3.397  37.611  62.120  1.00  0.00     0.037 A 
ENDBRANCH  39  40
ENDBRANCH  36  39
ENDBRANCH  30  33
ENDBRANCH   3  29
TORSDOF 8
ENDMDL
MODEL 10
REMARK VINA RESULT:      -9.8      5.093      9.981
REMARK  8 active torsions:
REMARK  status: ('A' for Active; 'I' for Inactive)
REMARK    1  A    between atoms: C_4  and  C_5 
REMARK    2  A    between atoms: C_5  and  N_6 
REMARK    3  A    between atoms: C_5  and  C_36 
REMARK    4  A    between atoms: N_10  and  C_11 
REMARK    5  A    between atoms: C_13  and  C_14 
REMARK       I    between atoms: C_14  and  N_15 
REMARK    6  A    between atoms: N_15  and  C_16 
REMARK    7  A    between atoms: C_19  and  O_20 
REMARK    8  A    between atoms: O_20  and  C_21 
ROOT
HETATM    1  C   UNL     1       3.393  34.149  58.280  1.00  0.00     0.181 C 
HETATM    2  N   UNL     1       3.003  33.103  57.510  1.00  0.00    -0.249 NA
HETATM    3  C   UNL     1       3.024  33.194  56.048  1.00  0.00     0.164 C 
HETATM    4  C   UNL     1       3.240  34.593  55.537  1.00  0.00     0.134 C 
HETATM    5  C   UNL     1       4.091  35.383  56.488  1.00  0.00     0.247 C 
HETATM    6  O   UNL     1       4.902  36.194  56.048  1.00  0.00    -0.271 OA
HETATM    7  N   UNL     1       3.836  35.273  57.830  1.00  0.00    -0.185 NA
HETATM    8  H   UNL     1       3.522  32.264  57.789  1.00  0.00     0.131 HD
ENDROOT
BRANCH   1   9
HETATM    9  N   UNL     1       3.257  33.911  59.635  1.00  0.00    -0.353 N 
HETATM   10  C   UNL     1       3.348  34.964  60.660  1.00  0.00     0.153 C 
HETATM   11  C   UNL     1       4.776  35.009  61.230  1.00  0.00     0.256 C 
HETATM   12  N   UNL     1       5.137  33.637  61.804  1.00  0.00    -0.056 N 
HETATM   13  H   UNL     1       4.405  33.415  62.484  1.00  0.00     0.281 HD
HETATM   14  C   UNL     1       5.008  32.549  60.731  1.00  0.00     0.256 C 
HETATM   15  C   UNL     1       3.569  32.563  60.162  1.00  0.00     0.153 C 
BRANCH  12  16
HETATM   16  C   UNL     1       6.424  33.657  62.631  1.00  0.00     0.254 C 
BRANCH  16  17
HETATM   17  C   UNL     1       7.489  32.668  62.168  1.00  0.00    -0.023 A 
HETATM   18  C   UNL     1       8.255  32.970  61.023  1.00  0.00     0.009 A 
HETATM   19  C   UNL     1       9.222  32.084  60.547  1.00  0.00     0.001 A 
HETATM   20  C   UNL     1       9.448  30.879  61.206  1.00  0.00     0.000 A 
HETATM   21  C   UNL     1       8.712  30.565  62.345  1.00  0.00     0.001 A 
HETATM   22  C   UNL     1       7.743  31.450  62.823  1.00  0.00     0.009 A 
ENDBRANCH  16  17
BRANCH  16  23
HETATM   23  C   UNL     1       6.165  33.778  64.133  1.00  0.00    -0.023 A 
HETATM   24  C   UNL     1       7.187  33.866  65.092  1.00  0.00     0.009 A 
HETATM   25  C   UNL     1       6.889  34.001  66.452  1.00  0.00     0.001 A 
HETATM   26  C   UNL     1       5.567  34.053  66.881  1.00  0.00     0.000 A 
HETATM   27  C   UNL     1       4.537  33.979  65.952  1.00  0.00     0.001 A 
HETATM   28  C   UNL     1       4.830  33.849  64.592  1.00  0.00     0.009 A 
ENDBRANCH  16  23
ENDBRANCH  12  16
ENDBRANCH   1   9
BRANCH   3  29
HETATM   29  C   UNL     1       4.044  32.179  55.496  1.00  0.00     0.240 C 
HETATM   30  N   UNL     1       3.876  30.894  55.990  1.00  0.00    -0.326 N 
HETATM   31  H   UNL     1       3.094  30.723  56.610  1.00  0.00     0.169 HD
HETATM   32  O   UNL     1       4.973  32.578  54.792  1.00  0.00    -0.271 OA
BRANCH  30  33
HETATM   33  C   UNL     1       4.806  29.834  55.896  1.00  0.00     0.034 A 
HETATM   34  C   UNL     1       4.297  28.560  55.608  1.00  0.00     0.032 A 
HETATM   35  C   UNL     1       5.139  27.441  55.590  1.00  0.00     0.039 A 
HETATM   36  C   UNL     1       6.506  27.597  55.813  1.00  0.00     0.076 A 
HETATM   37  C   UNL     1       7.020  28.864  56.085  1.00  0.00     0.039 A 
HETATM   38  C   UNL     1       6.176  29.978  56.122  1.00  0.00     0.032 A 
BRANCH  36  39
HETATM   39  O   UNL     1       7.398  26.554  55.884  1.00  0.00    -0.311 OA
BRANCH  39  40
HETATM   40  C   UNL     1       7.433  25.630  54.865  1.00  0.00     0.076 A 
HETATM   41  C   UNL     1       7.177  24.269  55.045  1.00  0.00     0.037 A 
HETATM   42  C   UNL     1       7.183  23.411  53.944  1.00  0.00     0.003 A 
HETATM   43  C   UNL     1       7.417  23.915  52.664  1.00  0.00     0.000 A 
HETATM   44  C   UNL     1       7.641  25.279  52.481  1.00  0.00     0.003 A 
HETATM   45  C   UNL     1       7.644  26.137  53.582  1.00  0.00     0.037 A 
ENDBRANCH  39  40
ENDBRANCH  36  39
ENDBRANCH  30  33
ENDBRANCH   3  29
TORSDOF 8
ENDMDL
