MODEL 1
REMARK VINA RESULT:      -7.8      0.000      0.000
REMARK  4 active torsions:
REMARK  status: ('A' for Active; 'I' for Inactive)
REMARK    1  A    between atoms: O_2  and  C_3 
REMARK    2  A    between atoms: C_5  and  N_6 
REMARK    3  A    between atoms: N_6  and  C_7 
REMARK    4  A    between atoms: C_7  and  C_8 
ROOT
HETATM    1  N   UNL     1       9.043  32.322  60.396  1.00  0.00    -0.372 N 
HETATM    2  H   UNL     1       8.505  33.163  60.230  1.00  0.00     0.161 HD
ENDROOT
BRANCH   1   3
HETATM    3  C   UNL     1       9.191  31.395  59.393  1.00  0.00     0.103 A 
HETATM    4  C   UNL     1       8.422  30.232  59.247  1.00  0.00     0.085 A 
HETATM    5  C   UNL     1       8.670  29.352  58.195  1.00  0.00     0.073 A 
HETATM    6  C   UNL     1       9.707  29.623  57.313  1.00  0.00     0.053 A 
HETATM    7  C   UNL     1      10.460  30.768  57.496  1.00  0.00     0.092 A 
HETATM    8  N   UNL     1      10.184  31.597  58.510  1.00  0.00    -0.352 N 
HETATM    9  H   UNL     1      10.757  32.426  58.631  1.00  0.00     0.166 HD
BRANCH   5  10
HETATM   10  O   UNL     1       7.991  28.199  57.932  1.00  0.00    -0.356 OA
HETATM   11  C   UNL     1       6.665  28.311  57.422  1.00  0.00     0.210 C 
ENDBRANCH   5  10
ENDBRANCH   1   3
BRANCH   1  12
HETATM   12  C   UNL     1       9.149  31.991  61.816  1.00  0.00     0.160 C 
BRANCH  12  13
HETATM   13  C   UNL     1       7.876  32.341  62.549  1.00  0.00    -0.036 A 
HETATM   14  C   UNL     1       6.616  32.151  61.932  1.00  0.00     0.031 A 
HETATM   15  C   UNL     1       5.431  32.465  62.607  1.00  0.00     0.047 A 
HETATM   16 BR   UNL     1       3.768  32.184  61.762  1.00  0.00    -0.048 Br
HETATM   17  C   UNL     1       5.517  32.973  63.886  1.00  0.00     0.122 A 
HETATM   18  C   UNL     1       6.739  33.168  64.484  1.00  0.00     0.107 A 
HETATM   19  O   UNL     1       4.489  33.335  64.700  1.00  0.00    -0.322 OA
HETATM   20  O   UNL     1       6.631  33.677  65.741  1.00  0.00    -0.323 OA
HETATM   21  C   UNL     1       7.928  32.868  63.850  1.00  0.00     0.048 A 
HETATM   22  C   UNL     1       5.199  33.819  65.858  1.00  0.00     0.352 A 
ENDBRANCH  12  13
ENDBRANCH   1  12
TORSDOF 4
ENDMDL
MODEL 2
REMARK VINA RESULT:      -7.7      4.842      9.239
REMARK  4 active torsions:
REMARK  status: ('A' for Active; 'I' for Inactive)
REMARK    1  A    between atoms: O_2  and  C_3 
REMARK    2  A    between atoms: C_5  and  N_6 
REMARK    3  A    between atoms: N_6  and  C_7 
REMARK    4  A    between atoms: C_7  and  C_8 
ROOT
HETATM    1  N   UNL     1       7.477  28.100  57.765  1.00  0.00    -0.372 N 
HETATM    2  H   UNL     1       6.967  27.870  58.608  1.00  0.00     0.161 HD
ENDROOT
BRANCH   1   3
HETATM    3  C   UNL     1       8.465  29.055  57.803  1.00  0.00     0.103 A 
HETATM    4  C   UNL     1       8.401  30.257  58.522  1.00  0.00     0.085 A 
HETATM    5  C   UNL     1       9.461  31.161  58.476  1.00  0.00     0.073 A 
HETATM    6  C   UNL     1      10.565  30.874  57.685  1.00  0.00     0.053 A 
HETATM    7  C   UNL     1      10.588  29.690  56.972  1.00  0.00     0.092 A 
HETATM    8  N   UNL     1       9.558  28.839  57.051  1.00  0.00    -0.352 N 
HETATM    9  H   UNL     1       9.592  27.981  56.510  1.00  0.00     0.166 HD
BRANCH   5  10
HETATM   10  O   UNL     1       9.532  32.353  59.135  1.00  0.00    -0.356 OA
HETATM   11  C   UNL     1       8.898  32.446  60.407  1.00  0.00     0.210 C 
ENDBRANCH   5  10
ENDBRANCH   1   3
BRANCH   1  12
HETATM   12  C   UNL     1       6.746  27.752  56.548  1.00  0.00     0.160 C 
BRANCH  12  13
HETATM   13  C   UNL     1       7.206  26.421  56.003  1.00  0.00    -0.036 A 
HETATM   14  C   UNL     1       7.266  26.198  54.606  1.00  0.00     0.031 A 
HETATM   15  C   UNL     1       7.700  24.971  54.093  1.00  0.00     0.047 A 
HETATM   16 BR   UNL     1       7.783  24.712  52.226  1.00  0.00    -0.048 Br
HETATM   17  C   UNL     1       8.061  23.978  54.978  1.00  0.00     0.122 A 
HETATM   18  C   UNL     1       7.995  24.187  56.336  1.00  0.00     0.107 A 
HETATM   19  O   UNL     1       8.506  22.727  54.678  1.00  0.00    -0.322 OA
HETATM   20  O   UNL     1       8.386  23.100  57.053  1.00  0.00    -0.323 OA
HETATM   21  C   UNL     1       7.574  25.385  56.878  1.00  0.00     0.048 A 
HETATM   22  C   UNL     1       8.671  22.160  55.994  1.00  0.00     0.352 A 
ENDBRANCH  12  13
ENDBRANCH   1  12
TORSDOF 4
ENDMDL
MODEL 3
REMARK VINA RESULT:      -7.5      4.922      9.575
REMARK  4 active torsions:
REMARK  status: ('A' for Active; 'I' for Inactive)
REMARK    1  A    between atoms: O_2  and  C_3 
REMARK    2  A    between atoms: C_5  and  N_6 
REMARK    3  A    between atoms: N_6  and  C_7 
REMARK    4  A    between atoms: C_7  and  C_8 
ROOT
HETATM    1  N   UNL     1       7.481  28.142  57.386  1.00  0.00    -0.372 N 
HETATM    2  H   UNL     1       6.737  28.330  56.726  1.00  0.00     0.161 HD
ENDROOT
BRANCH   1   3
HETATM    3  C   UNL     1       8.488  29.062  57.561  1.00  0.00     0.103 A 
HETATM    4  C   UNL     1       8.374  30.257  58.285  1.00  0.00     0.085 A 
HETATM    5  C   UNL     1       9.461  31.124  58.386  1.00  0.00     0.073 A 
HETATM    6  C   UNL     1      10.645  30.808  57.734  1.00  0.00     0.053 A 
HETATM    7  C   UNL     1      10.718  29.632  57.011  1.00  0.00     0.092 A 
HETATM    8  N   UNL     1       9.659  28.816  56.948  1.00  0.00    -0.352 N 
HETATM    9  H   UNL     1       9.732  27.964  56.403  1.00  0.00     0.166 HD
BRANCH   5  10
HETATM   10  O   UNL     1       9.488  32.305  59.067  1.00  0.00    -0.356 OA
HETATM   11  C   UNL     1       8.876  32.344  60.352  1.00  0.00     0.210 C 
ENDBRANCH   5  10
ENDBRANCH   1   3
BRANCH   1  12
HETATM   12  C   UNL     1       7.640  26.717  57.668  1.00  0.00     0.160 C 
BRANCH  12  13
HETATM   13  C   UNL     1       7.741  25.921  56.389  1.00  0.00    -0.036 A 
HETATM   14  C   UNL     1       8.202  24.582  56.411  1.00  0.00     0.031 A 
HETATM   15  C   UNL     1       8.290  23.834  55.231  1.00  0.00     0.047 A 
HETATM   16 BR   UNL     1       8.893  22.048  55.297  1.00  0.00    -0.048 Br
HETATM   17  C   UNL     1       7.927  24.433  54.044  1.00  0.00     0.122 A 
HETATM   18  C   UNL     1       7.488  25.735  54.018  1.00  0.00     0.107 A 
HETATM   19  O   UNL     1       7.941  23.877  52.802  1.00  0.00    -0.322 OA
HETATM   20  O   UNL     1       7.176  26.157  52.763  1.00  0.00    -0.323 OA
HETATM   21  C   UNL     1       7.386  26.502  55.161  1.00  0.00     0.048 A 
HETATM   22  C   UNL     1       7.505  24.985  51.988  1.00  0.00     0.352 A 
ENDBRANCH  12  13
ENDBRANCH   1  12
TORSDOF 4
ENDMDL
MODEL 4
REMARK VINA RESULT:      -7.5      6.676     10.813
REMARK  4 active torsions:
REMARK  status: ('A' for Active; 'I' for Inactive)
REMARK    1  A    between atoms: O_2  and  C_3 
REMARK    2  A    between atoms: C_5  and  N_6 
REMARK    3  A    between atoms: N_6  and  C_7 
REMARK    4  A    between atoms: C_7  and  C_8 
ROOT
HETATM    1  N   UNL     1       7.349  25.499  57.732  1.00  0.00    -0.372 N 
HETATM    2  H   UNL     1       6.498  24.954  57.787  1.00  0.00     0.161 HD
ENDROOT
BRANCH   1   3
HETATM    3  C   UNL     1       7.283  26.847  57.471  1.00  0.00     0.103 A 
HETATM    4  C   UNL     1       8.384  27.710  57.387  1.00  0.00     0.085 A 
HETATM    5  C   UNL     1       8.196  29.067  57.130  1.00  0.00     0.073 A 
HETATM    6  C   UNL     1       6.906  29.559  56.990  1.00  0.00     0.053 A 
HETATM    7  C   UNL     1       5.840  28.686  57.098  1.00  0.00     0.092 A 
HETATM    8  N   UNL     1       6.059  27.386  57.332  1.00  0.00    -0.352 N 
HETATM    9  H   UNL     1       5.261  26.766  57.419  1.00  0.00     0.166 HD
BRANCH   5  10
HETATM   10  O   UNL     1       9.176  30.007  57.011  1.00  0.00    -0.356 OA
HETATM   11  C   UNL     1      10.274  29.716  56.151  1.00  0.00     0.210 C 
ENDBRANCH   5  10
ENDBRANCH   1   3
BRANCH   1  12
HETATM   12  C   UNL     1       8.525  24.683  57.437  1.00  0.00     0.160 C 
BRANCH  12  13
HETATM   13  C   UNL     1       8.347  23.926  56.143  1.00  0.00    -0.036 A 
HETATM   14  C   UNL     1       8.098  24.619  54.933  1.00  0.00     0.031 A 
HETATM   15  C   UNL     1       7.940  23.927  53.728  1.00  0.00     0.047 A 
HETATM   16 BR   UNL     1       7.626  24.882  52.132  1.00  0.00    -0.048 Br
HETATM   17  C   UNL     1       8.023  22.550  53.744  1.00  0.00     0.122 A 
HETATM   18  C   UNL     1       8.255  21.873  54.918  1.00  0.00     0.107 A 
HETATM   19  O   UNL     1       7.900  21.704  52.685  1.00  0.00    -0.322 OA
HETATM   20  O   UNL     1       8.304  20.525  54.743  1.00  0.00    -0.323 OA
HETATM   21  C   UNL     1       8.418  22.523  56.125  1.00  0.00     0.048 A 
HETATM   22  C   UNL     1       8.036  20.421  53.328  1.00  0.00     0.352 A 
ENDBRANCH  12  13
ENDBRANCH   1  12
TORSDOF 4
ENDMDL
MODEL 5
REMARK VINA RESULT:      -7.4      9.773     11.984
REMARK  4 active torsions:
REMARK  status: ('A' for Active; 'I' for Inactive)
REMARK    1  A    between atoms: O_2  and  C_3 
REMARK    2  A    between atoms: C_5  and  N_6 
REMARK    3  A    between atoms: N_6  and  C_7 
REMARK    4  A    between atoms: C_7  and  C_8 
ROOT
HETATM    1  N   UNL     1       4.922  25.601  51.513  1.00  0.00    -0.372 N 
HETATM    2  H   UNL     1       5.181  24.623  51.473  1.00  0.00     0.161 HD
ENDROOT
BRANCH   1   3
HETATM    3  C   UNL     1       4.865  26.342  50.357  1.00  0.00     0.103 A 
HETATM    4  C   UNL     1       4.223  25.948  49.175  1.00  0.00     0.085 A 
HETATM    5  C   UNL     1       4.241  26.777  48.054  1.00  0.00     0.073 A 
HETATM    6  C   UNL     1       4.929  27.982  48.113  1.00  0.00     0.053 A 
HETATM    7  C   UNL     1       5.569  28.332  49.286  1.00  0.00     0.092 A 
HETATM    8  N   UNL     1       5.518  27.517  50.347  1.00  0.00    -0.352 N 
HETATM    9  H   UNL     1       6.005  27.789  51.195  1.00  0.00     0.166 HD
BRANCH   5  10
HETATM   10  O   UNL     1       3.648  26.522  46.853  1.00  0.00    -0.356 OA
HETATM   11  C   UNL     1       2.566  25.595  46.831  1.00  0.00     0.210 C 
ENDBRANCH   5  10
ENDBRANCH   1   3
BRANCH   1  12
HETATM   12  C   UNL     1       5.143  26.190  52.833  1.00  0.00     0.160 C 
BRANCH  12  13
HETATM   13  C   UNL     1       6.132  25.374  53.629  1.00  0.00    -0.036 A 
HETATM   14  C   UNL     1       6.555  24.104  53.166  1.00  0.00     0.031 A 
HETATM   15  C   UNL     1       7.478  23.345  53.893  1.00  0.00     0.047 A 
HETATM   16 BR   UNL     1       8.033  21.665  53.239  1.00  0.00    -0.048 Br
HETATM   17  C   UNL     1       7.962  23.856  55.079  1.00  0.00     0.122 A 
HETATM   18  C   UNL     1       7.546  25.084  55.537  1.00  0.00     0.107 A 
HETATM   19  O   UNL     1       8.858  23.276  55.923  1.00  0.00    -0.322 OA
HETATM   20  O   UNL     1       8.125  25.424  56.720  1.00  0.00    -0.323 OA
HETATM   21  C   UNL     1       6.639  25.861  54.845  1.00  0.00     0.048 A 
HETATM   22  C   UNL     1       8.928  24.253  56.981  1.00  0.00     0.352 A 
ENDBRANCH  12  13
ENDBRANCH   1  12
TORSDOF 4
ENDMDL
MODEL 6
REMARK VINA RESULT:      -7.4      7.428     10.640
REMARK  4 active torsions:
REMARK  status: ('A' for Active; 'I' for Inactive)
REMARK    1  A    between atoms: O_2  and  C_3 
REMARK    2  A    between atoms: C_5  and  N_6 
REMARK    3  A    between atoms: N_6  and  C_7 
REMARK    4  A    between atoms: C_7  and  C_8 
ROOT
HETATM    1  N   UNL     1       6.634  26.746  53.741  1.00  0.00    -0.372 N 
HETATM    2  H   UNL     1       5.731  26.908  53.313  1.00  0.00     0.161 HD
ENDROOT
BRANCH   1   3
HETATM    3  C   UNL     1       7.142  27.660  54.632  1.00  0.00     0.103 A 
HETATM    4  C   UNL     1       8.406  28.260  54.543  1.00  0.00     0.085 A 
HETATM    5  C   UNL     1       8.825  29.166  55.516  1.00  0.00     0.073 A 
HETATM    6  C   UNL     1       7.991  29.443  56.590  1.00  0.00     0.053 A 
HETATM    7  C   UNL     1       6.760  28.819  56.660  1.00  0.00     0.092 A 
HETATM    8  N   UNL     1       6.385  27.965  55.700  1.00  0.00    -0.352 N 
HETATM    9  H   UNL     1       5.481  27.510  55.778  1.00  0.00     0.166 HD
BRANCH   5  10
HETATM   10  O   UNL     1      10.017  29.827  55.541  1.00  0.00    -0.356 OA
HETATM   11  C   UNL     1      10.630  30.043  56.809  1.00  0.00     0.210 C 
ENDBRANCH   5  10
ENDBRANCH   1   3
BRANCH   1  12
HETATM   12  C   UNL     1       7.470  25.831  52.967  1.00  0.00     0.160 C 
BRANCH  12  13
HETATM   13  C   UNL     1       7.715  24.549  53.727  1.00  0.00    -0.036 A 
HETATM   14  C   UNL     1       7.849  23.319  53.038  1.00  0.00     0.031 A 
HETATM   15  C   UNL     1       8.086  22.129  53.734  1.00  0.00     0.047 A 
HETATM   16 BR   UNL     1       8.275  20.510  52.784  1.00  0.00    -0.048 Br
HETATM   17  C   UNL     1       8.177  22.177  55.109  1.00  0.00     0.122 A 
HETATM   18  C   UNL     1       8.038  23.368  55.782  1.00  0.00     0.107 A 
HETATM   19  O   UNL     1       8.403  21.137  55.957  1.00  0.00    -0.322 OA
HETATM   20  O   UNL     1       8.157  23.224  57.129  1.00  0.00    -0.323 OA
HETATM   21  C   UNL     1       7.807  24.562  55.128  1.00  0.00     0.048 A 
HETATM   22  C   UNL     1       8.347  21.797  57.238  1.00  0.00     0.352 A 
ENDBRANCH  12  13
ENDBRANCH   1  12
TORSDOF 4
ENDMDL
MODEL 7
REMARK VINA RESULT:      -7.3     10.907     12.512
REMARK  4 active torsions:
REMARK  status: ('A' for Active; 'I' for Inactive)
REMARK    1  A    between atoms: O_2  and  C_3 
REMARK    2  A    between atoms: C_5  and  N_6 
REMARK    3  A    between atoms: N_6  and  C_7 
REMARK    4  A    between atoms: C_7  and  C_8 
ROOT
HETATM    1  N   UNL     1       6.179  25.415  52.315  1.00  0.00    -0.372 N 
HETATM    2  H   UNL     1       5.595  24.903  52.964  1.00  0.00     0.161 HD
ENDROOT
BRANCH   1   3
HETATM    3  C   UNL     1       5.613  26.334  51.464  1.00  0.00     0.103 A 
HETATM    4  C   UNL     1       4.914  26.024  50.288  1.00  0.00     0.085 A 
HETATM    5  C   UNL     1       4.393  27.042  49.491  1.00  0.00     0.073 A 
HETATM    6  C   UNL     1       4.601  28.365  49.857  1.00  0.00     0.053 A 
HETATM    7  C   UNL     1       5.312  28.637  51.011  1.00  0.00     0.092 A 
HETATM    8  N   UNL     1       5.786  27.634  51.759  1.00  0.00    -0.352 N 
HETATM    9  H   UNL     1       6.314  27.858  52.596  1.00  0.00     0.166 HD
BRANCH   5  10
HETATM   10  O   UNL     1       3.686  26.879  48.337  1.00  0.00    -0.356 OA
HETATM   11  C   UNL     1       3.228  25.568  48.019  1.00  0.00     0.210 C 
ENDBRANCH   5  10
ENDBRANCH   1   3
BRANCH   1  12
HETATM   12  C   UNL     1       7.443  24.737  52.036  1.00  0.00     0.160 C 
BRANCH  12  13
HETATM   13  C   UNL     1       7.813  23.799  53.160  1.00  0.00    -0.036 A 
HETATM   14  C   UNL     1       8.069  24.301  54.460  1.00  0.00     0.031 A 
HETATM   15  C   UNL     1       8.403  23.438  55.510  1.00  0.00     0.047 A 
HETATM   16 BR   UNL     1       8.723  24.138  57.232  1.00  0.00    -0.048 Br
HETATM   17  C   UNL     1       8.487  22.087  55.250  1.00  0.00     0.122 A 
HETATM   18  C   UNL     1       8.248  21.597  53.987  1.00  0.00     0.107 A 
HETATM   19  O   UNL     1       8.794  21.095  56.130  1.00  0.00    -0.322 OA
HETATM   20  O   UNL     1       8.377  20.245  53.918  1.00  0.00    -0.323 OA
HETATM   21  C   UNL     1       7.914  22.418  52.929  1.00  0.00     0.048 A 
HETATM   22  C   UNL     1       8.764  19.935  55.274  1.00  0.00     0.352 A 
ENDBRANCH  12  13
ENDBRANCH   1  12
TORSDOF 4
ENDMDL
MODEL 8
REMARK VINA RESULT:      -7.2      6.832     10.851
REMARK  4 active torsions:
REMARK  status: ('A' for Active; 'I' for Inactive)
REMARK    1  A    between atoms: O_2  and  C_3 
REMARK    2  A    between atoms: C_5  and  N_6 
REMARK    3  A    between atoms: N_6  and  C_7 
REMARK    4  A    between atoms: C_7  and  C_8 
ROOT
HETATM    1  N   UNL     1       7.188  25.342  57.864  1.00  0.00    -0.372 N 
HETATM    2  H   UNL     1       6.559  24.600  58.144  1.00  0.00     0.161 HD
ENDROOT
BRANCH   1   3
HETATM    3  C   UNL     1       6.683  26.577  57.531  1.00  0.00     0.103 A 
HETATM    4  C   UNL     1       5.480  26.801  56.847  1.00  0.00     0.085 A 
HETATM    5  C   UNL     1       5.072  28.100  56.548  1.00  0.00     0.073 A 
HETATM    6  C   UNL     1       5.886  29.166  56.907  1.00  0.00     0.053 A 
HETATM    7  C   UNL     1       7.075  28.911  57.562  1.00  0.00     0.092 A 
HETATM    8  N   UNL     1       7.428  27.650  57.844  1.00  0.00    -0.352 N 
HETATM    9  H   UNL     1       8.312  27.486  58.316  1.00  0.00     0.166 HD
BRANCH   5  10
HETATM   10  O   UNL     1       3.925  28.456  55.904  1.00  0.00    -0.356 OA
HETATM   11  C   UNL     1       4.032  29.358  54.806  1.00  0.00     0.210 C 
ENDBRANCH   5  10
ENDBRANCH   1   3
BRANCH   1  12
HETATM   12  C   UNL     1       8.470  24.842  57.373  1.00  0.00     0.160 C 
BRANCH  12  13
HETATM   13  C   UNL     1       8.291  24.059  56.094  1.00  0.00    -0.036 A 
HETATM   14  C   UNL     1       8.063  24.729  54.868  1.00  0.00     0.031 A 
HETATM   15  C   UNL     1       7.905  24.012  53.677  1.00  0.00     0.047 A 
HETATM   16 BR   UNL     1       7.619  24.936  52.057  1.00  0.00    -0.048 Br
HETATM   17  C   UNL     1       7.967  22.635  53.724  1.00  0.00     0.122 A 
HETATM   18  C   UNL     1       8.178  21.981  54.915  1.00  0.00     0.107 A 
HETATM   19  O   UNL     1       7.839  21.768  52.683  1.00  0.00    -0.322 OA
HETATM   20  O   UNL     1       8.208  20.629  54.771  1.00  0.00    -0.323 OA
HETATM   21  C   UNL     1       8.341  22.656  56.108  1.00  0.00     0.048 A 
HETATM   22  C   UNL     1       7.951  20.497  53.356  1.00  0.00     0.352 A 
ENDBRANCH  12  13
ENDBRANCH   1  12
TORSDOF 4
ENDMDL
MODEL 9
REMARK VINA RESULT:      -7.2      5.584     10.261
REMARK  4 active torsions:
REMARK  status: ('A' for Active; 'I' for Inactive)
REMARK    1  A    between atoms: O_2  and  C_3 
REMARK    2  A    between atoms: C_5  and  N_6 
REMARK    3  A    between atoms: N_6  and  C_7 
REMARK    4  A    between atoms: C_7  and  C_8 
ROOT
HETATM    1  N   UNL     1       4.662  26.896  56.773  1.00  0.00    -0.372 N 
HETATM    2  H   UNL     1       4.030  26.874  55.982  1.00  0.00     0.161 HD
ENDROOT
BRANCH   1   3
HETATM    3  C   UNL     1       5.260  28.079  57.137  1.00  0.00     0.103 A 
HETATM    4  C   UNL     1       6.613  28.232  57.470  1.00  0.00     0.085 A 
HETATM    5  C   UNL     1       7.109  29.481  57.840  1.00  0.00     0.073 A 
HETATM    6  C   UNL     1       6.242  30.564  57.907  1.00  0.00     0.053 A 
HETATM    7  C   UNL     1       4.910  30.375  57.593  1.00  0.00     0.092 A 
HETATM    8  N   UNL     1       4.471  29.164  57.228  1.00  0.00    -0.352 N 
HETATM    9  H   UNL     1       3.487  29.047  57.013  1.00  0.00     0.166 HD
BRANCH   5  10
HETATM   10  O   UNL     1       8.400  29.769  58.173  1.00  0.00    -0.356 OA
HETATM   11  C   UNL     1       8.644  30.334  59.458  1.00  0.00     0.210 C 
ENDBRANCH   5  10
ENDBRANCH   1   3
BRANCH   1  12
HETATM   12  C   UNL     1       5.226  25.584  57.082  1.00  0.00     0.160 C 
BRANCH  12  13
HETATM   13  C   UNL     1       5.874  24.973  55.862  1.00  0.00    -0.036 A 
HETATM   14  C   UNL     1       5.482  25.377  54.563  1.00  0.00     0.031 A 
HETATM   15  C   UNL     1       6.083  24.823  53.427  1.00  0.00     0.047 A 
HETATM   16 BR   UNL     1       5.550  25.394  51.710  1.00  0.00    -0.048 Br
HETATM   17  C   UNL     1       7.061  23.866  53.600  1.00  0.00     0.122 A 
HETATM   18  C   UNL     1       7.437  23.465  54.860  1.00  0.00     0.107 A 
HETATM   19  O   UNL     1       7.759  23.215  52.630  1.00  0.00    -0.322 OA
HETATM   20  O   UNL     1       8.411  22.516  54.838  1.00  0.00    -0.323 OA
HETATM   21  C   UNL     1       6.868  23.991  56.003  1.00  0.00     0.048 A 
HETATM   22  C   UNL     1       8.583  22.331  53.417  1.00  0.00     0.352 A 
ENDBRANCH  12  13
ENDBRANCH   1  12
TORSDOF 4
ENDMDL
MODEL 10
REMARK VINA RESULT:      -7.2     10.105     12.305
REMARK  4 active torsions:
REMARK  status: ('A' for Active; 'I' for Inactive)
REMARK    1  A    between atoms: O_2  and  C_3 
REMARK    2  A    between atoms: C_5  and  N_6 
REMARK    3  A    between atoms: N_6  and  C_7 
REMARK    4  A    between atoms: C_7  and  C_8 
ROOT
HETATM    1  N   UNL     1       5.472  26.526  51.619  1.00  0.00    -0.372 N 
HETATM    2  H   UNL     1       5.668  27.165  52.379  1.00  0.00     0.161 HD
ENDROOT
BRANCH   1   3
HETATM    3  C   UNL     1       5.161  27.019  50.374  1.00  0.00     0.103 A 
HETATM    4  C   UNL     1       4.572  26.282  49.336  1.00  0.00     0.085 A 
HETATM    5  C   UNL     1       4.314  26.884  48.106  1.00  0.00     0.073 A 
HETATM    6  C   UNL     1       4.675  28.210  47.909  1.00  0.00     0.053 A 
HETATM    7  C   UNL     1       5.273  28.902  48.945  1.00  0.00     0.092 A 
HETATM    8  N   UNL     1       5.494  28.296  50.118  1.00  0.00    -0.352 N 
HETATM    9  H   UNL     1       5.944  28.821  50.860  1.00  0.00     0.166 HD
BRANCH   5  10
HETATM   10  O   UNL     1       3.736  26.289  47.024  1.00  0.00    -0.356 OA
HETATM   11  C   UNL     1       2.908  25.153  47.255  1.00  0.00     0.210 C 
ENDBRANCH   5  10
ENDBRANCH   1   3
BRANCH   1  12
HETATM   12  C   UNL     1       5.056  25.204  52.084  1.00  0.00     0.160 C 
BRANCH  12  13
HETATM   13  C   UNL     1       6.004  24.678  53.135  1.00  0.00    -0.036 A 
HETATM   14  C   UNL     1       5.953  25.172  54.461  1.00  0.00     0.031 A 
HETATM   15  C   UNL     1       6.822  24.684  55.443  1.00  0.00     0.047 A 
HETATM   16 BR   UNL     1       6.717  25.351  57.205  1.00  0.00    -0.048 Br
HETATM   17  C   UNL     1       7.738  23.716  55.089  1.00  0.00     0.122 A 
HETATM   18  C   UNL     1       7.797  23.241  53.800  1.00  0.00     0.107 A 
HETATM   19  O   UNL     1       8.659  23.119  55.893  1.00  0.00    -0.322 OA
HETATM   20  O   UNL     1       8.759  22.294  53.635  1.00  0.00    -0.323 OA
HETATM   21  C   UNL     1       6.955  23.697  52.806  1.00  0.00     0.048 A 
HETATM   22  C   UNL     1       9.332  22.249  54.960  1.00  0.00     0.352 A 
ENDBRANCH  12  13
ENDBRANCH   1  12
TORSDOF 4
ENDMDL
