MODEL 1
REMARK VINA RESULT:      -8.5      0.000      0.000
REMARK  7 active torsions:
REMARK  status: ('A' for Active; 'I' for Inactive)
REMARK    1  A    between atoms: C_2  and  C_3 
REMARK    2  A    between atoms: C_3  and  N_4 
REMARK    3  A    between atoms: C_7  and  C_8 
REMARK       I    between atoms: C_8  and  N_9 
REMARK    4  A    between atoms: N_9  and  C_10 
REMARK    5  A    between atoms: C_11  and  O_12 
REMARK    6  A    between atoms: C_16  and  C_17 
REMARK       I    between atoms: C_17  and  N_18 
REMARK    7  A    between atoms: C_23  and  C_24 
ROOT
HETATM    1  C   UNL     1       7.656  27.110  56.071  1.00  0.00     0.259 C 
HETATM    2  N   UNL     1       7.335  27.549  57.338  1.00  0.00    -0.320 N 
HETATM    3  O   UNL     1       7.665  27.799  55.056  1.00  0.00    -0.267 OA
HETATM    4  H   UNL     1       7.118  26.860  58.052  1.00  0.00     0.169 HD
ENDROOT
BRANCH   2   5
HETATM    5  C   UNL     1       7.237  28.899  57.748  1.00  0.00     0.069 A 
HETATM    6  C   UNL     1       5.982  29.532  57.661  1.00  0.00     0.095 A 
HETATM    7  C   UNL     1       5.852  30.858  58.088  1.00  0.00     0.040 A 
HETATM    8  C   UNL     1       6.959  31.547  58.596  1.00  0.00     0.020 A 
HETATM    9  C   UNL     1       8.205  30.919  58.683  1.00  0.00     0.034 A 
HETATM   10  C   UNL     1       8.329  29.588  58.286  1.00  0.00     0.049 A 
BRANCH   6  11
HETATM   11  O   UNL     1       4.961  28.764  57.155  1.00  0.00    -0.354 OA
HETATM   12  C   UNL     1       4.309  29.250  55.987  1.00  0.00     0.210 C 
ENDBRANCH   6  11
BRANCH   9  13
HETATM   13  C   UNL     1       9.334  31.658  59.299  1.00  0.00     0.251 C 
HETATM   14  N   UNL     1       9.525  31.664  60.659  1.00  0.00    -0.361 N 
HETATM   15  C   UNL     1       8.907  30.840  61.675  1.00  0.00     0.149 C 
HETATM   16  H   UNL     1      10.306  32.244  60.941  1.00  0.00     0.162 HD
HETATM   17  O   UNL     1      10.113  32.274  58.576  1.00  0.00    -0.268 OA
ENDBRANCH   9  13
ENDBRANCH   2   5
BRANCH   1  18
HETATM   18  C   UNL     1       7.973  25.702  56.014  1.00  0.00     0.076 C 
HETATM   19  C   UNL     1       8.511  24.916  57.054  1.00  0.00     0.158 C 
HETATM   20  N   UNL     1       8.629  23.631  56.719  1.00  0.00    -0.183 NA
HETATM   21  N   UNL     1       8.081  23.571  55.485  1.00  0.00    -0.268 N 
HETATM   22  C   UNL     1       7.778  24.812  54.968  1.00  0.00     0.052 C 
BRANCH  21  23
HETATM   23  C   UNL     1       7.829  22.263  54.883  1.00  0.00     0.106 C 
HETATM   24  C   UNL     1       8.961  21.883  53.928  1.00  0.00     0.034 C 
BRANCH  23  25
HETATM   25  C   UNL     1       7.587  21.154  55.927  1.00  0.00     0.022 C 
HETATM   26  C   UNL     1       8.655  20.068  55.898  1.00  0.00     0.007 C 
ENDBRANCH  23  25
ENDBRANCH  21  23
BRANCH  22  27
HETATM   27  C   UNL     1       7.316  25.076  53.532  1.00  0.00     0.038 A 
HETATM   28  C   UNL     1       6.350  24.149  52.835  1.00  0.00     0.011 A 
HETATM   29  C   UNL     1       5.883  25.492  53.277  1.00  0.00     0.011 A 
ENDBRANCH  22  27
ENDBRANCH   1  18
TORSDOF 7
ENDMDL
MODEL 2
REMARK VINA RESULT:      -8.2      2.089      7.845
REMARK  7 active torsions:
REMARK  status: ('A' for Active; 'I' for Inactive)
REMARK    1  A    between atoms: C_2  and  C_3 
REMARK    2  A    between atoms: C_3  and  N_4 
REMARK    3  A    between atoms: C_7  and  C_8 
REMARK       I    between atoms: C_8  and  N_9 
REMARK    4  A    between atoms: N_9  and  C_10 
REMARK    5  A    between atoms: C_11  and  O_12 
REMARK    6  A    between atoms: C_16  and  C_17 
REMARK       I    between atoms: C_17  and  N_18 
REMARK    7  A    between atoms: C_23  and  C_24 
ROOT
HETATM    1  C   UNL     1       7.596  28.333  55.585  1.00  0.00     0.259 C 
HETATM    2  N   UNL     1       7.053  27.140  56.010  1.00  0.00    -0.320 N 
HETATM    3  O   UNL     1       8.225  28.503  54.546  1.00  0.00    -0.267 OA
HETATM    4  H   UNL     1       6.775  27.051  56.983  1.00  0.00     0.169 HD
ENDROOT
BRANCH   2   5
HETATM    5  C   UNL     1       6.874  25.982  55.219  1.00  0.00     0.069 A 
HETATM    6  C   UNL     1       5.766  25.932  54.351  1.00  0.00     0.095 A 
HETATM    7  C   UNL     1       5.583  24.809  53.537  1.00  0.00     0.040 A 
HETATM    8  C   UNL     1       6.492  23.747  53.585  1.00  0.00     0.020 A 
HETATM    9  C   UNL     1       7.593  23.795  54.446  1.00  0.00     0.034 A 
HETATM   10  C   UNL     1       7.793  24.927  55.236  1.00  0.00     0.049 A 
BRANCH   6  11
HETATM   11  O   UNL     1       4.940  27.030  54.376  1.00  0.00    -0.354 OA
HETATM   12  C   UNL     1       4.571  27.586  53.119  1.00  0.00     0.210 C 
ENDBRANCH   6  11
BRANCH   9  13
HETATM   13  C   UNL     1       8.575  22.684  54.412  1.00  0.00     0.251 C 
HETATM   14  N   UNL     1       8.937  22.017  55.555  1.00  0.00    -0.361 N 
HETATM   15  C   UNL     1       8.329  22.051  56.869  1.00  0.00     0.149 C 
HETATM   16  H   UNL     1       9.648  21.314  55.390  1.00  0.00     0.162 HD
HETATM   17  O   UNL     1       9.071  22.357  53.336  1.00  0.00    -0.268 OA
ENDBRANCH   9  13
ENDBRANCH   2   5
BRANCH   1  18
HETATM   18  C   UNL     1       7.383  29.423  56.508  1.00  0.00     0.076 C 
HETATM   19  C   UNL     1       6.192  30.156  56.689  1.00  0.00     0.158 C 
HETATM   20  N   UNL     1       6.286  31.056  57.667  1.00  0.00    -0.183 NA
HETATM   21  N   UNL     1       7.517  30.844  58.181  1.00  0.00    -0.268 N 
HETATM   22  C   UNL     1       8.264  29.951  57.442  1.00  0.00     0.052 C 
BRANCH  21  23
HETATM   23  C   UNL     1       7.890  31.506  59.430  1.00  0.00     0.106 C 
HETATM   24  C   UNL     1       6.711  32.301  59.990  1.00  0.00     0.034 C 
BRANCH  23  25
HETATM   25  C   UNL     1       8.453  30.530  60.484  1.00  0.00     0.022 C 
HETATM   26  C   UNL     1       9.407  31.202  61.465  1.00  0.00     0.007 C 
ENDBRANCH  23  25
ENDBRANCH  21  23
BRANCH  22  27
HETATM   27  C   UNL     1       9.746  29.646  57.671  1.00  0.00     0.038 A 
HETATM   28  C   UNL     1      10.732  29.641  56.527  1.00  0.00     0.011 A 
HETATM   29  C   UNL     1      10.766  30.755  57.515  1.00  0.00     0.011 A 
ENDBRANCH  22  27
ENDBRANCH   1  18
TORSDOF 7
ENDMDL
MODEL 3
REMARK VINA RESULT:      -8.2      1.415      2.555
REMARK  7 active torsions:
REMARK  status: ('A' for Active; 'I' for Inactive)
REMARK    1  A    between atoms: C_2  and  C_3 
REMARK    2  A    between atoms: C_3  and  N_4 
REMARK    3  A    between atoms: C_7  and  C_8 
REMARK       I    between atoms: C_8  and  N_9 
REMARK    4  A    between atoms: N_9  and  C_10 
REMARK    5  A    between atoms: C_11  and  O_12 
REMARK    6  A    between atoms: C_16  and  C_17 
REMARK       I    between atoms: C_17  and  N_18 
REMARK    7  A    between atoms: C_23  and  C_24 
ROOT
HETATM    1  C   UNL     1       7.034  27.189  55.062  1.00  0.00     0.259 C 
HETATM    2  N   UNL     1       6.294  27.519  56.179  1.00  0.00    -0.320 N 
HETATM    3  O   UNL     1       7.688  27.972  54.382  1.00  0.00    -0.267 OA
HETATM    4  H   UNL     1       5.601  26.858  56.516  1.00  0.00     0.169 HD
ENDROOT
BRANCH   2   5
HETATM    5  C   UNL     1       6.377  28.733  56.899  1.00  0.00     0.069 A 
HETATM    6  C   UNL     1       5.319  29.655  56.775  1.00  0.00     0.095 A 
HETATM    7  C   UNL     1       5.363  30.850  57.500  1.00  0.00     0.040 A 
HETATM    8  C   UNL     1       6.447  31.126  58.341  1.00  0.00     0.020 A 
HETATM    9  C   UNL     1       7.496  30.211  58.466  1.00  0.00     0.034 A 
HETATM   10  C   UNL     1       7.439  29.005  57.767  1.00  0.00     0.049 A 
BRANCH   6  11
HETATM   11  O   UNL     1       4.301  29.283  55.929  1.00  0.00    -0.354 OA
HETATM   12  C   UNL     1       4.203  29.985  54.695  1.00  0.00     0.210 C 
ENDBRANCH   6  11
BRANCH   9  13
HETATM   13  C   UNL     1       8.588  30.505  59.426  1.00  0.00     0.251 C 
HETATM   14  N   UNL     1       9.873  30.730  58.998  1.00  0.00    -0.361 N 
HETATM   15  C   UNL     1      10.364  30.968  57.658  1.00  0.00     0.149 C 
HETATM   16  H   UNL     1      10.521  30.873  59.764  1.00  0.00     0.162 HD
HETATM   17  O   UNL     1       8.334  30.549  60.628  1.00  0.00    -0.268 OA
ENDBRANCH   9  13
ENDBRANCH   2   5
BRANCH   1  18
HETATM   18  C   UNL     1       6.960  25.789  54.717  1.00  0.00     0.076 C 
HETATM   19  C   UNL     1       6.097  25.198  53.771  1.00  0.00     0.158 C 
HETATM   20  N   UNL     1       6.314  23.891  53.624  1.00  0.00    -0.183 NA
HETATM   21  N   UNL     1       7.382  23.652  54.416  1.00  0.00    -0.268 N 
HETATM   22  C   UNL     1       7.736  24.739  55.187  1.00  0.00     0.052 C 
BRANCH  21  23
HETATM   23  C   UNL     1       8.050  22.355  54.337  1.00  0.00     0.106 C 
HETATM   24  C   UNL     1       7.457  21.381  55.355  1.00  0.00     0.034 C 
BRANCH  23  25
HETATM   25  C   UNL     1       8.033  21.753  52.916  1.00  0.00     0.022 C 
HETATM   26  C   UNL     1       8.494  20.301  52.881  1.00  0.00     0.007 C 
ENDBRANCH  23  25
ENDBRANCH  21  23
BRANCH  22  27
HETATM   27  C   UNL     1       8.784  24.720  56.302  1.00  0.00     0.038 A 
HETATM   28  C   UNL     1       8.510  25.346  57.649  1.00  0.00     0.011 A 
HETATM   29  C   UNL     1       8.550  23.862  57.528  1.00  0.00     0.011 A 
ENDBRANCH  22  27
ENDBRANCH   1  18
TORSDOF 7
ENDMDL
MODEL 4
REMARK VINA RESULT:      -8.1      2.140      3.733
REMARK  7 active torsions:
REMARK  status: ('A' for Active; 'I' for Inactive)
REMARK    1  A    between atoms: C_2  and  C_3 
REMARK    2  A    between atoms: C_3  and  N_4 
REMARK    3  A    between atoms: C_7  and  C_8 
REMARK       I    between atoms: C_8  and  N_9 
REMARK    4  A    between atoms: N_9  and  C_10 
REMARK    5  A    between atoms: C_11  and  O_12 
REMARK    6  A    between atoms: C_16  and  C_17 
REMARK       I    between atoms: C_17  and  N_18 
REMARK    7  A    between atoms: C_23  and  C_24 
ROOT
HETATM    1  C   UNL     1       7.693  28.034  57.095  1.00  0.00     0.259 C 
HETATM    2  N   UNL     1       7.936  29.377  56.905  1.00  0.00    -0.320 N 
HETATM    3  O   UNL     1       7.993  27.387  58.093  1.00  0.00    -0.267 OA
HETATM    4  H   UNL     1       7.878  29.754  55.964  1.00  0.00     0.169 HD
ENDROOT
BRANCH   2   5
HETATM    5  C   UNL     1       8.308  30.303  57.907  1.00  0.00     0.069 A 
HETATM    6  C   UNL     1       9.604  30.852  57.861  1.00  0.00     0.095 A 
HETATM    7  C   UNL     1       9.986  31.792  58.824  1.00  0.00     0.040 A 
HETATM    8  C   UNL     1       9.088  32.183  59.823  1.00  0.00     0.020 A 
HETATM    9  C   UNL     1       7.800  31.640  59.869  1.00  0.00     0.034 A 
HETATM   10  C   UNL     1       7.408  30.725  58.892  1.00  0.00     0.049 A 
BRANCH   6  11
HETATM   11  O   UNL     1      10.403  30.405  56.835  1.00  0.00    -0.354 OA
HETATM   12  C   UNL     1      11.551  29.646  57.199  1.00  0.00     0.210 C 
ENDBRANCH   6  11
BRANCH   9  13
HETATM   13  C   UNL     1       6.853  32.137  60.896  1.00  0.00     0.251 C 
HETATM   14  N   UNL     1       6.947  31.738  62.207  1.00  0.00    -0.361 N 
HETATM   15  C   UNL     1       8.019  31.031  62.875  1.00  0.00     0.149 C 
HETATM   16  H   UNL     1       6.210  32.121  62.786  1.00  0.00     0.162 HD
HETATM   17  O   UNL     1       5.969  32.924  60.566  1.00  0.00    -0.268 OA
ENDBRANCH   9  13
ENDBRANCH   2   5
BRANCH   1  18
HETATM   18  C   UNL     1       7.049  27.401  55.968  1.00  0.00     0.076 C 
HETATM   19  C   UNL     1       6.539  28.041  54.820  1.00  0.00     0.158 C 
HETATM   20  N   UNL     1       6.064  27.181  53.919  1.00  0.00    -0.183 NA
HETATM   21  N   UNL     1       6.350  25.972  54.451  1.00  0.00    -0.268 N 
HETATM   22  C   UNL     1       6.838  26.049  55.738  1.00  0.00     0.052 C 
BRANCH  21  23
HETATM   23  C   UNL     1       6.175  24.775  53.630  1.00  0.00     0.106 C 
HETATM   24  C   UNL     1       4.816  24.796  52.931  1.00  0.00     0.034 C 
BRANCH  23  25
HETATM   25  C   UNL     1       7.319  24.566  52.616  1.00  0.00     0.022 C 
HETATM   26  C   UNL     1       7.931  23.172  52.689  1.00  0.00     0.007 C 
ENDBRANCH  23  25
ENDBRANCH  21  23
BRANCH  22  27
HETATM   27  C   UNL     1       7.081  24.851  56.658  1.00  0.00     0.038 A 
HETATM   28  C   UNL     1       7.400  23.484  56.101  1.00  0.00     0.011 A 
HETATM   29  C   UNL     1       8.475  24.270  56.769  1.00  0.00     0.011 A 
ENDBRANCH  22  27
ENDBRANCH   1  18
TORSDOF 7
ENDMDL
MODEL 5
REMARK VINA RESULT:      -8.0      3.345      9.428
REMARK  7 active torsions:
REMARK  status: ('A' for Active; 'I' for Inactive)
REMARK    1  A    between atoms: C_2  and  C_3 
REMARK    2  A    between atoms: C_3  and  N_4 
REMARK    3  A    between atoms: C_7  and  C_8 
REMARK       I    between atoms: C_8  and  N_9 
REMARK    4  A    between atoms: N_9  and  C_10 
REMARK    5  A    between atoms: C_11  and  O_12 
REMARK    6  A    between atoms: C_16  and  C_17 
REMARK       I    between atoms: C_17  and  N_18 
REMARK    7  A    between atoms: C_23  and  C_24 
ROOT
HETATM    1  C   UNL     1       7.208  31.657  59.469  1.00  0.00     0.259 C 
HETATM    2  N   UNL     1       7.614  30.367  59.202  1.00  0.00    -0.320 N 
HETATM    3  O   UNL     1       6.899  32.498  58.631  1.00  0.00    -0.267 OA
HETATM    4  H   UNL     1       8.078  29.840  59.935  1.00  0.00     0.169 HD
ENDROOT
BRANCH   2   5
HETATM    5  C   UNL     1       7.482  29.696  57.964  1.00  0.00     0.069 A 
HETATM    6  C   UNL     1       8.622  29.573  57.147  1.00  0.00     0.095 A 
HETATM    7  C   UNL     1       8.524  28.888  55.931  1.00  0.00     0.040 A 
HETATM    8  C   UNL     1       7.305  28.330  55.532  1.00  0.00     0.020 A 
HETATM    9  C   UNL     1       6.173  28.450  56.343  1.00  0.00     0.034 A 
HETATM   10  C   UNL     1       6.276  29.106  57.569  1.00  0.00     0.049 A 
BRANCH   6  11
HETATM   11  O   UNL     1       9.769  30.152  57.635  1.00  0.00    -0.354 OA
HETATM   12  C   UNL     1      10.997  29.743  57.044  1.00  0.00     0.210 C 
ENDBRANCH   6  11
BRANCH   9  13
HETATM   13  C   UNL     1       4.920  27.777  55.921  1.00  0.00     0.251 C 
HETATM   14  N   UNL     1       4.704  26.445  56.177  1.00  0.00    -0.361 N 
HETATM   15  C   UNL     1       5.438  25.548  57.043  1.00  0.00     0.149 C 
HETATM   16  H   UNL     1       3.828  26.111  55.793  1.00  0.00     0.162 HD
HETATM   17  O   UNL     1       4.058  28.428  55.333  1.00  0.00    -0.268 OA
ENDBRANCH   9  13
ENDBRANCH   2   5
BRANCH   1  18
HETATM   18  C   UNL     1       7.194  31.974  60.878  1.00  0.00     0.076 C 
HETATM   19  C   UNL     1       8.223  31.724  61.809  1.00  0.00     0.158 C 
HETATM   20  N   UNL     1       7.943  32.195  63.024  1.00  0.00    -0.183 NA
HETATM   21  N   UNL     1       6.763  32.832  62.856  1.00  0.00    -0.268 N 
HETATM   22  C   UNL     1       6.212  32.627  61.609  1.00  0.00     0.052 C 
BRANCH  21  23
HETATM   23  C   UNL     1       6.248  33.671  63.936  1.00  0.00     0.106 C 
HETATM   24  C   UNL     1       7.143  33.568  65.171  1.00  0.00     0.034 C 
BRANCH  23  25
HETATM   25  C   UNL     1       6.050  35.142  63.515  1.00  0.00     0.022 C 
HETATM   26  C   UNL     1       4.768  35.751  64.069  1.00  0.00     0.007 C 
ENDBRANCH  23  25
ENDBRANCH  21  23
BRANCH  22  27
HETATM   27  C   UNL     1       4.808  33.068  61.187  1.00  0.00     0.038 A 
HETATM   28  C   UNL     1       3.873  32.128  60.465  1.00  0.00     0.011 A 
HETATM   29  C   UNL     1       3.602  32.479  61.887  1.00  0.00     0.011 A 
ENDBRANCH  22  27
ENDBRANCH   1  18
TORSDOF 7
ENDMDL
MODEL 6
REMARK VINA RESULT:      -8.0      2.236      3.131
REMARK  7 active torsions:
REMARK  status: ('A' for Active; 'I' for Inactive)
REMARK    1  A    between atoms: C_2  and  C_3 
REMARK    2  A    between atoms: C_3  and  N_4 
REMARK    3  A    between atoms: C_7  and  C_8 
REMARK       I    between atoms: C_8  and  N_9 
REMARK    4  A    between atoms: N_9  and  C_10 
REMARK    5  A    between atoms: C_11  and  O_12 
REMARK    6  A    between atoms: C_16  and  C_17 
REMARK       I    between atoms: C_17  and  N_18 
REMARK    7  A    between atoms: C_23  and  C_24 
ROOT
HETATM    1  C   UNL     1       6.991  26.916  55.113  1.00  0.00     0.259 C 
HETATM    2  N   UNL     1       5.659  27.072  55.432  1.00  0.00    -0.320 N 
HETATM    3  O   UNL     1       7.734  27.798  54.694  1.00  0.00    -0.267 OA
HETATM    4  H   UNL     1       5.081  26.242  55.528  1.00  0.00     0.169 HD
ENDROOT
BRANCH   2   5
HETATM    5  C   UNL     1       4.986  28.303  55.607  1.00  0.00     0.069 A 
HETATM    6  C   UNL     1       4.317  28.860  54.499  1.00  0.00     0.095 A 
HETATM    7  C   UNL     1       3.620  30.062  54.654  1.00  0.00     0.040 A 
HETATM    8  C   UNL     1       3.587  30.705  55.896  1.00  0.00     0.020 A 
HETATM    9  C   UNL     1       4.250  30.153  56.996  1.00  0.00     0.034 A 
HETATM   10  C   UNL     1       4.920  28.938  56.851  1.00  0.00     0.049 A 
BRANCH   6  11
HETATM   11  O   UNL     1       4.406  28.145  53.329  1.00  0.00    -0.354 OA
HETATM   12  C   UNL     1       4.885  28.843  52.185  1.00  0.00     0.210 C 
ENDBRANCH   6  11
BRANCH   9  13
HETATM   13  C   UNL     1       4.127  30.824  58.313  1.00  0.00     0.251 C 
HETATM   14  N   UNL     1       5.219  31.371  58.940  1.00  0.00    -0.361 N 
HETATM   15  C   UNL     1       6.543  31.631  58.415  1.00  0.00     0.149 C 
HETATM   16  H   UNL     1       4.996  31.755  59.850  1.00  0.00     0.162 HD
HETATM   17  O   UNL     1       3.024  30.890  58.851  1.00  0.00    -0.268 OA
ENDBRANCH   9  13
ENDBRANCH   2   5
BRANCH   1  18
HETATM   18  C   UNL     1       7.470  25.566  55.291  1.00  0.00     0.076 C 
HETATM   19  C   UNL     1       8.107  25.040  56.435  1.00  0.00     0.158 C 
HETATM   20  N   UNL     1       8.371  23.739  56.324  1.00  0.00    -0.183 NA
HETATM   21  N   UNL     1       7.823  23.401  55.136  1.00  0.00    -0.268 N 
HETATM   22  C   UNL     1       7.372  24.490  54.421  1.00  0.00     0.052 C 
BRANCH  21  23
HETATM   23  C   UNL     1       7.720  21.988  54.776  1.00  0.00     0.106 C 
HETATM   24  C   UNL     1       8.791  21.615  53.751  1.00  0.00     0.034 C 
BRANCH  23  25
HETATM   25  C   UNL     1       7.771  21.049  55.999  1.00  0.00     0.022 C 
HETATM   26  C   UNL     1       9.076  20.266  56.093  1.00  0.00     0.007 C 
ENDBRANCH  23  25
ENDBRANCH  21  23
BRANCH  22  27
HETATM   27  C   UNL     1       6.869  24.443  52.976  1.00  0.00     0.038 A 
HETATM   28  C   UNL     1       6.813  25.688  52.123  1.00  0.00     0.011 A 
HETATM   29  C   UNL     1       7.849  24.656  51.841  1.00  0.00     0.011 A 
ENDBRANCH  22  27
ENDBRANCH   1  18
TORSDOF 7
ENDMDL
MODEL 7
REMARK VINA RESULT:      -8.0      1.916      3.346
REMARK  7 active torsions:
REMARK  status: ('A' for Active; 'I' for Inactive)
REMARK    1  A    between atoms: C_2  and  C_3 
REMARK    2  A    between atoms: C_3  and  N_4 
REMARK    3  A    between atoms: C_7  and  C_8 
REMARK       I    between atoms: C_8  and  N_9 
REMARK    4  A    between atoms: N_9  and  C_10 
REMARK    5  A    between atoms: C_11  and  O_12 
REMARK    6  A    between atoms: C_16  and  C_17 
REMARK       I    between atoms: C_17  and  N_18 
REMARK    7  A    between atoms: C_23  and  C_24 
ROOT
HETATM    1  C   UNL     1       7.317  26.824  55.800  1.00  0.00     0.259 C 
HETATM    2  N   UNL     1       6.805  27.195  57.025  1.00  0.00    -0.320 N 
HETATM    3  O   UNL     1       7.396  27.544  54.811  1.00  0.00    -0.267 OA
HETATM    4  H   UNL     1       6.557  26.468  57.690  1.00  0.00     0.169 HD
ENDROOT
BRANCH   2   5
HETATM    5  C   UNL     1       6.546  28.519  57.450  1.00  0.00     0.069 A 
HETATM    6  C   UNL     1       7.631  29.303  57.886  1.00  0.00     0.095 A 
HETATM    7  C   UNL     1       7.405  30.626  58.283  1.00  0.00     0.040 A 
HETATM    8  C   UNL     1       6.114  31.163  58.246  1.00  0.00     0.020 A 
HETATM    9  C   UNL     1       5.036  30.385  57.812  1.00  0.00     0.034 A 
HETATM   10  C   UNL     1       5.265  29.076  57.387  1.00  0.00     0.049 A 
BRANCH   6  11
HETATM   11  O   UNL     1       8.857  28.682  57.877  1.00  0.00    -0.354 OA
HETATM   12  C   UNL     1       9.866  29.262  57.058  1.00  0.00     0.210 C 
ENDBRANCH   6  11
BRANCH   9  13
HETATM   13  C   UNL     1       3.697  31.015  57.713  1.00  0.00     0.251 C 
HETATM   14  N   UNL     1       3.162  31.367  56.498  1.00  0.00    -0.361 N 
HETATM   15  C   UNL     1       3.603  31.015  55.165  1.00  0.00     0.149 C 
HETATM   16  H   UNL     1       2.264  31.827  56.585  1.00  0.00     0.162 HD
HETATM   17  O   UNL     1       3.054  31.222  58.740  1.00  0.00    -0.268 OA
ENDBRANCH   9  13
ENDBRANCH   2   5
BRANCH   1  18
HETATM   18  C   UNL     1       7.752  25.448  55.752  1.00  0.00     0.076 C 
HETATM   19  C   UNL     1       8.470  24.755  56.749  1.00  0.00     0.158 C 
HETATM   20  N   UNL     1       8.666  23.473  56.444  1.00  0.00    -0.183 NA
HETATM   21  N   UNL     1       7.996  23.314  55.282  1.00  0.00    -0.268 N 
HETATM   22  C   UNL     1       7.527  24.502  54.763  1.00  0.00     0.052 C 
BRANCH  21  23
HETATM   23  C   UNL     1       7.800  21.966  54.753  1.00  0.00     0.106 C 
HETATM   24  C   UNL     1       8.963  21.571  53.842  1.00  0.00     0.034 C 
BRANCH  23  25
HETATM   25  C   UNL     1       7.575  20.911  55.856  1.00  0.00     0.022 C 
HETATM   26  C   UNL     1       8.723  19.914  55.967  1.00  0.00     0.007 C 
ENDBRANCH  23  25
ENDBRANCH  21  23
BRANCH  22  27
HETATM   27  C   UNL     1       6.890  24.665  53.381  1.00  0.00     0.038 A 
HETATM   28  C   UNL     1       7.299  25.785  52.454  1.00  0.00     0.011 A 
HETATM   29  C   UNL     1       7.718  24.389  52.143  1.00  0.00     0.011 A 
ENDBRANCH  22  27
ENDBRANCH   1  18
TORSDOF 7
ENDMDL
MODEL 8
REMARK VINA RESULT:      -8.0      4.399      7.214
REMARK  7 active torsions:
REMARK  status: ('A' for Active; 'I' for Inactive)
REMARK    1  A    between atoms: C_2  and  C_3 
REMARK    2  A    between atoms: C_3  and  N_4 
REMARK    3  A    between atoms: C_7  and  C_8 
REMARK       I    between atoms: C_8  and  N_9 
REMARK    4  A    between atoms: N_9  and  C_10 
REMARK    5  A    between atoms: C_11  and  O_12 
REMARK    6  A    between atoms: C_16  and  C_17 
REMARK       I    between atoms: C_17  and  N_18 
REMARK    7  A    between atoms: C_23  and  C_24 
ROOT
HETATM    1  C   UNL     1       4.998  25.701  53.497  1.00  0.00     0.259 C 
HETATM    2  N   UNL     1       5.058  27.016  53.089  1.00  0.00    -0.320 N 
HETATM    3  O   UNL     1       4.270  24.837  53.020  1.00  0.00    -0.267 OA
HETATM    4  H   UNL     1       5.499  27.697  53.700  1.00  0.00     0.169 HD
ENDROOT
BRANCH   2   5
HETATM    5  C   UNL     1       4.518  27.538  51.891  1.00  0.00     0.069 A 
HETATM    6  C   UNL     1       3.628  28.626  51.978  1.00  0.00     0.095 A 
HETATM    7  C   UNL     1       3.104  29.179  50.805  1.00  0.00     0.040 A 
HETATM    8  C   UNL     1       3.460  28.656  49.558  1.00  0.00     0.020 A 
HETATM    9  C   UNL     1       4.344  27.576  49.469  1.00  0.00     0.034 A 
HETATM   10  C   UNL     1       4.892  27.044  50.636  1.00  0.00     0.049 A 
BRANCH   6  11
HETATM   11  O   UNL     1       3.350  29.067  53.250  1.00  0.00    -0.354 OA
HETATM   12  C   UNL     1       3.487  30.463  53.490  1.00  0.00     0.210 C 
ENDBRANCH   6  11
BRANCH   9  13
HETATM   13  C   UNL     1       4.758  27.101  48.126  1.00  0.00     0.251 C 
HETATM   14  N   UNL     1       4.241  25.949  47.587  1.00  0.00    -0.361 N 
HETATM   15  C   UNL     1       3.112  25.157  48.026  1.00  0.00     0.149 C 
HETATM   16  H   UNL     1       4.645  25.723  46.686  1.00  0.00     0.162 HD
HETATM   17  O   UNL     1       5.578  27.755  47.485  1.00  0.00    -0.268 OA
ENDBRANCH   9  13
ENDBRANCH   2   5
BRANCH   1  18
HETATM   18  C   UNL     1       5.880  25.402  54.600  1.00  0.00     0.076 C 
HETATM   19  C   UNL     1       5.591  25.541  55.973  1.00  0.00     0.158 C 
HETATM   20  N   UNL     1       6.584  25.117  56.754  1.00  0.00    -0.183 NA
HETATM   21  N   UNL     1       7.487  24.619  55.881  1.00  0.00    -0.268 N 
HETATM   22  C   UNL     1       7.162  24.872  54.565  1.00  0.00     0.052 C 
BRANCH  21  23
HETATM   23  C   UNL     1       8.623  23.854  56.392  1.00  0.00     0.106 C 
HETATM   24  C   UNL     1       9.111  24.438  57.718  1.00  0.00     0.034 C 
BRANCH  23  25
HETATM   25  C   UNL     1       8.326  22.346  56.524  1.00  0.00     0.022 C 
HETATM   26  C   UNL     1       9.111  21.497  55.531  1.00  0.00     0.007 C 
ENDBRANCH  23  25
ENDBRANCH  21  23
BRANCH  22  27
HETATM   27  C   UNL     1       8.072  24.591  53.367  1.00  0.00     0.038 A 
HETATM   28  C   UNL     1       7.907  23.345  52.531  1.00  0.00     0.011 A 
HETATM   29  C   UNL     1       7.500  24.662  51.967  1.00  0.00     0.011 A 
ENDBRANCH  22  27
ENDBRANCH   1  18
TORSDOF 7
ENDMDL
MODEL 9
REMARK VINA RESULT:      -7.9      4.373      8.669
REMARK  7 active torsions:
REMARK  status: ('A' for Active; 'I' for Inactive)
REMARK    1  A    between atoms: C_2  and  C_3 
REMARK    2  A    between atoms: C_3  and  N_4 
REMARK    3  A    between atoms: C_7  and  C_8 
REMARK       I    between atoms: C_8  and  N_9 
REMARK    4  A    between atoms: N_9  and  C_10 
REMARK    5  A    between atoms: C_11  and  O_12 
REMARK    6  A    between atoms: C_16  and  C_17 
REMARK       I    between atoms: C_17  and  N_18 
REMARK    7  A    between atoms: C_23  and  C_24 
ROOT
HETATM    1  C   UNL     1       5.431  25.282  52.034  1.00  0.00     0.259 C 
HETATM    2  N   UNL     1       6.780  25.005  52.101  1.00  0.00    -0.320 N 
HETATM    3  O   UNL     1       4.550  24.706  52.664  1.00  0.00    -0.267 OA
HETATM    4  H   UNL     1       7.387  25.360  51.369  1.00  0.00     0.169 HD
ENDROOT
BRANCH   2   5
HETATM    5  C   UNL     1       7.417  24.223  53.092  1.00  0.00     0.069 A 
HETATM    6  C   UNL     1       7.753  24.839  54.313  1.00  0.00     0.095 A 
HETATM    7  C   UNL     1       8.358  24.079  55.320  1.00  0.00     0.040 A 
HETATM    8  C   UNL     1       8.626  22.721  55.115  1.00  0.00     0.020 A 
HETATM    9  C   UNL     1       8.292  22.109  53.903  1.00  0.00     0.034 A 
HETATM   10  C   UNL     1       7.661  22.858  52.910  1.00  0.00     0.049 A 
BRANCH   6  11
HETATM   11  O   UNL     1       7.441  26.173  54.413  1.00  0.00    -0.354 OA
HETATM   12  C   UNL     1       7.255  26.693  55.724  1.00  0.00     0.210 C 
ENDBRANCH   6  11
BRANCH   9  13
HETATM   13  C   UNL     1       8.521  20.651  53.754  1.00  0.00     0.251 C 
HETATM   14  N   UNL     1       8.820  19.861  54.837  1.00  0.00    -0.361 N 
HETATM   15  C   UNL     1       8.735  20.171  56.249  1.00  0.00     0.149 C 
HETATM   16  H   UNL     1       8.994  18.897  54.582  1.00  0.00     0.162 HD
HETATM   17  O   UNL     1       8.439  20.142  52.639  1.00  0.00    -0.268 OA
ENDBRANCH   9  13
ENDBRANCH   2   5
BRANCH   1  18
HETATM   18  C   UNL     1       5.107  26.336  51.102  1.00  0.00     0.076 C 
HETATM   19  C   UNL     1       4.804  26.188  49.733  1.00  0.00     0.158 C 
HETATM   20  N   UNL     1       4.478  27.341  49.150  1.00  0.00    -0.183 NA
HETATM   21  N   UNL     1       4.484  28.228  50.169  1.00  0.00    -0.268 N 
HETATM   22  C   UNL     1       4.971  27.696  51.344  1.00  0.00     0.052 C 
BRANCH  21  23
HETATM   23  C   UNL     1       3.950  29.570  49.948  1.00  0.00     0.106 C 
HETATM   24  C   UNL     1       4.853  30.358  48.999  1.00  0.00     0.034 C 
BRANCH  23  25
HETATM   25  C   UNL     1       2.490  29.564  49.449  1.00  0.00     0.022 C 
HETATM   26  C   UNL     1       1.515  28.999  50.475  1.00  0.00     0.007 C 
ENDBRANCH  23  25
ENDBRANCH  21  23
BRANCH  22  27
HETATM   27  C   UNL     1       5.265  28.496  52.615  1.00  0.00     0.038 A 
HETATM   28  C   UNL     1       4.314  29.560  53.111  1.00  0.00     0.011 A 
HETATM   29  C   UNL     1       4.417  28.270  53.849  1.00  0.00     0.011 A 
ENDBRANCH  22  27
ENDBRANCH   1  18
TORSDOF 7
ENDMDL
MODEL 10
REMARK VINA RESULT:      -7.8      4.980      8.374
REMARK  7 active torsions:
REMARK  status: ('A' for Active; 'I' for Inactive)
REMARK    1  A    between atoms: C_2  and  C_3 
REMARK    2  A    between atoms: C_3  and  N_4 
REMARK    3  A    between atoms: C_7  and  C_8 
REMARK       I    between atoms: C_8  and  N_9 
REMARK    4  A    between atoms: N_9  and  C_10 
REMARK    5  A    between atoms: C_11  and  O_12 
REMARK    6  A    between atoms: C_16  and  C_17 
REMARK       I    between atoms: C_17  and  N_18 
REMARK    7  A    between atoms: C_23  and  C_24 
ROOT
HETATM    1  C   UNL     1       5.043  28.093  52.662  1.00  0.00     0.259 C 
HETATM    2  N   UNL     1       5.740  28.345  51.499  1.00  0.00    -0.320 N 
HETATM    3  O   UNL     1       3.827  28.173  52.797  1.00  0.00    -0.267 OA
HETATM    4  H   UNL     1       6.743  28.493  51.555  1.00  0.00     0.169 HD
ENDROOT
BRANCH   2   5
HETATM    5  C   UNL     1       5.181  28.460  50.205  1.00  0.00     0.069 A 
HETATM    6  C   UNL     1       5.411  29.647  49.484  1.00  0.00     0.095 A 
HETATM    7  C   UNL     1       4.893  29.774  48.190  1.00  0.00     0.040 A 
HETATM    8  C   UNL     1       4.156  28.731  47.620  1.00  0.00     0.020 A 
HETATM    9  C   UNL     1       3.928  27.551  48.335  1.00  0.00     0.034 A 
HETATM   10  C   UNL     1       4.470  27.412  49.613  1.00  0.00     0.049 A 
BRANCH   6  11
HETATM   11  O   UNL     1       6.152  30.605  50.133  1.00  0.00    -0.354 OA
HETATM   12  C   UNL     1       6.175  31.904  49.551  1.00  0.00     0.210 C 
ENDBRANCH   6  11
BRANCH   9  13
HETATM   13  C   UNL     1       3.209  26.439  47.667  1.00  0.00     0.251 C 
HETATM   14  N   UNL     1       1.838  26.362  47.688  1.00  0.00    -0.361 N 
HETATM   15  C   UNL     1       0.869  27.360  48.090  1.00  0.00     0.149 C 
HETATM   16  H   UNL     1       1.487  25.529  47.232  1.00  0.00     0.162 HD
HETATM   17  O   UNL     1       3.855  25.573  47.081  1.00  0.00    -0.268 OA
ENDBRANCH   9  13
ENDBRANCH   2   5
BRANCH   1  18
HETATM   18  C   UNL     1       5.891  27.735  53.774  1.00  0.00     0.076 C 
HETATM   19  C   UNL     1       6.263  28.563  54.853  1.00  0.00     0.158 C 
HETATM   20  N   UNL     1       6.999  27.925  55.762  1.00  0.00    -0.183 NA
HETATM   21  N   UNL     1       7.032  26.652  55.311  1.00  0.00    -0.268 N 
HETATM   22  C   UNL     1       6.479  26.509  54.056  1.00  0.00     0.052 C 
BRANCH  21  23
HETATM   23  C   UNL     1       7.570  25.604  56.176  1.00  0.00     0.106 C 
HETATM   24  C   UNL     1       8.335  26.216  57.349  1.00  0.00     0.034 C 
BRANCH  23  25
HETATM   25  C   UNL     1       6.493  24.617  56.670  1.00  0.00     0.022 C 
HETATM   26  C   UNL     1       5.219  25.312  57.137  1.00  0.00     0.007 C 
ENDBRANCH  23  25
ENDBRANCH  21  23
BRANCH  22  27
HETATM   27  C   UNL     1       6.529  25.232  53.214  1.00  0.00     0.038 A 
HETATM   28  C   UNL     1       7.031  25.249  51.790  1.00  0.00     0.011 A 
HETATM   29  C   UNL     1       7.872  24.632  52.854  1.00  0.00     0.011 A 
ENDBRANCH  22  27
ENDBRANCH   1  18
TORSDOF 7
ENDMDL
