MODEL 1
REMARK VINA RESULT:      -9.9      0.000      0.000
REMARK  2 active torsions:
REMARK  status: ('A' for Active; 'I' for Inactive)
REMARK    1  A    between atoms: C_2  and  N_3 
REMARK    2  A    between atoms: N_3  and  C_4 
ROOT
HETATM    1  C   UNL     1       6.122  26.519  55.463  1.00  0.00     0.143 A 
HETATM    2  N   UNL     1       6.165  27.675  56.170  1.00  0.00    -0.223 NA
HETATM    3  C   UNL     1       6.980  27.781  57.224  1.00  0.00     0.236 A 
HETATM    4  N   UNL     1       7.791  26.846  57.708  1.00  0.00    -0.234 NA
HETATM    5  C   UNL     1       7.762  25.718  56.983  1.00  0.00     0.114 A 
HETATM    6  C   UNL     1       7.006  25.470  55.844  1.00  0.00     0.053 A 
HETATM    7  S   UNL     1       8.703  24.391  57.463  1.00  0.00    -0.073 SA
HETATM    8  C   UNL     1       8.185  23.452  56.140  1.00  0.00    -0.008 C 
HETATM    9  C   UNL     1       7.336  24.153  55.294  1.00  0.00    -0.028 C 
HETATM   10  C   UNL     1       6.857  23.581  53.985  1.00  0.00     0.041 C 
HETATM   11  C   UNL     1       7.993  23.122  53.063  1.00  0.00     0.005 C 
HETATM   12  C   UNL     1       8.632  21.789  53.452  1.00  0.00     0.001 C 
HETATM   13  C   UNL     1       9.484  21.832  54.720  1.00  0.00     0.005 C 
HETATM   14  C   UNL     1       8.676  22.042  55.999  1.00  0.00     0.047 C 
ENDROOT
BRANCH   1  15
HETATM   15  N   UNL     1       5.166  26.357  54.444  1.00  0.00    -0.340 N 
HETATM   16  H   UNL     1       4.229  26.321  54.821  1.00  0.00     0.167 HD
BRANCH  15  17
HETATM   17  C   UNL     1       5.198  26.690  53.076  1.00  0.00     0.036 A 
HETATM   18  C   UNL     1       5.072  25.749  52.047  1.00  0.00     0.032 A 
HETATM   19  C   UNL     1       5.083  26.136  50.702  1.00  0.00     0.042 A 
HETATM   20  C   UNL     1       5.199  27.480  50.366  1.00  0.00     0.102 A 
HETATM   21  C   UNL     1       5.324  28.434  51.376  1.00  0.00     0.104 A 
HETATM   22  O   UNL     1       5.186  27.790  49.032  1.00  0.00    -0.346 OA
HETATM   23  C   UNL     1       5.300  28.045  52.716  1.00  0.00     0.069 A 
HETATM   24  O   UNL     1       5.467  29.777  51.127  1.00  0.00    -0.346 OA
HETATM   25  C   UNL     1       5.835  30.015  49.763  1.00  0.00     0.202 C 
HETATM   26  C   UNL     1       4.970  29.190  48.823  1.00  0.00     0.202 C 
ENDBRANCH  15  17
ENDBRANCH   1  15
TORSDOF 2
ENDMDL
MODEL 2
REMARK VINA RESULT:      -9.4      3.624      6.100
REMARK  2 active torsions:
REMARK  status: ('A' for Active; 'I' for Inactive)
REMARK    1  A    between atoms: C_2  and  N_3 
REMARK    2  A    between atoms: N_3  and  C_4 
ROOT
HETATM    1  C   UNL     1       5.340  27.441  55.176  1.00  0.00     0.143 A 
HETATM    2  N   UNL     1       4.341  28.292  54.834  1.00  0.00    -0.223 NA
HETATM    3  C   UNL     1       3.876  28.304  53.582  1.00  0.00     0.236 A 
HETATM    4  N   UNL     1       4.295  27.561  52.564  1.00  0.00    -0.234 NA
HETATM    5  C   UNL     1       5.262  26.702  52.920  1.00  0.00     0.114 A 
HETATM    6  C   UNL     1       5.817  26.539  54.183  1.00  0.00     0.053 A 
HETATM    7  S   UNL     1       5.953  25.689  51.749  1.00  0.00    -0.073 SA
HETATM    8  C   UNL     1       6.982  24.953  52.889  1.00  0.00    -0.008 C 
HETATM    9  C   UNL     1       6.772  25.429  54.176  1.00  0.00    -0.028 C 
HETATM   10  C   UNL     1       7.464  24.833  55.375  1.00  0.00     0.041 C 
HETATM   11  C   UNL     1       7.263  23.319  55.510  1.00  0.00     0.005 C 
HETATM   12  C   UNL     1       8.109  22.475  54.557  1.00  0.00     0.001 C 
HETATM   13  C   UNL     1       7.686  22.545  53.090  1.00  0.00     0.005 C 
HETATM   14  C   UNL     1       7.951  23.901  52.438  1.00  0.00     0.047 C 
ENDROOT
BRANCH   1  15
HETATM   15  N   UNL     1       5.925  27.525  56.452  1.00  0.00    -0.340 N 
HETATM   16  H   UNL     1       5.755  26.688  56.991  1.00  0.00     0.167 HD
BRANCH  15  17
HETATM   17  C   UNL     1       7.021  28.273  56.926  1.00  0.00     0.036 A 
HETATM   18  C   UNL     1       8.324  28.133  56.436  1.00  0.00     0.032 A 
HETATM   19  C   UNL     1       9.374  28.922  56.923  1.00  0.00     0.042 A 
HETATM   20  C   UNL     1       9.127  29.882  57.897  1.00  0.00     0.102 A 
HETATM   21  C   UNL     1       7.834  30.040  58.398  1.00  0.00     0.104 A 
HETATM   22  O   UNL     1      10.196  30.630  58.317  1.00  0.00    -0.346 OA
HETATM   23  C   UNL     1       6.789  29.260  57.901  1.00  0.00     0.069 A 
HETATM   24  O   UNL     1       7.514  30.948  59.377  1.00  0.00    -0.346 OA
HETATM   25  C   UNL     1       8.687  31.420  60.050  1.00  0.00     0.202 C 
HETATM   26  C   UNL     1       9.769  31.786  59.047  1.00  0.00     0.202 C 
ENDBRANCH  15  17
ENDBRANCH   1  15
TORSDOF 2
ENDMDL
MODEL 3
REMARK VINA RESULT:      -9.4      3.437      5.811
REMARK  2 active torsions:
REMARK  status: ('A' for Active; 'I' for Inactive)
REMARK    1  A    between atoms: C_2  and  N_3 
REMARK    2  A    between atoms: N_3  and  C_4 
ROOT
HETATM    1  C   UNL     1       6.691  26.019  55.200  1.00  0.00     0.143 A 
HETATM    2  N   UNL     1       5.850  26.795  54.474  1.00  0.00    -0.223 NA
HETATM    3  C   UNL     1       5.544  26.452  53.219  1.00  0.00     0.236 A 
HETATM    4  N   UNL     1       5.991  25.398  52.544  1.00  0.00    -0.234 NA
HETATM    5  C   UNL     1       6.798  24.622  53.283  1.00  0.00     0.114 A 
HETATM    6  C   UNL     1       7.173  24.819  54.606  1.00  0.00     0.053 A 
HETATM    7  S   UNL     1       7.500  23.244  52.586  1.00  0.00    -0.073 SA
HETATM    8  C   UNL     1       8.288  22.823  54.036  1.00  0.00    -0.008 C 
HETATM    9  C   UNL     1       7.983  23.692  55.075  1.00  0.00    -0.028 C 
HETATM   10  C   UNL     1       8.449  23.448  56.487  1.00  0.00     0.041 C 
HETATM   11  C   UNL     1       8.053  22.072  57.034  1.00  0.00     0.005 C 
HETATM   12  C   UNL     1       8.901  20.910  56.517  1.00  0.00     0.001 C 
HETATM   13  C   UNL     1       8.670  20.552  55.048  1.00  0.00     0.005 C 
HETATM   14  C   UNL     1       9.172  21.612  54.070  1.00  0.00     0.047 C 
ENDROOT
BRANCH   1  15
HETATM   15  N   UNL     1       7.124  26.451  56.467  1.00  0.00    -0.340 N 
HETATM   16  H   UNL     1       7.617  25.719  56.957  1.00  0.00     0.167 HD
BRANCH  15  17
HETATM   17  C   UNL     1       7.410  27.738  56.964  1.00  0.00     0.036 A 
HETATM   18  C   UNL     1       6.429  28.629  57.416  1.00  0.00     0.032 A 
HETATM   19  C   UNL     1       6.769  29.887  57.928  1.00  0.00     0.042 A 
HETATM   20  C   UNL     1       8.104  30.265  58.013  1.00  0.00     0.102 A 
HETATM   21  C   UNL     1       9.097  29.392  57.568  1.00  0.00     0.104 A 
HETATM   22  O   UNL     1       8.366  31.503  58.537  1.00  0.00    -0.346 OA
HETATM   23  C   UNL     1       8.754  28.133  57.072  1.00  0.00     0.069 A 
HETATM   24  O   UNL     1      10.435  29.700  57.596  1.00  0.00    -0.346 OA
HETATM   25  C   UNL     1      10.639  31.106  57.776  1.00  0.00     0.202 C 
HETATM   26  C   UNL     1       9.749  31.639  58.886  1.00  0.00     0.202 C 
ENDBRANCH  15  17
ENDBRANCH   1  15
TORSDOF 2
ENDMDL
MODEL 4
REMARK VINA RESULT:      -9.3      3.777      6.647
REMARK  2 active torsions:
REMARK  status: ('A' for Active; 'I' for Inactive)
REMARK    1  A    between atoms: C_2  and  N_3 
REMARK    2  A    between atoms: N_3  and  C_4 
ROOT
HETATM    1  C   UNL     1       6.558  27.477  54.686  1.00  0.00     0.143 A 
HETATM    2  N   UNL     1       5.387  27.413  54.006  1.00  0.00    -0.223 NA
HETATM    3  C   UNL     1       4.336  28.125  54.422  1.00  0.00     0.236 A 
HETATM    4  N   UNL     1       4.277  28.924  55.482  1.00  0.00    -0.234 NA
HETATM    5  C   UNL     1       5.450  29.003  56.129  1.00  0.00     0.114 A 
HETATM    6  C   UNL     1       6.637  28.363  55.798  1.00  0.00     0.053 A 
HETATM    7  S   UNL     1       5.567  29.949  57.532  1.00  0.00    -0.073 SA
HETATM    8  C   UNL     1       7.220  29.587  57.724  1.00  0.00    -0.008 C 
HETATM    9  C   UNL     1       7.711  28.792  56.697  1.00  0.00    -0.028 C 
HETATM   10  C   UNL     1       9.174  28.454  56.573  1.00  0.00     0.041 C 
HETATM   11  C   UNL     1      10.088  29.685  56.548  1.00  0.00     0.005 C 
HETATM   12  C   UNL     1      10.318  30.337  57.912  1.00  0.00     0.001 C 
HETATM   13  C   UNL     1       9.105  31.070  58.485  1.00  0.00     0.005 C 
HETATM   14  C   UNL     1       7.966  30.143  58.902  1.00  0.00     0.047 C 
ENDROOT
BRANCH   1  15
HETATM   15  N   UNL     1       7.619  26.623  54.335  1.00  0.00    -0.340 N 
HETATM   16  H   UNL     1       8.506  26.989  54.651  1.00  0.00     0.167 HD
BRANCH  15  17
HETATM   17  C   UNL     1       7.654  25.239  54.077  1.00  0.00     0.036 A 
HETATM   18  C   UNL     1       7.614  24.690  52.789  1.00  0.00     0.032 A 
HETATM   19  C   UNL     1       7.680  23.307  52.585  1.00  0.00     0.042 A 
HETATM   20  C   UNL     1       7.808  22.449  53.672  1.00  0.00     0.102 A 
HETATM   21  C   UNL     1       7.850  22.976  54.964  1.00  0.00     0.104 A 
HETATM   22  O   UNL     1       7.882  21.109  53.400  1.00  0.00    -0.346 OA
HETATM   23  C   UNL     1       7.797  24.356  55.161  1.00  0.00     0.069 A 
HETATM   24  O   UNL     1       7.951  22.195  56.089  1.00  0.00    -0.346 OA
HETATM   25  C   UNL     1       7.638  20.827  55.802  1.00  0.00     0.202 C 
HETATM   26  C   UNL     1       8.347  20.371  54.536  1.00  0.00     0.202 C 
ENDBRANCH  15  17
ENDBRANCH   1  15
TORSDOF 2
ENDMDL
MODEL 5
REMARK VINA RESULT:      -9.3      7.683     11.254
REMARK  2 active torsions:
REMARK  status: ('A' for Active; 'I' for Inactive)
REMARK    1  A    between atoms: C_2  and  N_3 
REMARK    2  A    between atoms: N_3  and  C_4 
ROOT
HETATM    1  C   UNL     1       5.339  32.614  60.609  1.00  0.00     0.143 A 
HETATM    2  N   UNL     1       4.739  32.966  59.445  1.00  0.00    -0.223 NA
HETATM    3  C   UNL     1       3.700  33.807  59.460  1.00  0.00     0.236 A 
HETATM    4  N   UNL     1       3.136  34.366  60.525  1.00  0.00    -0.234 NA
HETATM    5  C   UNL     1       3.757  34.034  61.667  1.00  0.00     0.114 A 
HETATM    6  C   UNL     1       4.868  33.213  61.811  1.00  0.00     0.053 A 
HETATM    7  S   UNL     1       3.162  34.621  63.143  1.00  0.00    -0.073 SA
HETATM    8  C   UNL     1       4.395  33.849  64.029  1.00  0.00    -0.008 C 
HETATM    9  C   UNL     1       5.299  33.185  63.211  1.00  0.00    -0.028 C 
HETATM   10  C   UNL     1       6.551  32.545  63.752  1.00  0.00     0.041 C 
HETATM   11  C   UNL     1       7.430  33.505  64.562  1.00  0.00     0.005 C 
HETATM   12  C   UNL     1       6.924  33.795  65.976  1.00  0.00     0.001 C 
HETATM   13  C   UNL     1       5.667  34.661  66.042  1.00  0.00     0.005 C 
HETATM   14  C   UNL     1       4.411  33.963  65.525  1.00  0.00     0.047 C 
ENDROOT
BRANCH   1  15
HETATM   15  N   UNL     1       6.338  31.624  60.609  1.00  0.00    -0.340 N 
HETATM   16  H   UNL     1       5.973  30.733  60.914  1.00  0.00     0.167 HD
BRANCH  15  17
HETATM   17  C   UNL     1       7.534  31.507  59.873  1.00  0.00     0.036 A 
HETATM   18  C   UNL     1       8.676  32.278  60.124  1.00  0.00     0.032 A 
HETATM   19  C   UNL     1       9.849  32.103  59.381  1.00  0.00     0.042 A 
HETATM   20  C   UNL     1       9.904  31.135  58.385  1.00  0.00     0.102 A 
HETATM   21  C   UNL     1       8.777  30.356  58.118  1.00  0.00     0.104 A 
HETATM   22  O   UNL     1      11.087  31.007  57.707  1.00  0.00    -0.346 OA
HETATM   23  C   UNL     1       7.614  30.525  58.870  1.00  0.00     0.069 A 
HETATM   24  O   UNL     1       8.742  29.398  57.136  1.00  0.00    -0.346 OA
HETATM   25  C   UNL     1       9.829  29.557  56.217  1.00  0.00     0.202 C 
HETATM   26  C   UNL     1      11.134  29.783  56.964  1.00  0.00     0.202 C 
ENDBRANCH  15  17
ENDBRANCH   1  15
TORSDOF 2
ENDMDL
MODEL 6
REMARK VINA RESULT:      -9.1      3.462      6.830
REMARK  2 active torsions:
REMARK  status: ('A' for Active; 'I' for Inactive)
REMARK    1  A    between atoms: C_2  and  N_3 
REMARK    2  A    between atoms: N_3  and  C_4 
ROOT
HETATM    1  C   UNL     1       6.215  26.775  54.720  1.00  0.00     0.143 A 
HETATM    2  N   UNL     1       5.966  26.844  56.051  1.00  0.00    -0.223 NA
HETATM    3  C   UNL     1       5.007  27.655  56.508  1.00  0.00     0.236 A 
HETATM    4  N   UNL     1       4.229  28.460  55.792  1.00  0.00    -0.234 NA
HETATM    5  C   UNL     1       4.464  28.361  54.475  1.00  0.00     0.114 A 
HETATM    6  C   UNL     1       5.390  27.538  53.846  1.00  0.00     0.053 A 
HETATM    7  S   UNL     1       3.594  29.338  53.396  1.00  0.00    -0.073 SA
HETATM    8  C   UNL     1       4.376  28.662  52.042  1.00  0.00    -0.008 C 
HETATM    9  C   UNL     1       5.264  27.653  52.392  1.00  0.00    -0.028 C 
HETATM   10  C   UNL     1       5.970  26.813  51.360  1.00  0.00     0.041 C 
HETATM   11  C   UNL     1       5.020  26.134  50.366  1.00  0.00     0.005 C 
HETATM   12  C   UNL     1       4.462  27.058  49.283  1.00  0.00     0.001 C 
HETATM   13  C   UNL     1       3.443  28.084  49.778  1.00  0.00     0.005 C 
HETATM   14  C   UNL     1       4.044  29.168  50.669  1.00  0.00     0.047 C 
ENDROOT
BRANCH   1  15
HETATM   15  N   UNL     1       7.313  26.032  54.251  1.00  0.00    -0.340 N 
HETATM   16  H   UNL     1       8.176  26.549  54.348  1.00  0.00     0.167 HD
BRANCH  15  17
HETATM   17  C   UNL     1       7.513  24.643  54.130  1.00  0.00     0.036 A 
HETATM   18  C   UNL     1       7.575  23.974  52.901  1.00  0.00     0.032 A 
HETATM   19  C   UNL     1       7.804  22.595  52.833  1.00  0.00     0.042 A 
HETATM   20  C   UNL     1       7.997  21.864  54.000  1.00  0.00     0.102 A 
HETATM   21  C   UNL     1       7.941  22.511  55.236  1.00  0.00     0.104 A 
HETATM   22  O   UNL     1       8.232  20.522  53.862  1.00  0.00    -0.346 OA
HETATM   23  C   UNL     1       7.725  23.889  55.297  1.00  0.00     0.069 A 
HETATM   24  O   UNL     1       8.097  21.858  56.433  1.00  0.00    -0.346 OA
HETATM   25  C   UNL     1       7.952  20.442  56.274  1.00  0.00     0.202 C 
HETATM   26  C   UNL     1       8.745  19.954  55.072  1.00  0.00     0.202 C 
ENDBRANCH  15  17
ENDBRANCH   1  15
TORSDOF 2
ENDMDL
MODEL 7
REMARK VINA RESULT:      -9.0      3.366      6.931
REMARK  2 active torsions:
REMARK  status: ('A' for Active; 'I' for Inactive)
REMARK    1  A    between atoms: C_2  and  N_3 
REMARK    2  A    between atoms: N_3  and  C_4 
ROOT
HETATM    1  C   UNL     1       4.251  27.538  53.253  1.00  0.00     0.143 A 
HETATM    2  N   UNL     1       3.888  28.320  54.300  1.00  0.00    -0.223 NA
HETATM    3  C   UNL     1       3.927  29.650  54.182  1.00  0.00     0.236 A 
HETATM    4  N   UNL     1       4.309  30.350  53.119  1.00  0.00    -0.234 NA
HETATM    5  C   UNL     1       4.636  29.566  52.081  1.00  0.00     0.114 A 
HETATM    6  C   UNL     1       4.606  28.179  52.033  1.00  0.00     0.053 A 
HETATM    7  S   UNL     1       5.185  30.274  50.641  1.00  0.00    -0.073 SA
HETATM    8  C   UNL     1       5.352  28.762  49.876  1.00  0.00    -0.008 C 
HETATM    9  C   UNL     1       4.941  27.711  50.686  1.00  0.00    -0.028 C 
HETATM   10  C   UNL     1       4.864  26.293  50.183  1.00  0.00     0.041 C 
HETATM   11  C   UNL     1       4.008  26.136  48.921  1.00  0.00     0.005 C 
HETATM   12  C   UNL     1       4.684  26.594  47.629  1.00  0.00     0.001 C 
HETATM   13  C   UNL     1       4.856  28.108  47.498  1.00  0.00     0.005 C 
HETATM   14  C   UNL     1       5.874  28.698  48.471  1.00  0.00     0.047 C 
ENDROOT
BRANCH   1  15
HETATM   15  N   UNL     1       4.346  26.145  53.421  1.00  0.00    -0.340 N 
HETATM   16  H   UNL     1       3.833  25.652  52.704  1.00  0.00     0.167 HD
BRANCH  15  17
HETATM   17  C   UNL     1       5.324  25.346  54.047  1.00  0.00     0.036 A 
HETATM   18  C   UNL     1       5.609  25.404  55.417  1.00  0.00     0.032 A 
HETATM   19  C   UNL     1       6.571  24.568  55.995  1.00  0.00     0.042 A 
HETATM   20  C   UNL     1       7.251  23.643  55.210  1.00  0.00     0.102 A 
HETATM   21  C   UNL     1       6.981  23.569  53.843  1.00  0.00     0.104 A 
HETATM   22  O   UNL     1       8.168  22.846  55.843  1.00  0.00    -0.346 OA
HETATM   23  C   UNL     1       6.011  24.395  53.273  1.00  0.00     0.069 A 
HETATM   24  O   UNL     1       7.625  22.701  52.997  1.00  0.00    -0.346 OA
HETATM   25  C   UNL     1       8.815  22.178  53.598  1.00  0.00     0.202 C 
HETATM   26  C   UNL     1       8.543  21.732  55.026  1.00  0.00     0.202 C 
ENDBRANCH  15  17
ENDBRANCH   1  15
TORSDOF 2
ENDMDL
MODEL 8
REMARK VINA RESULT:      -8.6      1.665      2.091
REMARK  2 active torsions:
REMARK  status: ('A' for Active; 'I' for Inactive)
REMARK    1  A    between atoms: C_2  and  N_3 
REMARK    2  A    between atoms: N_3  and  C_4 
ROOT
HETATM    1  C   UNL     1       4.611  27.292  54.237  1.00  0.00     0.143 A 
HETATM    2  N   UNL     1       4.309  28.408  54.945  1.00  0.00    -0.223 NA
HETATM    3  C   UNL     1       4.738  28.534  56.204  1.00  0.00     0.236 A 
HETATM    4  N   UNL     1       5.451  27.656  56.900  1.00  0.00    -0.234 NA
HETATM    5  C   UNL     1       5.770  26.570  56.180  1.00  0.00     0.114 A 
HETATM    6  C   UNL     1       5.438  26.312  54.856  1.00  0.00     0.053 A 
HETATM    7  S   UNL     1       6.650  25.315  56.906  1.00  0.00    -0.073 SA
HETATM    8  C   UNL     1       6.673  24.402  55.468  1.00  0.00    -0.008 C 
HETATM    9  C   UNL     1       6.062  25.064  54.411  1.00  0.00    -0.028 C 
HETATM   10  C   UNL     1       6.079  24.519  53.007  1.00  0.00     0.041 C 
HETATM   11  C   UNL     1       7.487  24.218  52.482  1.00  0.00     0.005 C 
HETATM   12  C   UNL     1       8.111  22.933  53.026  1.00  0.00     0.001 C 
HETATM   13  C   UNL     1       8.515  22.989  54.499  1.00  0.00     0.005 C 
HETATM   14  C   UNL     1       7.330  23.054  55.460  1.00  0.00     0.047 C 
ENDROOT
BRANCH   1  15
HETATM   15  N   UNL     1       4.044  27.094  52.965  1.00  0.00    -0.340 N 
HETATM   16  H   UNL     1       3.109  26.718  53.033  1.00  0.00     0.167 HD
BRANCH  15  17
HETATM   17  C   UNL     1       4.301  27.712  51.725  1.00  0.00     0.036 A 
HETATM   18  C   UNL     1       5.148  27.169  50.751  1.00  0.00     0.032 A 
HETATM   19  C   UNL     1       5.348  27.809  49.522  1.00  0.00     0.042 A 
HETATM   20  C   UNL     1       4.684  28.997  49.241  1.00  0.00     0.102 A 
HETATM   21  C   UNL     1       3.834  29.555  50.198  1.00  0.00     0.104 A 
HETATM   22  O   UNL     1       4.913  29.562  48.014  1.00  0.00    -0.346 OA
HETATM   23  C   UNL     1       3.628  28.906  51.416  1.00  0.00     0.069 A 
HETATM   24  O   UNL     1       3.161  30.736  50.006  1.00  0.00    -0.346 OA
HETATM   25  C   UNL     1       3.712  31.475  48.910  1.00  0.00     0.202 C 
HETATM   26  C   UNL     1       3.939  30.567  47.712  1.00  0.00     0.202 C 
ENDBRANCH  15  17
ENDBRANCH   1  15
TORSDOF 2
ENDMDL
MODEL 9
REMARK VINA RESULT:      -8.5      2.231      2.838
REMARK  2 active torsions:
REMARK  status: ('A' for Active; 'I' for Inactive)
REMARK    1  A    between atoms: C_2  and  N_3 
REMARK    2  A    between atoms: N_3  and  C_4 
ROOT
HETATM    1  C   UNL     1       7.379  25.915  55.365  1.00  0.00     0.143 A 
HETATM    2  N   UNL     1       7.745  26.863  56.262  1.00  0.00    -0.223 NA
HETATM    3  C   UNL     1       8.287  26.502  57.429  1.00  0.00     0.236 A 
HETATM    4  N   UNL     1       8.515  25.265  57.858  1.00  0.00    -0.234 NA
HETATM    5  C   UNL     1       8.177  24.338  56.950  1.00  0.00     0.114 A 
HETATM    6  C   UNL     1       7.647  24.554  55.684  1.00  0.00     0.053 A 
HETATM    7  S   UNL     1       8.361  22.694  57.326  1.00  0.00    -0.073 SA
HETATM    8  C   UNL     1       7.795  22.206  55.796  1.00  0.00    -0.008 C 
HETATM    9  C   UNL     1       7.513  23.284  54.967  1.00  0.00    -0.028 C 
HETATM   10  C   UNL     1       7.130  23.105  53.521  1.00  0.00     0.041 C 
HETATM   11  C   UNL     1       8.142  22.282  52.716  1.00  0.00     0.005 C 
HETATM   12  C   UNL     1       8.074  20.774  52.956  1.00  0.00     0.001 C 
HETATM   13  C   UNL     1       8.578  20.320  54.326  1.00  0.00     0.005 C 
HETATM   14  C   UNL     1       7.677  20.743  55.484  1.00  0.00     0.047 C 
ENDROOT
BRANCH   1  15
HETATM   15  N   UNL     1       6.682  26.286  54.200  1.00  0.00    -0.340 N 
HETATM   16  H   UNL     1       6.561  25.500  53.578  1.00  0.00     0.167 HD
BRANCH  15  17
HETATM   17  C   UNL     1       5.768  27.329  53.955  1.00  0.00     0.036 A 
HETATM   18  C   UNL     1       4.762  27.265  52.983  1.00  0.00     0.032 A 
HETATM   19  C   UNL     1       3.861  28.320  52.798  1.00  0.00     0.042 A 
HETATM   20  C   UNL     1       3.939  29.451  53.602  1.00  0.00     0.102 A 
HETATM   21  C   UNL     1       4.934  29.535  54.577  1.00  0.00     0.104 A 
HETATM   22  O   UNL     1       3.017  30.438  53.378  1.00  0.00    -0.346 OA
HETATM   23  C   UNL     1       5.822  28.476  54.767  1.00  0.00     0.069 A 
HETATM   24  O   UNL     1       5.094  30.627  55.394  1.00  0.00    -0.346 OA
HETATM   25  C   UNL     1       4.387  31.764  54.885  1.00  0.00     0.202 C 
HETATM   26  C   UNL     1       2.980  31.374  54.461  1.00  0.00     0.202 C 
ENDBRANCH  15  17
ENDBRANCH   1  15
TORSDOF 2
ENDMDL
MODEL 10
REMARK VINA RESULT:      -8.5      2.812      3.933
REMARK  2 active torsions:
REMARK  status: ('A' for Active; 'I' for Inactive)
REMARK    1  A    between atoms: C_2  and  N_3 
REMARK    2  A    between atoms: N_3  and  C_4 
ROOT
HETATM    1  C   UNL     1       5.225  28.400  52.091  1.00  0.00     0.143 A 
HETATM    2  N   UNL     1       4.759  29.606  52.500  1.00  0.00    -0.223 NA
HETATM    3  C   UNL     1       4.508  29.819  53.795  1.00  0.00     0.236 A 
HETATM    4  N   UNL     1       4.649  28.952  54.792  1.00  0.00    -0.234 NA
HETATM    5  C   UNL     1       5.138  27.773  54.380  1.00  0.00     0.114 A 
HETATM    6  C   UNL     1       5.488  27.415  53.084  1.00  0.00     0.053 A 
HETATM    7  S   UNL     1       5.356  26.521  55.502  1.00  0.00    -0.073 SA
HETATM    8  C   UNL     1       5.978  25.468  54.317  1.00  0.00    -0.008 C 
HETATM    9  C   UNL     1       6.077  26.074  53.071  1.00  0.00    -0.028 C 
HETATM   10  C   UNL     1       6.727  25.390  51.896  1.00  0.00     0.041 C 
HETATM   11  C   UNL     1       8.153  24.906  52.180  1.00  0.00     0.005 C 
HETATM   12  C   UNL     1       8.240  23.628  53.016  1.00  0.00     0.001 C 
HETATM   13  C   UNL     1       7.850  23.796  54.485  1.00  0.00     0.005 C 
HETATM   14  C   UNL     1       6.363  24.070  54.700  1.00  0.00     0.047 C 
ENDROOT
BRANCH   1  15
HETATM   15  N   UNL     1       5.355  28.130  50.717  1.00  0.00    -0.340 N 
HETATM   16  H   UNL     1       6.301  27.865  50.482  1.00  0.00     0.167 HD
BRANCH  15  17
HETATM   17  C   UNL     1       4.411  27.716  49.756  1.00  0.00     0.036 A 
HETATM   18  C   UNL     1       4.355  26.418  49.235  1.00  0.00     0.032 A 
HETATM   19  C   UNL     1       3.379  26.050  48.302  1.00  0.00     0.042 A 
HETATM   20  C   UNL     1       2.426  26.976  47.890  1.00  0.00     0.102 A 
HETATM   21  C   UNL     1       2.464  28.275  48.398  1.00  0.00     0.104 A 
HETATM   22  O   UNL     1       1.491  26.545  46.987  1.00  0.00    -0.346 OA
HETATM   23  C   UNL     1       3.432  28.633  49.338  1.00  0.00     0.069 A 
HETATM   24  O   UNL     1       1.576  29.253  48.024  1.00  0.00    -0.346 OA
HETATM   25  C   UNL     1       0.881  28.892  46.825  1.00  0.00     0.202 C 
HETATM   26  C   UNL     1       0.389  27.456  46.903  1.00  0.00     0.202 C 
ENDBRANCH  15  17
ENDBRANCH   1  15
TORSDOF 2
ENDMDL
