MODEL 1
REMARK VINA RESULT:      -9.5      0.000      0.000
REMARK  7 active torsions:
REMARK  status: ('A' for Active; 'I' for Inactive)
REMARK       I    between atoms: N_2  and  C_3 
REMARK    1  A    between atoms: C_3  and  C_4 
REMARK    2  A    between atoms: C_4  and  C_5 
REMARK    3  A    between atoms: C_5  and  O_6 
REMARK    4  A    between atoms: O_6  and  C_7 
REMARK    5  A    between atoms: C_10  and  N_11 
REMARK       I    between atoms: N_11  and  C_12 
REMARK    6  A    between atoms: C_12  and  C_13 
REMARK    7  A    between atoms: C_15  and  C_16 
ROOT
HETATM    1  N   UNL     1       7.917  27.352  56.041  1.00  0.00    -0.323 N 
HETATM    2  C   UNL     1       7.497  27.275  54.725  1.00  0.00     0.256 C 
HETATM    3  O   UNL     1       7.029  28.188  54.053  1.00  0.00    -0.267 OA
HETATM    4  H   UNL     1       8.181  26.487  56.493  1.00  0.00     0.169 HD
ENDROOT
BRANCH   1   5
HETATM    5  C   UNL     1       7.949  28.499  56.863  1.00  0.00     0.035 A 
HETATM    6  C   UNL     1       6.824  29.061  57.466  1.00  0.00     0.032 A 
HETATM    7  C   UNL     1       6.936  30.202  58.274  1.00  0.00     0.039 A 
HETATM    8  C   UNL     1       8.177  30.797  58.483  1.00  0.00     0.068 A 
HETATM    9  C   UNL     1       9.305  30.244  57.874  1.00  0.00     0.039 A 
HETATM   10  C   UNL     1       9.193  29.103  57.074  1.00  0.00     0.032 A 
BRANCH   8  11
HETATM   11  O   UNL     1       8.421  31.911  59.237  1.00  0.00    -0.351 OA
BRANCH  11  12
HETATM   12  C   UNL     1       9.533  31.855  60.139  1.00  0.00     0.185 C 
BRANCH  12  13
HETATM   13  C   UNL     1       9.158  30.949  61.303  1.00  0.00     0.129 C 
BRANCH  13  14
HETATM   14  C   UNL     1       8.124  31.600  62.197  1.00  0.00     0.219 C 
HETATM   15  N   UNL     1       6.829  31.209  61.950  1.00  0.00    -0.365 N 
HETATM   16  C   UNL     1       5.742  31.675  62.770  1.00  0.00     0.149 C 
HETATM   17  H   UNL     1       6.685  30.386  61.371  1.00  0.00     0.161 HD
HETATM   18  O   UNL     1       8.431  32.433  63.045  1.00  0.00    -0.274 OA
ENDBRANCH  13  14
ENDBRANCH  12  13
ENDBRANCH  11  12
ENDBRANCH   8  11
ENDBRANCH   1   5
BRANCH   2  19
HETATM   19  C   UNL     1       7.602  25.926  54.098  1.00  0.00     0.033 A 
HETATM   20  C   UNL     1       7.747  24.816  54.944  1.00  0.00     0.029 A 
HETATM   21  C   UNL     1       7.840  23.521  54.417  1.00  0.00    -0.023 A 
HETATM   22  C   UNL     1       7.790  23.354  53.027  1.00  0.00     0.012 A 
HETATM   23  C   UNL     1       7.628  24.454  52.181  1.00  0.00     0.002 A 
HETATM   24  C   UNL     1       7.526  25.739  52.713  1.00  0.00     0.017 A 
BRANCH  21  25
HETATM   25  C   UNL     1       7.988  22.364  55.287  1.00  0.00    -0.002 A 
HETATM   26  C   UNL     1       8.341  22.427  56.621  1.00  0.00     0.153 A 
HETATM   27  O   UNL     1       8.385  21.185  57.170  1.00  0.00    -0.334 OA
HETATM   28  C   UNL     1       8.052  20.310  56.189  1.00  0.00     0.142 A 
HETATM   29  C   UNL     1       7.793  20.979  55.016  1.00  0.00     0.038 A 
ENDBRANCH  21  25
ENDBRANCH   2  19
TORSDOF 7
ENDMDL
MODEL 2
REMARK VINA RESULT:      -9.4      1.362      1.793
REMARK  7 active torsions:
REMARK  status: ('A' for Active; 'I' for Inactive)
REMARK       I    between atoms: N_2  and  C_3 
REMARK    1  A    between atoms: C_3  and  C_4 
REMARK    2  A    between atoms: C_4  and  C_5 
REMARK    3  A    between atoms: C_5  and  O_6 
REMARK    4  A    between atoms: O_6  and  C_7 
REMARK    5  A    between atoms: C_10  and  N_11 
REMARK       I    between atoms: N_11  and  C_12 
REMARK    6  A    between atoms: C_12  and  C_13 
REMARK    7  A    between atoms: C_15  and  C_16 
ROOT
HETATM    1  N   UNL     1       7.964  27.809  56.240  1.00  0.00    -0.323 N 
HETATM    2  C   UNL     1       7.831  26.472  56.574  1.00  0.00     0.256 C 
HETATM    3  O   UNL     1       7.979  25.979  57.686  1.00  0.00    -0.267 OA
HETATM    4  H   UNL     1       7.915  28.046  55.259  1.00  0.00     0.169 HD
ENDROOT
BRANCH   1   5
HETATM    5  C   UNL     1       8.240  28.884  57.112  1.00  0.00     0.035 A 
HETATM    6  C   UNL     1       9.516  29.402  57.336  1.00  0.00     0.032 A 
HETATM    7  C   UNL     1       9.710  30.477  58.216  1.00  0.00     0.039 A 
HETATM    8  C   UNL     1       8.629  31.042  58.886  1.00  0.00     0.068 A 
HETATM    9  C   UNL     1       7.352  30.522  58.672  1.00  0.00     0.039 A 
HETATM   10  C   UNL     1       7.157  29.455  57.789  1.00  0.00     0.032 A 
BRANCH   8  11
HETATM   11  O   UNL     1       8.683  32.082  59.772  1.00  0.00    -0.351 OA
BRANCH  11  12
HETATM   12  C   UNL     1       9.681  32.010  60.798  1.00  0.00     0.185 C 
BRANCH  12  13
HETATM   13  C   UNL     1       9.179  31.072  61.886  1.00  0.00     0.129 C 
BRANCH  13  14
HETATM   14  C   UNL     1       8.004  31.669  62.631  1.00  0.00     0.219 C 
HETATM   15  N   UNL     1       6.776  31.190  62.237  1.00  0.00    -0.365 N 
HETATM   16  C   UNL     1       5.569  31.599  62.905  1.00  0.00     0.149 C 
HETATM   17  H   UNL     1       6.757  30.350  61.666  1.00  0.00     0.161 HD
HETATM   18  O   UNL     1       8.150  32.535  63.488  1.00  0.00    -0.274 OA
ENDBRANCH  13  14
ENDBRANCH  12  13
ENDBRANCH  11  12
ENDBRANCH   8  11
ENDBRANCH   1   5
BRANCH   2  19
HETATM   19  C   UNL     1       7.510  25.559  55.440  1.00  0.00     0.033 A 
HETATM   20  C   UNL     1       7.905  24.216  55.543  1.00  0.00     0.029 A 
HETATM   21  C   UNL     1       7.624  23.305  54.516  1.00  0.00    -0.023 A 
HETATM   22  C   UNL     1       6.941  23.760  53.381  1.00  0.00     0.012 A 
HETATM   23  C   UNL     1       6.529  25.092  53.280  1.00  0.00     0.002 A 
HETATM   24  C   UNL     1       6.805  25.990  54.311  1.00  0.00     0.017 A 
BRANCH  21  25
HETATM   25  C   UNL     1       8.028  21.911  54.615  1.00  0.00    -0.002 A 
HETATM   26  C   UNL     1       8.195  21.066  53.535  1.00  0.00     0.153 A 
HETATM   27  O   UNL     1       8.589  19.831  53.942  1.00  0.00    -0.334 OA
HETATM   28  C   UNL     1       8.685  19.875  55.294  1.00  0.00     0.142 A 
HETATM   29  C   UNL     1       8.358  21.128  55.758  1.00  0.00     0.038 A 
ENDBRANCH  21  25
ENDBRANCH   2  19
TORSDOF 7
ENDMDL
MODEL 3
REMARK VINA RESULT:      -9.3      3.467      6.683
REMARK  7 active torsions:
REMARK  status: ('A' for Active; 'I' for Inactive)
REMARK       I    between atoms: N_2  and  C_3 
REMARK    1  A    between atoms: C_3  and  C_4 
REMARK    2  A    between atoms: C_4  and  C_5 
REMARK    3  A    between atoms: C_5  and  O_6 
REMARK    4  A    between atoms: O_6  and  C_7 
REMARK    5  A    between atoms: C_10  and  N_11 
REMARK       I    between atoms: N_11  and  C_12 
REMARK    6  A    between atoms: C_12  and  C_13 
REMARK    7  A    between atoms: C_15  and  C_16 
ROOT
HETATM    1  N   UNL     1       7.818  31.242  60.762  1.00  0.00    -0.323 N 
HETATM    2  C   UNL     1       8.691  31.629  59.761  1.00  0.00     0.256 C 
HETATM    3  O   UNL     1       9.212  32.730  59.629  1.00  0.00    -0.267 OA
HETATM    4  H   UNL     1       7.389  30.331  60.676  1.00  0.00     0.169 HD
ENDROOT
BRANCH   1   5
HETATM    5  C   UNL     1       7.389  32.012  61.866  1.00  0.00     0.035 A 
HETATM    6  C   UNL     1       8.148  32.217  63.018  1.00  0.00     0.032 A 
HETATM    7  C   UNL     1       7.655  33.000  64.072  1.00  0.00     0.039 A 
HETATM    8  C   UNL     1       6.393  33.580  63.988  1.00  0.00     0.068 A 
HETATM    9  C   UNL     1       5.626  33.370  62.841  1.00  0.00     0.039 A 
HETATM   10  C   UNL     1       6.120  32.595  61.787  1.00  0.00     0.032 A 
BRANCH   8  11
HETATM   11  O   UNL     1       5.795  34.353  64.944  1.00  0.00    -0.351 OA
BRANCH  11  12
HETATM   12  C   UNL     1       4.748  33.744  65.710  1.00  0.00     0.185 C 
BRANCH  12  13
HETATM   13  C   UNL     1       4.420  34.660  66.881  1.00  0.00     0.129 C 
BRANCH  13  14
HETATM   14  C   UNL     1       5.339  34.404  68.057  1.00  0.00     0.219 C 
HETATM   15  N   UNL     1       6.616  34.892  67.899  1.00  0.00    -0.365 N 
HETATM   16  C   UNL     1       7.583  34.800  68.960  1.00  0.00     0.149 C 
HETATM   17  H   UNL     1       6.780  35.552  67.144  1.00  0.00     0.161 HD
HETATM   18  O   UNL     1       4.970  33.780  69.046  1.00  0.00    -0.274 OA
ENDBRANCH  13  14
ENDBRANCH  12  13
ENDBRANCH  11  12
ENDBRANCH   8  11
ENDBRANCH   1   5
BRANCH   2  19
HETATM   19  C   UNL     1       8.984  30.589  58.732  1.00  0.00     0.033 A 
HETATM   20  C   UNL     1       8.055  29.550  58.564  1.00  0.00     0.029 A 
HETATM   21  C   UNL     1       8.267  28.548  57.606  1.00  0.00    -0.023 A 
HETATM   22  C   UNL     1       9.425  28.601  56.821  1.00  0.00     0.012 A 
HETATM   23  C   UNL     1      10.345  29.643  56.972  1.00  0.00     0.002 A 
HETATM   24  C   UNL     1      10.122  30.641  57.920  1.00  0.00     0.017 A 
BRANCH  21  25
HETATM   25  C   UNL     1       7.309  27.468  57.423  1.00  0.00    -0.002 A 
HETATM   26  C   UNL     1       5.984  27.648  57.075  1.00  0.00     0.153 A 
HETATM   27  O   UNL     1       5.345  26.454  56.965  1.00  0.00    -0.334 OA
HETATM   28  C   UNL     1       6.262  25.492  57.237  1.00  0.00     0.142 A 
HETATM   29  C   UNL     1       7.483  26.058  57.518  1.00  0.00     0.038 A 
ENDBRANCH  21  25
ENDBRANCH   2  19
TORSDOF 7
ENDMDL
MODEL 4
REMARK VINA RESULT:      -8.8      1.027      1.782
REMARK  7 active torsions:
REMARK  status: ('A' for Active; 'I' for Inactive)
REMARK       I    between atoms: N_2  and  C_3 
REMARK    1  A    between atoms: C_3  and  C_4 
REMARK    2  A    between atoms: C_4  and  C_5 
REMARK    3  A    between atoms: C_5  and  O_6 
REMARK    4  A    between atoms: O_6  and  C_7 
REMARK    5  A    between atoms: C_10  and  N_11 
REMARK       I    between atoms: N_11  and  C_12 
REMARK    6  A    between atoms: C_12  and  C_13 
REMARK    7  A    between atoms: C_15  and  C_16 
ROOT
HETATM    1  N   UNL     1       7.698  27.148  55.785  1.00  0.00    -0.323 N 
HETATM    2  C   UNL     1       7.590  27.087  54.407  1.00  0.00     0.256 C 
HETATM    3  O   UNL     1       7.427  28.031  53.643  1.00  0.00    -0.267 OA
HETATM    4  H   UNL     1       7.723  26.272  56.286  1.00  0.00     0.169 HD
ENDROOT
BRANCH   1   5
HETATM    5  C   UNL     1       7.702  28.308  56.590  1.00  0.00     0.035 A 
HETATM    6  C   UNL     1       8.853  28.877  57.136  1.00  0.00     0.032 A 
HETATM    7  C   UNL     1       8.776  30.035  57.924  1.00  0.00     0.039 A 
HETATM    8  C   UNL     1       7.545  30.632  58.181  1.00  0.00     0.068 A 
HETATM    9  C   UNL     1       6.391  30.061  57.645  1.00  0.00     0.039 A 
HETATM   10  C   UNL     1       6.468  28.910  56.853  1.00  0.00     0.032 A 
BRANCH   8  11
HETATM   11  O   UNL     1       7.334  31.751  58.937  1.00  0.00    -0.351 OA
BRANCH  11  12
HETATM   12  C   UNL     1       5.993  32.253  58.994  1.00  0.00     0.185 C 
BRANCH  12  13
HETATM   13  C   UNL     1       5.585  32.359  60.456  1.00  0.00     0.129 C 
BRANCH  13  14
HETATM   14  C   UNL     1       6.792  32.329  61.370  1.00  0.00     0.219 C 
HETATM   15  N   UNL     1       7.239  31.066  61.683  1.00  0.00    -0.365 N 
HETATM   16  C   UNL     1       8.425  30.872  62.474  1.00  0.00     0.149 C 
HETATM   17  H   UNL     1       6.890  30.289  61.129  1.00  0.00     0.161 HD
HETATM   18  O   UNL     1       7.296  33.356  61.814  1.00  0.00    -0.274 OA
ENDBRANCH  13  14
ENDBRANCH  12  13
ENDBRANCH  11  12
ENDBRANCH   8  11
ENDBRANCH   1   5
BRANCH   2  19
HETATM   19  C   UNL     1       7.644  25.715  53.822  1.00  0.00     0.033 A 
HETATM   20  C   UNL     1       7.811  24.632  54.699  1.00  0.00     0.029 A 
HETATM   21  C   UNL     1       7.859  23.318  54.214  1.00  0.00    -0.023 A 
HETATM   22  C   UNL     1       7.740  23.105  52.834  1.00  0.00     0.012 A 
HETATM   23  C   UNL     1       7.556  24.179  51.958  1.00  0.00     0.002 A 
HETATM   24  C   UNL     1       7.499  25.482  52.450  1.00  0.00     0.017 A 
BRANCH  21  25
HETATM   25  C   UNL     1       8.029  22.189  55.115  1.00  0.00    -0.002 A 
HETATM   26  C   UNL     1       7.975  20.864  54.728  1.00  0.00     0.153 A 
HETATM   27  O   UNL     1       8.184  20.040  55.789  1.00  0.00    -0.334 OA
HETATM   28  C   UNL     1       8.382  20.835  56.870  1.00  0.00     0.142 A 
HETATM   29  C   UNL     1       8.303  22.161  56.512  1.00  0.00     0.038 A 
ENDBRANCH  21  25
ENDBRANCH   2  19
TORSDOF 7
ENDMDL
MODEL 5
REMARK VINA RESULT:      -8.6      4.835      8.507
REMARK  7 active torsions:
REMARK  status: ('A' for Active; 'I' for Inactive)
REMARK       I    between atoms: N_2  and  C_3 
REMARK    1  A    between atoms: C_3  and  C_4 
REMARK    2  A    between atoms: C_4  and  C_5 
REMARK    3  A    between atoms: C_5  and  O_6 
REMARK    4  A    between atoms: O_6  and  C_7 
REMARK    5  A    between atoms: C_10  and  N_11 
REMARK       I    between atoms: N_11  and  C_12 
REMARK    6  A    between atoms: C_12  and  C_13 
REMARK    7  A    between atoms: C_15  and  C_16 
ROOT
HETATM    1  N   UNL     1       5.865  26.383  53.719  1.00  0.00    -0.323 N 
HETATM    2  C   UNL     1       6.810  26.686  54.684  1.00  0.00     0.256 C 
HETATM    3  O   UNL     1       7.189  27.805  55.010  1.00  0.00    -0.267 OA
HETATM    4  H   UNL     1       5.736  25.407  53.489  1.00  0.00     0.169 HD
ENDROOT
BRANCH   1   5
HETATM    5  C   UNL     1       5.105  27.292  52.952  1.00  0.00     0.035 A 
HETATM    6  C   UNL     1       3.934  27.904  53.398  1.00  0.00     0.032 A 
HETATM    7  C   UNL     1       3.235  28.802  52.578  1.00  0.00     0.039 A 
HETATM    8  C   UNL     1       3.698  29.092  51.298  1.00  0.00     0.068 A 
HETATM    9  C   UNL     1       4.864  28.476  50.844  1.00  0.00     0.039 A 
HETATM   10  C   UNL     1       5.565  27.586  51.664  1.00  0.00     0.032 A 
BRANCH   8  11
HETATM   11  O   UNL     1       3.109  29.938  50.400  1.00  0.00    -0.351 OA
BRANCH  11  12
HETATM   12  C   UNL     1       2.813  29.405  49.103  1.00  0.00     0.185 C 
BRANCH  12  13
HETATM   13  C   UNL     1       1.486  28.666  49.182  1.00  0.00     0.129 C 
BRANCH  13  14
HETATM   14  C   UNL     1       1.530  27.366  48.408  1.00  0.00     0.219 C 
HETATM   15  N   UNL     1       2.717  26.679  48.513  1.00  0.00    -0.365 N 
HETATM   16  C   UNL     1       2.886  25.388  47.902  1.00  0.00     0.149 C 
HETATM   17  H   UNL     1       3.364  26.962  49.245  1.00  0.00     0.161 HD
HETATM   18  O   UNL     1       0.587  26.988  47.719  1.00  0.00    -0.274 OA
ENDBRANCH  13  14
ENDBRANCH  12  13
ENDBRANCH  11  12
ENDBRANCH   8  11
ENDBRANCH   1   5
BRANCH   2  19
HETATM   19  C   UNL     1       7.438  25.511  55.355  1.00  0.00     0.033 A 
HETATM   20  C   UNL     1       7.566  24.323  54.618  1.00  0.00     0.029 A 
HETATM   21  C   UNL     1       8.157  23.187  55.188  1.00  0.00    -0.023 A 
HETATM   22  C   UNL     1       8.615  23.257  56.509  1.00  0.00     0.012 A 
HETATM   23  C   UNL     1       8.506  24.443  57.242  1.00  0.00     0.002 A 
HETATM   24  C   UNL     1       7.925  25.572  56.665  1.00  0.00     0.017 A 
BRANCH  21  25
HETATM   25  C   UNL     1       8.297  21.952  54.431  1.00  0.00    -0.002 A 
HETATM   26  C   UNL     1       8.724  20.751  54.965  1.00  0.00     0.153 A 
HETATM   27  O   UNL     1       8.740  19.778  54.017  1.00  0.00    -0.334 OA
HETATM   28  C   UNL     1       8.314  20.348  52.862  1.00  0.00     0.142 A 
HETATM   29  C   UNL     1       8.023  21.677  53.061  1.00  0.00     0.038 A 
ENDBRANCH  21  25
ENDBRANCH   2  19
TORSDOF 7
ENDMDL
MODEL 6
REMARK VINA RESULT:      -8.3      5.613      9.762
REMARK  7 active torsions:
REMARK  status: ('A' for Active; 'I' for Inactive)
REMARK       I    between atoms: N_2  and  C_3 
REMARK    1  A    between atoms: C_3  and  C_4 
REMARK    2  A    between atoms: C_4  and  C_5 
REMARK    3  A    between atoms: C_5  and  O_6 
REMARK    4  A    between atoms: O_6  and  C_7 
REMARK    5  A    between atoms: C_10  and  N_11 
REMARK       I    between atoms: N_11  and  C_12 
REMARK    6  A    between atoms: C_12  and  C_13 
REMARK    7  A    between atoms: C_15  and  C_16 
ROOT
HETATM    1  N   UNL     1       5.751  26.120  51.902  1.00  0.00    -0.323 N 
HETATM    2  C   UNL     1       5.243  26.249  53.183  1.00  0.00     0.256 C 
HETATM    3  O   UNL     1       4.309  26.961  53.531  1.00  0.00    -0.267 OA
HETATM    4  H   UNL     1       6.593  25.573  51.792  1.00  0.00     0.169 HD
ENDROOT
BRANCH   1   5
HETATM    5  C   UNL     1       5.269  26.734  50.726  1.00  0.00     0.035 A 
HETATM    6  C   UNL     1       5.465  28.078  50.409  1.00  0.00     0.032 A 
HETATM    7  C   UNL     1       4.958  28.617  49.217  1.00  0.00     0.039 A 
HETATM    8  C   UNL     1       4.242  27.816  48.332  1.00  0.00     0.068 A 
HETATM    9  C   UNL     1       4.035  26.473  48.649  1.00  0.00     0.039 A 
HETATM   10  C   UNL     1       4.547  25.934  49.834  1.00  0.00     0.032 A 
BRANCH   8  11
HETATM   11  O   UNL     1       3.690  28.217  47.147  1.00  0.00    -0.351 OA
BRANCH  11  12
HETATM   12  C   UNL     1       2.884  29.402  47.174  1.00  0.00     0.185 C 
BRANCH  12  13
HETATM   13  C   UNL     1       1.610  29.095  47.947  1.00  0.00     0.129 C 
BRANCH  13  14
HETATM   14  C   UNL     1       0.785  28.033  47.253  1.00  0.00     0.219 C 
HETATM   15  N   UNL     1       0.334  28.386  46.003  1.00  0.00    -0.365 N 
HETATM   16  C   UNL     1      -0.394  27.454  45.183  1.00  0.00     0.149 C 
HETATM   17  H   UNL     1       0.753  29.200  45.561  1.00  0.00     0.161 HD
HETATM   18  O   UNL     1       0.519  26.962  47.792  1.00  0.00    -0.274 OA
ENDBRANCH  13  14
ENDBRANCH  12  13
ENDBRANCH  11  12
ENDBRANCH   8  11
ENDBRANCH   1   5
BRANCH   2  19
HETATM   19  C   UNL     1       5.946  25.454  54.231  1.00  0.00     0.033 A 
HETATM   20  C   UNL     1       6.487  24.212  53.864  1.00  0.00     0.029 A 
HETATM   21  C   UNL     1       7.168  23.422  54.800  1.00  0.00    -0.023 A 
HETATM   22  C   UNL     1       7.298  23.894  56.113  1.00  0.00     0.012 A 
HETATM   23  C   UNL     1       6.776  25.138  56.480  1.00  0.00     0.002 A 
HETATM   24  C   UNL     1       6.108  25.922  55.540  1.00  0.00     0.017 A 
BRANCH  21  25
HETATM   25  C   UNL     1       7.735  22.135  54.429  1.00  0.00    -0.002 A 
HETATM   26  C   UNL     1       8.034  21.755  53.134  1.00  0.00     0.153 A 
HETATM   27  O   UNL     1       8.562  20.504  53.105  1.00  0.00    -0.334 OA
HETATM   28  C   UNL     1       8.612  20.069  54.389  1.00  0.00     0.142 A 
HETATM   29  C   UNL     1       8.124  21.032  55.241  1.00  0.00     0.038 A 
ENDBRANCH  21  25
ENDBRANCH   2  19
TORSDOF 7
ENDMDL
MODEL 7
REMARK VINA RESULT:      -8.3      4.291     12.468
REMARK  7 active torsions:
REMARK  status: ('A' for Active; 'I' for Inactive)
REMARK       I    between atoms: N_2  and  C_3 
REMARK    1  A    between atoms: C_3  and  C_4 
REMARK    2  A    between atoms: C_4  and  C_5 
REMARK    3  A    between atoms: C_5  and  O_6 
REMARK    4  A    between atoms: O_6  and  C_7 
REMARK    5  A    between atoms: C_10  and  N_11 
REMARK       I    between atoms: N_11  and  C_12 
REMARK    6  A    between atoms: C_12  and  C_13 
REMARK    7  A    between atoms: C_15  and  C_16 
ROOT
HETATM    1  N   UNL     1       6.833  33.126  63.463  1.00  0.00    -0.323 N 
HETATM    2  C   UNL     1       5.611  32.914  64.076  1.00  0.00     0.256 C 
HETATM    3  O   UNL     1       4.799  32.037  63.805  1.00  0.00    -0.267 OA
HETATM    4  H   UNL     1       7.345  33.956  63.726  1.00  0.00     0.169 HD
ENDROOT
BRANCH   1   5
HETATM    5  C   UNL     1       7.423  32.349  62.442  1.00  0.00     0.035 A 
HETATM    6  C   UNL     1       8.423  31.401  62.659  1.00  0.00     0.032 A 
HETATM    7  C   UNL     1       8.958  30.664  61.593  1.00  0.00     0.039 A 
HETATM    8  C   UNL     1       8.502  30.872  60.294  1.00  0.00     0.068 A 
HETATM    9  C   UNL     1       7.508  31.825  60.071  1.00  0.00     0.039 A 
HETATM   10  C   UNL     1       6.970  32.556  61.135  1.00  0.00     0.032 A 
BRANCH   8  11
HETATM   11  O   UNL     1       8.943  30.229  59.172  1.00  0.00    -0.351 OA
BRANCH  11  12
HETATM   12  C   UNL     1       7.963  29.528  58.397  1.00  0.00     0.185 C 
BRANCH  12  13
HETATM   13  C   UNL     1       8.690  28.668  57.374  1.00  0.00     0.129 C 
BRANCH  13  14
HETATM   14  C   UNL     1       8.048  27.303  57.243  1.00  0.00     0.219 C 
HETATM   15  N   UNL     1       7.617  26.994  55.974  1.00  0.00    -0.365 N 
HETATM   16  C   UNL     1       7.060  25.702  55.671  1.00  0.00     0.149 C 
HETATM   17  H   UNL     1       7.945  27.576  55.208  1.00  0.00     0.161 HD
HETATM   18  O   UNL     1       7.901  26.560  58.209  1.00  0.00    -0.274 OA
ENDBRANCH  13  14
ENDBRANCH  12  13
ENDBRANCH  11  12
ENDBRANCH   8  11
ENDBRANCH   1   5
BRANCH   2  19
HETATM   19  C   UNL     1       5.257  33.889  65.148  1.00  0.00     0.033 A 
HETATM   20  C   UNL     1       5.941  33.800  66.370  1.00  0.00     0.029 A 
HETATM   21  C   UNL     1       5.663  34.693  67.414  1.00  0.00    -0.023 A 
HETATM   22  C   UNL     1       4.684  35.675  67.217  1.00  0.00     0.012 A 
HETATM   23  C   UNL     1       4.012  35.779  65.995  1.00  0.00     0.002 A 
HETATM   24  C   UNL     1       4.302  34.893  64.958  1.00  0.00     0.017 A 
BRANCH  21  25
HETATM   25  C   UNL     1       6.368  34.610  68.684  1.00  0.00    -0.002 A 
HETATM   26  C   UNL     1       5.977  33.820  69.747  1.00  0.00     0.153 A 
HETATM   27  O   UNL     1       6.841  33.944  70.788  1.00  0.00    -0.334 OA
HETATM   28  C   UNL     1       7.804  34.815  70.396  1.00  0.00     0.142 A 
HETATM   29  C   UNL     1       7.567  35.249  69.113  1.00  0.00     0.038 A 
ENDBRANCH  21  25
ENDBRANCH   2  19
TORSDOF 7
ENDMDL
MODEL 8
REMARK VINA RESULT:      -8.0      2.132      9.899
REMARK  7 active torsions:
REMARK  status: ('A' for Active; 'I' for Inactive)
REMARK       I    between atoms: N_2  and  C_3 
REMARK    1  A    between atoms: C_3  and  C_4 
REMARK    2  A    between atoms: C_4  and  C_5 
REMARK    3  A    between atoms: C_5  and  O_6 
REMARK    4  A    between atoms: O_6  and  C_7 
REMARK    5  A    between atoms: C_10  and  N_11 
REMARK       I    between atoms: N_11  and  C_12 
REMARK    6  A    between atoms: C_12  and  C_13 
REMARK    7  A    between atoms: C_15  and  C_16 
ROOT
HETATM    1  N   UNL     1       7.576  29.243  58.416  1.00  0.00    -0.323 N 
HETATM    2  C   UNL     1       8.528  30.222  58.640  1.00  0.00     0.256 C 
HETATM    3  O   UNL     1       9.465  30.511  57.905  1.00  0.00    -0.267 OA
HETATM    4  H   UNL     1       6.927  29.050  59.166  1.00  0.00     0.169 HD
ENDROOT
BRANCH   1   5
HETATM    5  C   UNL     1       7.450  28.417  57.278  1.00  0.00     0.035 A 
HETATM    6  C   UNL     1       7.046  28.872  56.023  1.00  0.00     0.032 A 
HETATM    7  C   UNL     1       6.949  27.990  54.937  1.00  0.00     0.039 A 
HETATM    8  C   UNL     1       7.249  26.640  55.097  1.00  0.00     0.068 A 
HETATM    9  C   UNL     1       7.645  26.179  56.353  1.00  0.00     0.039 A 
HETATM   10  C   UNL     1       7.748  27.060  57.435  1.00  0.00     0.032 A 
BRANCH   8  11
HETATM   11  O   UNL     1       7.186  25.679  54.127  1.00  0.00    -0.351 OA
BRANCH  11  12
HETATM   12  C   UNL     1       6.767  24.371  54.534  1.00  0.00     0.185 C 
BRANCH  12  13
HETATM   13  C   UNL     1       7.427  23.352  53.617  1.00  0.00     0.129 C 
BRANCH  13  14
HETATM   14  C   UNL     1       8.209  22.324  54.407  1.00  0.00     0.219 C 
HETATM   15  N   UNL     1       7.756  22.123  55.690  1.00  0.00    -0.365 N 
HETATM   16  C   UNL     1       8.342  21.121  56.538  1.00  0.00     0.149 C 
HETATM   17  H   UNL     1       6.839  22.491  55.930  1.00  0.00     0.161 HD
HETATM   18  O   UNL     1       9.188  21.751  53.937  1.00  0.00    -0.274 OA
ENDBRANCH  13  14
ENDBRANCH  12  13
ENDBRANCH  11  12
ENDBRANCH   8  11
ENDBRANCH   1   5
BRANCH   2  19
HETATM   19  C   UNL     1       8.397  30.958  59.930  1.00  0.00     0.033 A 
HETATM   20  C   UNL     1       7.119  31.395  60.312  1.00  0.00     0.029 A 
HETATM   21  C   UNL     1       6.927  32.083  61.518  1.00  0.00    -0.023 A 
HETATM   22  C   UNL     1       8.037  32.331  62.335  1.00  0.00     0.012 A 
HETATM   23  C   UNL     1       9.310  31.883  61.969  1.00  0.00     0.002 A 
HETATM   24  C   UNL     1       9.490  31.190  60.772  1.00  0.00     0.017 A 
BRANCH  21  25
HETATM   25  C   UNL     1       5.606  32.538  61.923  1.00  0.00    -0.002 A 
HETATM   26  C   UNL     1       5.134  32.514  63.221  1.00  0.00     0.153 A 
HETATM   27  O   UNL     1       3.873  33.015  63.288  1.00  0.00    -0.334 OA
HETATM   28  C   UNL     1       3.525  33.372  62.026  1.00  0.00     0.142 A 
HETATM   29  C   UNL     1       4.553  33.107  61.152  1.00  0.00     0.038 A 
ENDBRANCH  21  25
ENDBRANCH   2  19
TORSDOF 7
ENDMDL
MODEL 9
REMARK VINA RESULT:      -8.0      2.296      2.675
REMARK  7 active torsions:
REMARK  status: ('A' for Active; 'I' for Inactive)
REMARK       I    between atoms: N_2  and  C_3 
REMARK    1  A    between atoms: C_3  and  C_4 
REMARK    2  A    between atoms: C_4  and  C_5 
REMARK    3  A    between atoms: C_5  and  O_6 
REMARK    4  A    between atoms: O_6  and  C_7 
REMARK    5  A    between atoms: C_10  and  N_11 
REMARK       I    between atoms: N_11  and  C_12 
REMARK    6  A    between atoms: C_12  and  C_13 
REMARK    7  A    between atoms: C_15  and  C_16 
ROOT
HETATM    1  N   UNL     1       6.991  27.236  55.830  1.00  0.00    -0.323 N 
HETATM    2  C   UNL     1       7.488  27.196  54.540  1.00  0.00     0.256 C 
HETATM    3  O   UNL     1       7.802  28.156  53.846  1.00  0.00    -0.267 OA
HETATM    4  H   UNL     1       6.679  26.364  56.233  1.00  0.00     0.169 HD
ENDROOT
BRANCH   1   5
HETATM    5  C   UNL     1       6.794  28.380  56.634  1.00  0.00     0.035 A 
HETATM    6  C   UNL     1       5.574  29.042  56.767  1.00  0.00     0.032 A 
HETATM    7  C   UNL     1       5.455  30.172  57.590  1.00  0.00     0.039 A 
HETATM    8  C   UNL     1       6.560  30.656  58.284  1.00  0.00     0.068 A 
HETATM    9  C   UNL     1       7.786  30.003  58.148  1.00  0.00     0.039 A 
HETATM   10  C   UNL     1       7.902  28.872  57.333  1.00  0.00     0.032 A 
BRANCH   8  11
HETATM   11  O   UNL     1       6.581  31.747  59.107  1.00  0.00    -0.351 OA
BRANCH  11  12
HETATM   12  C   UNL     1       5.528  32.705  58.943  1.00  0.00     0.185 C 
BRANCH  12  13
HETATM   13  C   UNL     1       4.983  33.054  60.321  1.00  0.00     0.129 C 
BRANCH  13  14
HETATM   14  C   UNL     1       3.669  33.801  60.222  1.00  0.00     0.219 C 
HETATM   15  N   UNL     1       3.754  35.145  60.503  1.00  0.00    -0.365 N 
HETATM   16  C   UNL     1       2.609  36.006  60.374  1.00  0.00     0.149 C 
HETATM   17  H   UNL     1       4.680  35.564  60.534  1.00  0.00     0.161 HD
HETATM   18  O   UNL     1       2.617  33.231  59.947  1.00  0.00    -0.274 OA
ENDBRANCH  13  14
ENDBRANCH  12  13
ENDBRANCH  11  12
ENDBRANCH   8  11
ENDBRANCH   1   5
BRANCH   2  19
HETATM   19  C   UNL     1       7.612  25.833  53.945  1.00  0.00     0.033 A 
HETATM   20  C   UNL     1       7.753  24.744  54.819  1.00  0.00     0.029 A 
HETATM   21  C   UNL     1       7.863  23.437  54.324  1.00  0.00    -0.023 A 
HETATM   22  C   UNL     1       7.834  23.238  52.938  1.00  0.00     0.012 A 
HETATM   23  C   UNL     1       7.676  24.317  52.064  1.00  0.00     0.002 A 
HETATM   24  C   UNL     1       7.558  25.613  52.565  1.00  0.00     0.017 A 
BRANCH  21  25
HETATM   25  C   UNL     1       8.007  22.302  55.223  1.00  0.00    -0.002 A 
HETATM   26  C   UNL     1       8.379  22.396  56.550  1.00  0.00     0.153 A 
HETATM   27  O   UNL     1       8.414  21.169  57.132  1.00  0.00    -0.334 OA
HETATM   28  C   UNL     1       8.055  20.272  56.179  1.00  0.00     0.142 A 
HETATM   29  C   UNL     1       7.788  20.914  54.992  1.00  0.00     0.038 A 
ENDBRANCH  21  25
ENDBRANCH   2  19
TORSDOF 7
ENDMDL
MODEL 10
REMARK VINA RESULT:      -7.8      5.727      9.031
REMARK  7 active torsions:
REMARK  status: ('A' for Active; 'I' for Inactive)
REMARK       I    between atoms: N_2  and  C_3 
REMARK    1  A    between atoms: C_3  and  C_4 
REMARK    2  A    between atoms: C_4  and  C_5 
REMARK    3  A    between atoms: C_5  and  O_6 
REMARK    4  A    between atoms: O_6  and  C_7 
REMARK    5  A    between atoms: C_10  and  N_11 
REMARK       I    between atoms: N_11  and  C_12 
REMARK    6  A    between atoms: C_12  and  C_13 
REMARK    7  A    between atoms: C_15  and  C_16 
ROOT
HETATM    1  N   UNL     1       5.663  26.000  51.751  1.00  0.00    -0.323 N 
HETATM    2  C   UNL     1       5.210  26.144  53.050  1.00  0.00     0.256 C 
HETATM    3  O   UNL     1       4.318  26.890  53.436  1.00  0.00    -0.267 OA
HETATM    4  H   UNL     1       6.479  25.422  51.606  1.00  0.00     0.169 HD
ENDROOT
BRANCH   1   5
HETATM    5  C   UNL     1       5.159  26.637  50.595  1.00  0.00     0.035 A 
HETATM    6  C   UNL     1       4.465  25.979  49.580  1.00  0.00     0.032 A 
HETATM    7  C   UNL     1       3.991  26.682  48.462  1.00  0.00     0.039 A 
HETATM    8  C   UNL     1       4.211  28.051  48.347  1.00  0.00     0.068 A 
HETATM    9  C   UNL     1       4.912  28.712  49.356  1.00  0.00     0.039 A 
HETATM   10  C   UNL     1       5.379  28.013  50.473  1.00  0.00     0.032 A 
BRANCH   8  11
HETATM   11  O   UNL     1       3.811  28.848  47.310  1.00  0.00    -0.351 OA
BRANCH  11  12
HETATM   12  C   UNL     1       4.669  29.941  46.961  1.00  0.00     0.185 C 
BRANCH  12  13
HETATM   13  C   UNL     1       3.800  31.152  46.657  1.00  0.00     0.129 C 
BRANCH  13  14
HETATM   14  C   UNL     1       2.779  31.388  47.750  1.00  0.00     0.219 C 
HETATM   15  N   UNL     1       1.524  30.897  47.474  1.00  0.00    -0.365 N 
HETATM   16  C   UNL     1       0.466  30.970  48.447  1.00  0.00     0.149 C 
HETATM   17  H   UNL     1       1.430  30.246  46.699  1.00  0.00     0.161 HD
HETATM   18  O   UNL     1       3.057  32.001  48.776  1.00  0.00    -0.274 OA
ENDBRANCH  13  14
ENDBRANCH  12  13
ENDBRANCH  11  12
ENDBRANCH   8  11
ENDBRANCH   1   5
BRANCH   2  19
HETATM   19  C   UNL     1       5.922  25.319  54.069  1.00  0.00     0.033 A 
HETATM   20  C   UNL     1       6.471  24.094  53.659  1.00  0.00     0.029 A 
HETATM   21  C   UNL     1       7.161  23.278  54.565  1.00  0.00    -0.023 A 
HETATM   22  C   UNL     1       7.291  23.707  55.893  1.00  0.00     0.012 A 
HETATM   23  C   UNL     1       6.762  24.934  56.303  1.00  0.00     0.002 A 
HETATM   24  C   UNL     1       6.085  25.744  55.392  1.00  0.00     0.017 A 
BRANCH  21  25
HETATM   25  C   UNL     1       7.736  22.009  54.148  1.00  0.00    -0.002 A 
HETATM   26  C   UNL     1       7.985  20.946  54.996  1.00  0.00     0.153 A 
HETATM   27  O   UNL     1       8.511  19.895  54.314  1.00  0.00    -0.334 OA
HETATM   28  C   UNL     1       8.597  20.274  53.015  1.00  0.00     0.142 A 
HETATM   29  C   UNL     1       8.130  21.557  52.856  1.00  0.00     0.038 A 
ENDBRANCH  21  25
ENDBRANCH   2  19
TORSDOF 7
ENDMDL
