MODEL 1
REMARK VINA RESULT:      -8.8      0.000      0.000
REMARK  5 active torsions:
REMARK  status: ('A' for Active; 'I' for Inactive)
REMARK    1  A    between atoms: C_2  and  N_3 
REMARK       I    between atoms: N_3  and  C_4 
REMARK    2  A    between atoms: C_4  and  C_5 
REMARK    3  A    between atoms: C_13  and  C_14 
REMARK    4  A    between atoms: C_15  and  O_16 
REMARK    5  A    between atoms: C_19  and  O_20 
ROOT
HETATM    1  C   UNL     1       7.468  29.049  57.896  1.00  0.00     0.046 A 
HETATM    2  C   UNL     1       6.180  29.469  57.495  1.00  0.00     0.008 A 
HETATM    3  C   UNL     1       5.456  28.565  56.694  1.00  0.00     0.068 A 
HETATM    4  C   UNL     1       4.181  28.916  56.271  1.00  0.00     0.032 A 
HETATM    5  C   UNL     1       3.594  30.135  56.617  1.00  0.00     0.002 A 
HETATM    6  C   UNL     1       4.294  31.032  57.410  1.00  0.00     0.001 A 
HETATM    7  C   UNL     1       5.575  30.702  57.849  1.00  0.00     0.015 A 
HETATM    8  N   UNL     1       5.936  27.367  56.322  1.00  0.00    -0.247 NA
HETATM    9  C   UNL     1       7.187  27.007  56.694  1.00  0.00     0.071 A 
HETATM   10  C   UNL     1       7.980  27.817  57.485  1.00  0.00     0.050 A 
ENDROOT
BRANCH   9  11
HETATM   11  C   UNL     1       7.641  25.685  56.245  1.00  0.00     0.026 A 
HETATM   12  C   UNL     1       7.645  25.310  54.891  1.00  0.00     0.083 A 
HETATM   13  C   UNL     1       8.125  24.059  54.475  1.00  0.00     0.074 A 
HETATM   14  C   UNL     1       8.579  23.139  55.417  1.00  0.00     0.070 A 
HETATM   15  C   UNL     1       8.561  23.486  56.769  1.00  0.00     0.038 A 
HETATM   16  C   UNL     1       8.102  24.742  57.179  1.00  0.00     0.019 A 
BRANCH  12  17
HETATM   17  O   UNL     1       7.264  26.214  53.928  1.00  0.00    -0.355 OA
HETATM   18  C   UNL     1       6.272  25.638  53.076  1.00  0.00     0.210 C 
ENDBRANCH  12  17
BRANCH  14  19
HETATM   19  O   UNL     1       9.066  21.890  55.153  1.00  0.00    -0.356 OA
HETATM   20  C   UNL     1       8.829  21.368  53.852  1.00  0.00     0.210 C 
ENDBRANCH  14  19
ENDBRANCH   9  11
BRANCH   1  21
HETATM   21  C   UNL     1       8.334  29.895  58.756  1.00  0.00     0.253 C 
HETATM   22  N   UNL     1       7.764  30.264  59.958  1.00  0.00    -0.349 N 
HETATM   23  H   UNL     1       6.776  30.078  60.077  1.00  0.00     0.163 HD
HETATM   24  O   UNL     1       9.454  30.216  58.381  1.00  0.00    -0.268 OA
BRANCH  22  25
HETATM   25  C   UNL     1       8.400  31.141  60.953  1.00  0.00     0.022 C 
HETATM   26  C   UNL     1       9.003  32.382  60.276  1.00  0.00     0.037 C 
HETATM   27  C   UNL     1       9.483  30.391  61.745  1.00  0.00     0.037 C 
HETATM   28  C   UNL     1       7.314  31.600  61.943  1.00  0.00     0.037 C 
ENDBRANCH  22  25
ENDBRANCH   1  21
TORSDOF 5
ENDMDL
MODEL 2
REMARK VINA RESULT:      -8.8      4.136      7.510
REMARK  5 active torsions:
REMARK  status: ('A' for Active; 'I' for Inactive)
REMARK    1  A    between atoms: C_2  and  N_3 
REMARK       I    between atoms: N_3  and  C_4 
REMARK    2  A    between atoms: C_4  and  C_5 
REMARK    3  A    between atoms: C_13  and  C_14 
REMARK    4  A    between atoms: C_15  and  O_16 
REMARK    5  A    between atoms: C_19  and  O_20 
ROOT
HETATM    1  C   UNL     1       5.124  26.850  51.812  1.00  0.00     0.046 A 
HETATM    2  C   UNL     1       4.714  27.724  52.844  1.00  0.00     0.008 A 
HETATM    3  C   UNL     1       5.039  27.329  54.156  1.00  0.00     0.068 A 
HETATM    4  C   UNL     1       4.669  28.148  55.214  1.00  0.00     0.032 A 
HETATM    5  C   UNL     1       3.986  29.350  55.018  1.00  0.00     0.002 A 
HETATM    6  C   UNL     1       3.665  29.754  53.731  1.00  0.00     0.001 A 
HETATM    7  C   UNL     1       4.027  28.950  52.651  1.00  0.00     0.015 A 
HETATM    8  N   UNL     1       5.702  26.195  54.437  1.00  0.00    -0.247 NA
HETATM    9  C   UNL     1       6.053  25.361  53.430  1.00  0.00     0.071 A 
HETATM   10  C   UNL     1       5.787  25.657  52.106  1.00  0.00     0.050 A 
ENDROOT
BRANCH   9  11
HETATM   11  C   UNL     1       6.771  24.142  53.818  1.00  0.00     0.026 A 
HETATM   12  C   UNL     1       6.925  23.753  55.160  1.00  0.00     0.083 A 
HETATM   13  C   UNL     1       7.575  22.561  55.511  1.00  0.00     0.074 A 
HETATM   14  C   UNL     1       8.121  21.748  54.521  1.00  0.00     0.070 A 
HETATM   15  C   UNL     1       7.999  22.130  53.184  1.00  0.00     0.038 A 
HETATM   16  C   UNL     1       7.331  23.308  52.835  1.00  0.00     0.019 A 
BRANCH  12  17
HETATM   17  O   UNL     1       6.345  24.497  56.160  1.00  0.00    -0.355 OA
HETATM   18  C   UNL     1       7.329  24.885  57.120  1.00  0.00     0.210 C 
ENDBRANCH  12  17
BRANCH  14  19
HETATM   19  O   UNL     1       8.782  20.568  54.720  1.00  0.00    -0.356 OA
HETATM   20  C   UNL     1       9.342  20.354  56.009  1.00  0.00     0.210 C 
ENDBRANCH  14  19
ENDBRANCH   9  11
BRANCH   1  21
HETATM   21  C   UNL     1       4.862  27.150  50.382  1.00  0.00     0.253 C 
HETATM   22  N   UNL     1       3.997  26.271  49.761  1.00  0.00    -0.349 N 
HETATM   23  H   UNL     1       3.755  25.428  50.265  1.00  0.00     0.163 HD
HETATM   24  O   UNL     1       5.399  28.108  49.842  1.00  0.00    -0.268 OA
BRANCH  22  25
HETATM   25  C   UNL     1       3.625  26.325  48.339  1.00  0.00     0.022 C 
HETATM   26  C   UNL     1       4.863  26.576  47.463  1.00  0.00     0.037 C 
HETATM   27  C   UNL     1       2.566  27.409  48.082  1.00  0.00     0.037 C 
HETATM   28  C   UNL     1       3.019  24.963  47.955  1.00  0.00     0.037 C 
ENDBRANCH  22  25
ENDBRANCH   1  21
TORSDOF 5
ENDMDL
MODEL 3
REMARK VINA RESULT:      -8.7      1.975      7.612
REMARK  5 active torsions:
REMARK  status: ('A' for Active; 'I' for Inactive)
REMARK    1  A    between atoms: C_2  and  N_3 
REMARK       I    between atoms: N_3  and  C_4 
REMARK    2  A    between atoms: C_4  and  C_5 
REMARK    3  A    between atoms: C_13  and  C_14 
REMARK    4  A    between atoms: C_15  and  O_16 
REMARK    5  A    between atoms: C_19  and  O_20 
ROOT
HETATM    1  C   UNL     1       7.476  25.173  55.542  1.00  0.00     0.046 A 
HETATM    2  C   UNL     1       6.619  25.462  54.457  1.00  0.00     0.008 A 
HETATM    3  C   UNL     1       6.351  26.825  54.225  1.00  0.00     0.068 A 
HETATM    4  C   UNL     1       5.520  27.175  53.170  1.00  0.00     0.032 A 
HETATM    5  C   UNL     1       4.944  26.220  52.331  1.00  0.00     0.002 A 
HETATM    6  C   UNL     1       5.203  24.875  52.544  1.00  0.00     0.001 A 
HETATM    7  C   UNL     1       6.036  24.496  53.596  1.00  0.00     0.015 A 
HETATM    8  N   UNL     1       6.870  27.812  54.974  1.00  0.00    -0.247 NA
HETATM    9  C   UNL     1       7.662  27.502  56.028  1.00  0.00     0.071 A 
HETATM   10  C   UNL     1       7.992  26.196  56.339  1.00  0.00     0.050 A 
ENDROOT
BRANCH   9  11
HETATM   11  C   UNL     1       8.187  28.635  56.800  1.00  0.00     0.026 A 
HETATM   12  C   UNL     1       7.372  29.423  57.629  1.00  0.00     0.083 A 
HETATM   13  C   UNL     1       7.898  30.474  58.395  1.00  0.00     0.074 A 
HETATM   14  C   UNL     1       9.254  30.782  58.315  1.00  0.00     0.070 A 
HETATM   15  C   UNL     1      10.075  30.024  57.479  1.00  0.00     0.038 A 
HETATM   16  C   UNL     1       9.551  28.963  56.733  1.00  0.00     0.019 A 
BRANCH  12  17
HETATM   17  O   UNL     1       6.041  29.111  57.781  1.00  0.00    -0.355 OA
HETATM   18  C   UNL     1       5.226  30.212  57.378  1.00  0.00     0.210 C 
ENDBRANCH  12  17
BRANCH  14  19
HETATM   19  O   UNL     1       9.896  31.777  58.998  1.00  0.00    -0.356 OA
HETATM   20  C   UNL     1       9.444  32.045  60.319  1.00  0.00     0.210 C 
ENDBRANCH  14  19
ENDBRANCH   9  11
BRANCH   1  21
HETATM   21  C   UNL     1       7.857  23.780  55.890  1.00  0.00     0.253 C 
HETATM   22  N   UNL     1       7.931  22.920  54.812  1.00  0.00    -0.349 N 
HETATM   23  H   UNL     1       7.568  23.254  53.929  1.00  0.00     0.163 HD
HETATM   24  O   UNL     1       8.071  23.469  57.054  1.00  0.00    -0.268 OA
BRANCH  22  25
HETATM   25  C   UNL     1       8.234  21.483  54.906  1.00  0.00     0.022 C 
HETATM   26  C   UNL     1       7.323  20.802  55.939  1.00  0.00     0.037 C 
HETATM   27  C   UNL     1       9.710  21.249  55.265  1.00  0.00     0.037 C 
HETATM   28  C   UNL     1       7.971  20.853  53.526  1.00  0.00     0.037 C 
ENDBRANCH  22  25
ENDBRANCH   1  21
TORSDOF 5
ENDMDL
MODEL 4
REMARK VINA RESULT:      -8.5      2.132      7.799
REMARK  5 active torsions:
REMARK  status: ('A' for Active; 'I' for Inactive)
REMARK    1  A    between atoms: C_2  and  N_3 
REMARK       I    between atoms: N_3  and  C_4 
REMARK    2  A    between atoms: C_4  and  C_5 
REMARK    3  A    between atoms: C_13  and  C_14 
REMARK    4  A    between atoms: C_15  and  O_16 
REMARK    5  A    between atoms: C_19  and  O_20 
ROOT
HETATM    1  C   UNL     1       6.591  26.408  54.604  1.00  0.00     0.046 A 
HETATM    2  C   UNL     1       7.130  25.182  55.053  1.00  0.00     0.008 A 
HETATM    3  C   UNL     1       7.988  25.254  56.168  1.00  0.00     0.068 A 
HETATM    4  C   UNL     1       8.546  24.082  56.661  1.00  0.00     0.032 A 
HETATM    5  C   UNL     1       8.282  22.836  56.089  1.00  0.00     0.002 A 
HETATM    6  C   UNL     1       7.435  22.751  54.995  1.00  0.00     0.001 A 
HETATM    7  C   UNL     1       6.860  23.912  54.481  1.00  0.00     0.015 A 
HETATM    8  N   UNL     1       8.290  26.406  56.788  1.00  0.00    -0.247 NA
HETATM    9  C   UNL     1       7.784  27.570  56.314  1.00  0.00     0.071 A 
HETATM   10  C   UNL     1       6.928  27.610  55.229  1.00  0.00     0.050 A 
ENDROOT
BRANCH   9  11
HETATM   11  C   UNL     1       8.163  28.786  57.043  1.00  0.00     0.026 A 
HETATM   12  C   UNL     1       7.224  29.579  57.724  1.00  0.00     0.083 A 
HETATM   13  C   UNL     1       7.609  30.713  58.453  1.00  0.00     0.074 A 
HETATM   14  C   UNL     1       8.947  31.100  58.484  1.00  0.00     0.070 A 
HETATM   15  C   UNL     1       9.891  30.337  57.794  1.00  0.00     0.038 A 
HETATM   16  C   UNL     1       9.507  29.194  57.086  1.00  0.00     0.019 A 
BRANCH  12  17
HETATM   17  O   UNL     1       5.904  29.195  57.768  1.00  0.00    -0.355 OA
HETATM   18  C   UNL     1       5.066  30.255  57.307  1.00  0.00     0.210 C 
ENDBRANCH  12  17
BRANCH  14  19
HETATM   19  O   UNL     1       9.459  32.180  59.147  1.00  0.00    -0.356 OA
HETATM   20  C   UNL     1       9.015  32.384  60.483  1.00  0.00     0.210 C 
ENDBRANCH  14  19
ENDBRANCH   9  11
BRANCH   1  21
HETATM   21  C   UNL     1       5.659  26.478  53.450  1.00  0.00     0.253 C 
HETATM   22  N   UNL     1       5.907  27.517  52.576  1.00  0.00    -0.349 N 
HETATM   23  H   UNL     1       6.571  28.221  52.871  1.00  0.00     0.163 HD
HETATM   24  O   UNL     1       4.757  25.659  53.332  1.00  0.00    -0.268 OA
BRANCH  22  25
HETATM   25  C   UNL     1       5.092  27.827  51.390  1.00  0.00     0.022 C 
HETATM   26  C   UNL     1       3.676  28.260  51.803  1.00  0.00     0.037 C 
HETATM   27  C   UNL     1       5.021  26.626  50.434  1.00  0.00     0.037 C 
HETATM   28  C   UNL     1       5.764  28.994  50.645  1.00  0.00     0.037 C 
ENDBRANCH  22  25
ENDBRANCH   1  21
TORSDOF 5
ENDMDL
MODEL 5
REMARK VINA RESULT:      -8.2      3.748      7.137
REMARK  5 active torsions:
REMARK  status: ('A' for Active; 'I' for Inactive)
REMARK    1  A    between atoms: C_2  and  N_3 
REMARK       I    between atoms: N_3  and  C_4 
REMARK    2  A    between atoms: C_4  and  C_5 
REMARK    3  A    between atoms: C_13  and  C_14 
REMARK    4  A    between atoms: C_15  and  O_16 
REMARK    5  A    between atoms: C_19  and  O_20 
ROOT
HETATM    1  C   UNL     1       6.419  26.545  54.027  1.00  0.00     0.046 A 
HETATM    2  C   UNL     1       7.089  25.306  53.915  1.00  0.00     0.008 A 
HETATM    3  C   UNL     1       7.056  24.697  52.646  1.00  0.00     0.068 A 
HETATM    4  C   UNL     1       7.701  23.481  52.469  1.00  0.00     0.032 A 
HETATM    5  C   UNL     1       8.382  22.844  53.508  1.00  0.00     0.002 A 
HETATM    6  C   UNL     1       8.427  23.435  54.761  1.00  0.00     0.001 A 
HETATM    7  C   UNL     1       7.789  24.658  54.965  1.00  0.00     0.015 A 
HETATM    8  N   UNL     1       6.434  25.242  51.587  1.00  0.00    -0.247 NA
HETATM    9  C   UNL     1       5.773  26.414  51.734  1.00  0.00     0.071 A 
HETATM   10  C   UNL     1       5.747  27.097  52.935  1.00  0.00     0.050 A 
ENDROOT
BRANCH   9  11
HETATM   11  C   UNL     1       5.116  26.942  50.532  1.00  0.00     0.026 A 
HETATM   12  C   UNL     1       5.211  28.292  50.154  1.00  0.00     0.083 A 
HETATM   13  C   UNL     1       4.615  28.771  48.978  1.00  0.00     0.074 A 
HETATM   14  C   UNL     1       3.874  27.910  48.172  1.00  0.00     0.070 A 
HETATM   15  C   UNL     1       3.749  26.570  48.545  1.00  0.00     0.038 A 
HETATM   16  C   UNL     1       4.363  26.091  49.706  1.00  0.00     0.019 A 
BRANCH  12  17
HETATM   17  O   UNL     1       5.984  29.158  50.890  1.00  0.00    -0.355 OA
HETATM   18  C   UNL     1       5.323  30.417  51.026  1.00  0.00     0.210 C 
ENDBRANCH  12  17
BRANCH  14  19
HETATM   19  O   UNL     1       3.238  28.242  47.008  1.00  0.00    -0.356 OA
HETATM   20  C   UNL     1       1.856  27.921  46.917  1.00  0.00     0.210 C 
ENDBRANCH  14  19
ENDBRANCH   9  11
BRANCH   1  21
HETATM   21  C   UNL     1       6.388  27.306  55.302  1.00  0.00     0.253 C 
HETATM   22  N   UNL     1       7.487  28.114  55.515  1.00  0.00    -0.349 N 
HETATM   23  H   UNL     1       8.274  27.996  54.890  1.00  0.00     0.163 HD
HETATM   24  O   UNL     1       5.443  27.187  56.071  1.00  0.00    -0.268 OA
BRANCH  22  25
HETATM   25  C   UNL     1       7.713  28.921  56.724  1.00  0.00     0.022 C 
HETATM   26  C   UNL     1       7.682  28.036  57.981  1.00  0.00     0.037 C 
HETATM   27  C   UNL     1       6.673  30.047  56.844  1.00  0.00     0.037 C 
HETATM   28  C   UNL     1       9.106  29.565  56.611  1.00  0.00     0.037 C 
ENDBRANCH  22  25
ENDBRANCH   1  21
TORSDOF 5
ENDMDL
MODEL 6
REMARK VINA RESULT:      -8.1      1.461      2.250
REMARK  5 active torsions:
REMARK  status: ('A' for Active; 'I' for Inactive)
REMARK    1  A    between atoms: C_2  and  N_3 
REMARK       I    between atoms: N_3  and  C_4 
REMARK    2  A    between atoms: C_4  and  C_5 
REMARK    3  A    between atoms: C_13  and  C_14 
REMARK    4  A    between atoms: C_15  and  O_16 
REMARK    5  A    between atoms: C_19  and  O_20 
ROOT
HETATM    1  C   UNL     1       7.423  29.948  58.049  1.00  0.00     0.046 A 
HETATM    2  C   UNL     1       6.221  30.659  57.832  1.00  0.00     0.008 A 
HETATM    3  C   UNL     1       5.368  30.144  56.836  1.00  0.00     0.068 A 
HETATM    4  C   UNL     1       4.168  30.793  56.579  1.00  0.00     0.032 A 
HETATM    5  C   UNL     1       3.780  31.938  57.277  1.00  0.00     0.002 A 
HETATM    6  C   UNL     1       4.608  32.453  58.263  1.00  0.00     0.001 A 
HETATM    7  C   UNL     1       5.818  31.818  58.542  1.00  0.00     0.015 A 
HETATM    8  N   UNL     1       5.654  29.042  56.123  1.00  0.00    -0.247 NA
HETATM    9  C   UNL     1       6.829  28.401  56.330  1.00  0.00     0.071 A 
HETATM   10  C   UNL     1       7.735  28.821  57.287  1.00  0.00     0.050 A 
ENDROOT
BRANCH   9  11
HETATM   11  C   UNL     1       7.071  27.209  55.510  1.00  0.00     0.026 A 
HETATM   12  C   UNL     1       6.861  25.906  55.994  1.00  0.00     0.083 A 
HETATM   13  C   UNL     1       7.053  24.779  55.181  1.00  0.00     0.074 A 
HETATM   14  C   UNL     1       7.500  24.933  53.871  1.00  0.00     0.070 A 
HETATM   15  C   UNL     1       7.737  26.219  53.381  1.00  0.00     0.038 A 
HETATM   16  C   UNL     1       7.523  27.342  54.186  1.00  0.00     0.019 A 
BRANCH  12  17
HETATM   17  O   UNL     1       6.360  25.718  57.260  1.00  0.00    -0.355 OA
HETATM   18  C   UNL     1       4.987  25.332  57.196  1.00  0.00     0.210 C 
ENDBRANCH  12  17
BRANCH  14  19
HETATM   19  O   UNL     1       7.734  23.927  52.976  1.00  0.00    -0.356 OA
HETATM   20  C   UNL     1       8.307  22.731  53.488  1.00  0.00     0.210 C 
ENDBRANCH  14  19
ENDBRANCH   9  11
BRANCH   1  21
HETATM   21  C   UNL     1       8.406  30.369  59.078  1.00  0.00     0.253 C 
HETATM   22  N   UNL     1       7.858  30.647  60.314  1.00  0.00    -0.349 N 
HETATM   23  H   UNL     1       6.849  30.705  60.370  1.00  0.00     0.163 HD
HETATM   24  O   UNL     1       9.595  30.452  58.801  1.00  0.00    -0.268 OA
BRANCH  22  25
HETATM   25  C   UNL     1       8.617  31.134  61.477  1.00  0.00     0.022 C 
HETATM   26  C   UNL     1       7.666  31.660  62.565  1.00  0.00     0.037 C 
HETATM   27  C   UNL     1       9.615  32.230  61.071  1.00  0.00     0.037 C 
HETATM   28  C   UNL     1       9.414  29.949  62.052  1.00  0.00     0.037 C 
ENDBRANCH  22  25
ENDBRANCH   1  21
TORSDOF 5
ENDMDL
MODEL 7
REMARK VINA RESULT:      -7.9      2.672      7.842
REMARK  5 active torsions:
REMARK  status: ('A' for Active; 'I' for Inactive)
REMARK    1  A    between atoms: C_2  and  N_3 
REMARK       I    between atoms: N_3  and  C_4 
REMARK    2  A    between atoms: C_4  and  C_5 
REMARK    3  A    between atoms: C_13  and  C_14 
REMARK    4  A    between atoms: C_15  and  O_16 
REMARK    5  A    between atoms: C_19  and  O_20 
ROOT
HETATM    1  C   UNL     1       5.730  27.709  54.293  1.00  0.00     0.046 A 
HETATM    2  C   UNL     1       6.248  26.403  54.441  1.00  0.00     0.008 A 
HETATM    3  C   UNL     1       7.103  26.198  55.541  1.00  0.00     0.068 A 
HETATM    4  C   UNL     1       7.641  24.934  55.746  1.00  0.00     0.032 A 
HETATM    5  C   UNL     1       7.359  23.862  54.898  1.00  0.00     0.002 A 
HETATM    6  C   UNL     1       6.514  24.049  53.815  1.00  0.00     0.001 A 
HETATM    7  C   UNL     1       5.959  25.308  53.588  1.00  0.00     0.015 A 
HETATM    8  N   UNL     1       7.421  27.168  56.415  1.00  0.00    -0.247 NA
HETATM    9  C   UNL     1       6.936  28.418  56.227  1.00  0.00     0.071 A 
HETATM   10  C   UNL     1       6.084  28.725  55.183  1.00  0.00     0.050 A 
ENDROOT
BRANCH   9  11
HETATM   11  C   UNL     1       7.332  29.423  57.221  1.00  0.00     0.026 A 
HETATM   12  C   UNL     1       8.662  29.579  57.645  1.00  0.00     0.083 A 
HETATM   13  C   UNL     1       9.031  30.575  58.562  1.00  0.00     0.074 A 
HETATM   14  C   UNL     1       8.061  31.415  59.104  1.00  0.00     0.070 A 
HETATM   15  C   UNL     1       6.730  31.259  58.712  1.00  0.00     0.038 A 
HETATM   16  C   UNL     1       6.369  30.279  57.781  1.00  0.00     0.019 A 
BRANCH  12  17
HETATM   17  O   UNL     1       9.656  28.810  57.085  1.00  0.00    -0.355 OA
HETATM   18  C   UNL     1      10.633  29.644  56.463  1.00  0.00     0.210 C 
ENDBRANCH  12  17
BRANCH  14  19
HETATM   19  O   UNL     1       8.277  32.419  60.006  1.00  0.00    -0.356 OA
HETATM   20  C   UNL     1       7.288  32.604  61.011  1.00  0.00     0.210 C 
ENDBRANCH  14  19
ENDBRANCH   9  11
BRANCH   1  21
HETATM   21  C   UNL     1       4.803  28.063  53.188  1.00  0.00     0.253 C 
HETATM   22  N   UNL     1       5.403  28.695  52.117  1.00  0.00    -0.349 N 
HETATM   23  H   UNL     1       6.358  29.008  52.241  1.00  0.00     0.163 HD
HETATM   24  O   UNL     1       3.611  27.799  53.271  1.00  0.00    -0.268 OA
BRANCH  22  25
HETATM   25  C   UNL     1       4.690  29.191  50.930  1.00  0.00     0.022 C 
HETATM   26  C   UNL     1       3.661  30.263  51.322  1.00  0.00     0.037 C 
HETATM   27  C   UNL     1       3.997  28.043  50.177  1.00  0.00     0.037 C 
HETATM   28  C   UNL     1       5.726  29.826  49.985  1.00  0.00     0.037 C 
ENDBRANCH  22  25
ENDBRANCH   1  21
TORSDOF 5
ENDMDL
MODEL 8
REMARK VINA RESULT:      -7.9      3.087      8.733
REMARK  5 active torsions:
REMARK  status: ('A' for Active; 'I' for Inactive)
REMARK    1  A    between atoms: C_2  and  N_3 
REMARK       I    between atoms: N_3  and  C_4 
REMARK    2  A    between atoms: C_4  and  C_5 
REMARK    3  A    between atoms: C_13  and  C_14 
REMARK    4  A    between atoms: C_15  and  O_16 
REMARK    5  A    between atoms: C_19  and  O_20 
ROOT
HETATM    1  C   UNL     1       7.068  29.603  57.528  1.00  0.00     0.046 A 
HETATM    2  C   UNL     1       8.459  29.848  57.499  1.00  0.00     0.008 A 
HETATM    3  C   UNL     1       8.904  30.978  58.213  1.00  0.00     0.068 A 
HETATM    4  C   UNL     1      10.261  31.271  58.229  1.00  0.00     0.032 A 
HETATM    5  C   UNL     1      11.198  30.480  57.561  1.00  0.00     0.002 A 
HETATM    6  C   UNL     1      10.774  29.361  56.860  1.00  0.00     0.001 A 
HETATM    7  C   UNL     1       9.417  29.044  56.830  1.00  0.00     0.015 A 
HETATM    8  N   UNL     1       8.075  31.789  58.892  1.00  0.00    -0.247 NA
HETATM    9  C   UNL     1       6.744  31.548  58.874  1.00  0.00     0.071 A 
HETATM   10  C   UNL     1       6.204  30.463  58.208  1.00  0.00     0.050 A 
ENDROOT
BRANCH   9  11
HETATM   11  C   UNL     1       5.905  32.480  59.636  1.00  0.00     0.026 A 
HETATM   12  C   UNL     1       5.960  32.571  61.037  1.00  0.00     0.083 A 
HETATM   13  C   UNL     1       5.185  33.500  61.746  1.00  0.00     0.074 A 
HETATM   14  C   UNL     1       4.303  34.335  61.065  1.00  0.00     0.070 A 
HETATM   15  C   UNL     1       4.218  34.244  59.674  1.00  0.00     0.038 A 
HETATM   16  C   UNL     1       5.008  33.332  58.968  1.00  0.00     0.019 A 
BRANCH  12  17
HETATM   17  O   UNL     1       6.862  31.806  61.738  1.00  0.00    -0.355 OA
HETATM   18  C   UNL     1       7.138  32.406  63.005  1.00  0.00     0.210 C 
ENDBRANCH  12  17
BRANCH  14  19
HETATM   19  O   UNL     1       3.488  35.278  61.627  1.00  0.00    -0.356 OA
HETATM   20  C   UNL     1       2.135  34.904  61.854  1.00  0.00     0.210 C 
ENDBRANCH  14  19
ENDBRANCH   9  11
BRANCH   1  21
HETATM   21  C   UNL     1       6.464  28.438  56.833  1.00  0.00     0.253 C 
HETATM   22  N   UNL     1       6.983  27.215  57.209  1.00  0.00    -0.349 N 
HETATM   23  H   UNL     1       7.819  27.223  57.779  1.00  0.00     0.163 HD
HETATM   24  O   UNL     1       5.584  28.603  56.000  1.00  0.00    -0.268 OA
BRANCH  22  25
HETATM   25  C   UNL     1       6.588  25.923  56.626  1.00  0.00     0.022 C 
HETATM   26  C   UNL     1       6.666  25.972  55.092  1.00  0.00     0.037 C 
HETATM   27  C   UNL     1       5.172  25.521  57.072  1.00  0.00     0.037 C 
HETATM   28  C   UNL     1       7.571  24.853  57.134  1.00  0.00     0.037 C 
ENDBRANCH  22  25
ENDBRANCH   1  21
TORSDOF 5
ENDMDL
MODEL 9
REMARK VINA RESULT:      -7.9      2.179      4.313
REMARK  5 active torsions:
REMARK  status: ('A' for Active; 'I' for Inactive)
REMARK    1  A    between atoms: C_2  and  N_3 
REMARK       I    between atoms: N_3  and  C_4 
REMARK    2  A    between atoms: C_4  and  C_5 
REMARK    3  A    between atoms: C_13  and  C_14 
REMARK    4  A    between atoms: C_15  and  O_16 
REMARK    5  A    between atoms: C_19  and  O_20 
ROOT
HETATM    1  C   UNL     1       5.871  30.297  57.741  1.00  0.00     0.046 A 
HETATM    2  C   UNL     1       6.931  30.753  58.556  1.00  0.00     0.008 A 
HETATM    3  C   UNL     1       8.031  29.883  58.685  1.00  0.00     0.068 A 
HETATM    4  C   UNL     1       9.108  30.276  59.468  1.00  0.00     0.032 A 
HETATM    5  C   UNL     1       9.136  31.505  60.128  1.00  0.00     0.002 A 
HETATM    6  C   UNL     1       8.062  32.374  60.005  1.00  0.00     0.001 A 
HETATM    7  C   UNL     1       6.969  32.004  59.223  1.00  0.00     0.015 A 
HETATM    8  N   UNL     1       8.095  28.686  58.078  1.00  0.00    -0.247 NA
HETATM    9  C   UNL     1       7.049  28.262  57.331  1.00  0.00     0.071 A 
HETATM   10  C   UNL     1       5.924  29.041  57.134  1.00  0.00     0.050 A 
ENDROOT
BRANCH   9  11
HETATM   11  C   UNL     1       7.193  26.943  56.704  1.00  0.00     0.026 A 
HETATM   12  C   UNL     1       7.402  26.784  55.323  1.00  0.00     0.083 A 
HETATM   13  C   UNL     1       7.583  25.518  54.747  1.00  0.00     0.074 A 
HETATM   14  C   UNL     1       7.520  24.376  55.541  1.00  0.00     0.070 A 
HETATM   15  C   UNL     1       7.290  24.513  56.911  1.00  0.00     0.038 A 
HETATM   16  C   UNL     1       7.132  25.778  57.487  1.00  0.00     0.019 A 
BRANCH  12  17
HETATM   17  O   UNL     1       7.531  27.890  54.517  1.00  0.00    -0.355 OA
HETATM   18  C   UNL     1       6.693  27.765  53.368  1.00  0.00     0.210 C 
ENDBRANCH  12  17
BRANCH  14  19
HETATM   19  O   UNL     1       7.672  23.087  55.113  1.00  0.00    -0.356 OA
HETATM   20  C   UNL     1       9.000  22.578  55.065  1.00  0.00     0.210 C 
ENDBRANCH  14  19
ENDBRANCH   9  11
BRANCH   1  21
HETATM   21  C   UNL     1       4.657  31.118  57.503  1.00  0.00     0.253 C 
HETATM   22  N   UNL     1       4.723  31.928  56.387  1.00  0.00    -0.349 N 
HETATM   23  H   UNL     1       5.624  32.021  55.936  1.00  0.00     0.163 HD
HETATM   24  O   UNL     1       3.704  31.050  58.267  1.00  0.00    -0.268 OA
BRANCH  22  25
HETATM   25  C   UNL     1       3.672  32.871  55.973  1.00  0.00     0.022 C 
HETATM   26  C   UNL     1       3.330  33.840  57.116  1.00  0.00     0.037 C 
HETATM   27  C   UNL     1       2.407  32.128  55.513  1.00  0.00     0.037 C 
HETATM   28  C   UNL     1       4.208  33.686  54.782  1.00  0.00     0.037 C 
ENDBRANCH  22  25
ENDBRANCH   1  21
TORSDOF 5
ENDMDL
MODEL 10
REMARK VINA RESULT:      -7.8      4.090      7.378
REMARK  5 active torsions:
REMARK  status: ('A' for Active; 'I' for Inactive)
REMARK    1  A    between atoms: C_2  and  N_3 
REMARK       I    between atoms: N_3  and  C_4 
REMARK    2  A    between atoms: C_4  and  C_5 
REMARK    3  A    between atoms: C_13  and  C_14 
REMARK    4  A    between atoms: C_15  and  O_16 
REMARK    5  A    between atoms: C_19  and  O_20 
ROOT
HETATM    1  C   UNL     1       6.349  27.008  53.753  1.00  0.00     0.046 A 
HETATM    2  C   UNL     1       6.928  25.731  53.578  1.00  0.00     0.008 A 
HETATM    3  C   UNL     1       6.929  25.227  52.263  1.00  0.00     0.068 A 
HETATM    4  C   UNL     1       7.490  23.980  52.023  1.00  0.00     0.032 A 
HETATM    5  C   UNL     1       8.053  23.211  53.043  1.00  0.00     0.002 A 
HETATM    6  C   UNL     1       8.063  23.698  54.342  1.00  0.00     0.001 A 
HETATM    7  C   UNL     1       7.508  24.949  54.609  1.00  0.00     0.015 A 
HETATM    8  N   UNL     1       6.420  25.901  51.218  1.00  0.00    -0.247 NA
HETATM    9  C   UNL     1       5.841  27.108  51.423  1.00  0.00     0.071 A 
HETATM   10  C   UNL     1       5.792  27.696  52.674  1.00  0.00     0.050 A 
ENDROOT
BRANCH   9  11
HETATM   11  C   UNL     1       5.304  27.780  50.234  1.00  0.00     0.026 A 
HETATM   12  C   UNL     1       4.505  27.114  49.289  1.00  0.00     0.083 A 
HETATM   13  C   UNL     1       3.962  27.782  48.182  1.00  0.00     0.074 A 
HETATM   14  C   UNL     1       4.243  29.131  47.976  1.00  0.00     0.070 A 
HETATM   15  C   UNL     1       5.054  29.803  48.892  1.00  0.00     0.038 A 
HETATM   16  C   UNL     1       5.576  29.140  50.007  1.00  0.00     0.019 A 
BRANCH  12  17
HETATM   17  O   UNL     1       4.156  25.799  49.491  1.00  0.00    -0.355 OA
HETATM   18  C   UNL     1       3.340  25.335  48.414  1.00  0.00     0.210 C 
ENDBRANCH  12  17
BRANCH  14  19
HETATM   19  O   UNL     1       3.787  29.901  46.943  1.00  0.00    -0.356 OA
HETATM   20  C   UNL     1       4.580  31.024  46.581  1.00  0.00     0.210 C 
ENDBRANCH  14  19
ENDBRANCH   9  11
BRANCH   1  21
HETATM   21  C   UNL     1       6.294  27.667  55.083  1.00  0.00     0.253 C 
HETATM   22  N   UNL     1       7.439  28.357  55.427  1.00  0.00    -0.349 N 
HETATM   23  H   UNL     1       8.255  28.220  54.844  1.00  0.00     0.163 HD
HETATM   24  O   UNL     1       5.294  27.572  55.780  1.00  0.00    -0.268 OA
BRANCH  22  25
HETATM   25  C   UNL     1       7.649  29.045  56.711  1.00  0.00     0.022 C 
HETATM   26  C   UNL     1       7.505  28.062  57.884  1.00  0.00     0.037 C 
HETATM   27  C   UNL     1       6.669  30.218  56.880  1.00  0.00     0.037 C 
HETATM   28  C   UNL     1       9.080  29.612  56.717  1.00  0.00     0.037 C 
ENDBRANCH  22  25
ENDBRANCH   1  21
TORSDOF 5
ENDMDL
