MODEL 1
REMARK VINA RESULT:      -9.8      0.000      0.000
REMARK  6 active torsions:
REMARK  status: ('A' for Active; 'I' for Inactive)
REMARK    1  A    between atoms: C_2  and  N_3 
REMARK    2  A    between atoms: C_2  and  C_25 
REMARK       I    between atoms: N_3  and  C_4 
REMARK    3  A    between atoms: C_4  and  C_5 
REMARK    4  A    between atoms: C_5  and  N_6 
REMARK    5  A    between atoms: C_10  and  N_11 
REMARK       I    between atoms: N_11  and  C_12 
REMARK       I    between atoms: C_12  and  N_13 
REMARK    6  A    between atoms: N_13  and  C_14 
ROOT
HETATM    1  N   UNL     1       6.806  27.662  56.571  1.00  0.00    -0.063 N 
HETATM    2  H   UNL     1       7.182  27.852  55.635  1.00  0.00     0.280 HD
HETATM    3  C   UNL     1       5.894  28.818  56.930  1.00  0.00     0.237 C 
HETATM    4  C   UNL     1       6.701  30.103  56.839  1.00  0.00     0.053 C 
HETATM    5  C   UNL     1       7.904  30.090  57.794  1.00  0.00     0.089 C 
HETATM    6  C   UNL     1       8.783  28.876  57.457  1.00  0.00     0.053 C 
HETATM    7  C   UNL     1       7.986  27.574  57.513  1.00  0.00     0.237 C 
ENDROOT
BRANCH   1   8
HETATM    8  C   UNL     1       6.043  26.339  56.432  1.00  0.00     0.337 C 
BRANCH   8   9
HETATM    9  C   UNL     1       6.007  25.720  55.029  1.00  0.00     0.244 C 
HETATM   10  N   UNL     1       6.903  24.696  54.835  1.00  0.00    -0.351 N 
HETATM   11  H   UNL     1       7.574  24.432  55.548  1.00  0.00     0.163 HD
HETATM   12  O   UNL     1       5.230  26.107  54.161  1.00  0.00    -0.272 OA
BRANCH  10  13
HETATM   13  C   UNL     1       7.048  24.018  53.552  1.00  0.00     0.120 C 
HETATM   14  C   UNL     1       7.978  24.787  52.617  1.00  0.00     0.038 C 
BRANCH  13  15
HETATM   15  C   UNL     1       7.546  22.615  53.801  1.00  0.00     0.005 A 
HETATM   16  S   UNL     1       7.767  22.004  55.395  1.00  0.00    -0.104 SA
HETATM   17  C   UNL     1       8.310  20.492  54.815  1.00  0.00     0.050 A 
HETATM   18  C   UNL     1       8.336  20.446  53.439  1.00  0.00     0.008 A 
HETATM   19  C   UNL     1       7.896  21.669  52.855  1.00  0.00     0.017 A 
ENDBRANCH  13  15
ENDBRANCH  10  13
ENDBRANCH   8   9
ENDBRANCH   1   8
BRANCH   5  20
HETATM   20  N   UNL     1       7.628  30.088  59.237  1.00  0.00    -0.338 N 
HETATM   21  C   UNL     1       7.298  31.201  59.990  1.00  0.00     0.321 C 
HETATM   22  N   UNL     1       7.282  30.893  61.333  1.00  0.00    -0.309 N 
HETATM   23  O   UNL     1       7.015  32.277  59.487  1.00  0.00    -0.247 OA
HETATM   24  H   UNL     1       7.277  29.912  61.569  1.00  0.00     0.170 HD
HETATM   25  H   UNL     1       8.207  29.444  59.764  1.00  0.00     0.164 HD
BRANCH  22  26
HETATM   26  C   UNL     1       7.091  31.783  62.411  1.00  0.00     0.036 A 
HETATM   27  C   UNL     1       8.137  32.388  63.115  1.00  0.00     0.032 A 
HETATM   28  C   UNL     1       7.865  33.250  64.182  1.00  0.00     0.044 A 
HETATM   29  C   UNL     1       6.548  33.503  64.546  1.00  0.00     0.116 A 
HETATM   30  F   UNL     1       6.290  34.328  65.568  1.00  0.00    -0.206 F 
HETATM   31  C   UNL     1       5.497  32.905  63.866  1.00  0.00     0.044 A 
HETATM   32  C   UNL     1       5.768  32.044  62.799  1.00  0.00     0.032 A 
ENDBRANCH  22  26
ENDBRANCH   5  20
TORSDOF 6
ENDMDL
MODEL 2
REMARK VINA RESULT:      -9.0      4.690     11.069
REMARK  6 active torsions:
REMARK  status: ('A' for Active; 'I' for Inactive)
REMARK    1  A    between atoms: C_2  and  N_3 
REMARK    2  A    between atoms: C_2  and  C_25 
REMARK       I    between atoms: N_3  and  C_4 
REMARK    3  A    between atoms: C_4  and  C_5 
REMARK    4  A    between atoms: C_5  and  N_6 
REMARK    5  A    between atoms: C_10  and  N_11 
REMARK       I    between atoms: N_11  and  C_12 
REMARK       I    between atoms: C_12  and  N_13 
REMARK    6  A    between atoms: N_13  and  C_14 
ROOT
HETATM    1  N   UNL     1       7.153  29.302  57.580  1.00  0.00    -0.063 N 
HETATM    2  H   UNL     1       6.292  29.749  57.914  1.00  0.00     0.280 HD
HETATM    3  C   UNL     1       7.302  29.656  56.113  1.00  0.00     0.237 C 
HETATM    4  C   UNL     1       6.048  29.196  55.387  1.00  0.00     0.053 C 
HETATM    5  C   UNL     1       5.832  27.682  55.524  1.00  0.00     0.089 C 
HETATM    6  C   UNL     1       5.747  27.333  57.017  1.00  0.00     0.053 C 
HETATM    7  C   UNL     1       6.984  27.811  57.775  1.00  0.00     0.237 C 
ENDROOT
BRANCH   1   8
HETATM    8  C   UNL     1       8.272  29.902  58.441  1.00  0.00     0.337 C 
BRANCH   8   9
HETATM    9  C   UNL     1       8.020  31.310  58.995  1.00  0.00     0.244 C 
HETATM   10  N   UNL     1       6.833  31.451  59.674  1.00  0.00    -0.351 N 
HETATM   11  H   UNL     1       6.159  30.696  59.733  1.00  0.00     0.163 HD
HETATM   12  O   UNL     1       8.824  32.225  58.849  1.00  0.00    -0.272 OA
BRANCH  10  13
HETATM   13  C   UNL     1       6.400  32.727  60.231  1.00  0.00     0.120 C 
HETATM   14  C   UNL     1       4.889  32.909  60.099  1.00  0.00     0.038 C 
BRANCH  13  15
HETATM   15  C   UNL     1       6.845  32.801  61.671  1.00  0.00     0.005 A 
HETATM   16  S   UNL     1       6.266  34.025  62.734  1.00  0.00    -0.104 SA
HETATM   17  C   UNL     1       7.195  33.430  64.038  1.00  0.00     0.050 A 
HETATM   18  C   UNL     1       7.941  32.329  63.680  1.00  0.00     0.008 A 
HETATM   19  C   UNL     1       7.740  31.967  62.317  1.00  0.00     0.017 A 
ENDBRANCH  13  15
ENDBRANCH  10  13
ENDBRANCH   8   9
ENDBRANCH   1   8
BRANCH   5  20
HETATM   20  N   UNL     1       6.811  26.793  54.886  1.00  0.00    -0.338 N 
HETATM   21  C   UNL     1       6.700  25.417  54.790  1.00  0.00     0.321 C 
HETATM   22  N   UNL     1       7.864  24.867  54.299  1.00  0.00    -0.309 N 
HETATM   23  O   UNL     1       5.672  24.818  55.066  1.00  0.00    -0.247 OA
HETATM   24  H   UNL     1       8.519  25.507  53.874  1.00  0.00     0.170 HD
HETATM   25  H   UNL     1       7.775  27.077  55.024  1.00  0.00     0.164 HD
BRANCH  22  26
HETATM   26  C   UNL     1       8.168  23.497  54.159  1.00  0.00     0.036 A 
HETATM   27  C   UNL     1       7.789  22.724  53.057  1.00  0.00     0.032 A 
HETATM   28  C   UNL     1       8.118  21.366  52.999  1.00  0.00     0.044 A 
HETATM   29  C   UNL     1       8.822  20.782  54.045  1.00  0.00     0.116 A 
HETATM   30  F   UNL     1       9.135  19.482  53.987  1.00  0.00    -0.206 F 
HETATM   31  C   UNL     1       9.200  21.530  55.151  1.00  0.00     0.044 A 
HETATM   32  C   UNL     1       8.872  22.887  55.209  1.00  0.00     0.032 A 
ENDBRANCH  22  26
ENDBRANCH   5  20
TORSDOF 6
ENDMDL
MODEL 3
REMARK VINA RESULT:      -8.6      5.367     11.195
REMARK  6 active torsions:
REMARK  status: ('A' for Active; 'I' for Inactive)
REMARK    1  A    between atoms: C_2  and  N_3 
REMARK    2  A    between atoms: C_2  and  C_25 
REMARK       I    between atoms: N_3  and  C_4 
REMARK    3  A    between atoms: C_4  and  C_5 
REMARK    4  A    between atoms: C_5  and  N_6 
REMARK    5  A    between atoms: C_10  and  N_11 
REMARK       I    between atoms: N_11  and  C_12 
REMARK       I    between atoms: C_12  and  N_13 
REMARK    6  A    between atoms: N_13  and  C_14 
ROOT
HETATM    1  N   UNL     1       6.490  27.338  56.732  1.00  0.00    -0.063 N 
HETATM    2  H   UNL     1       7.082  26.753  57.333  1.00  0.00     0.280 HD
HETATM    3  C   UNL     1       5.112  26.705  56.710  1.00  0.00     0.237 C 
HETATM    4  C   UNL     1       5.258  25.272  56.225  1.00  0.00     0.053 C 
HETATM    5  C   UNL     1       5.869  25.205  54.818  1.00  0.00     0.089 C 
HETATM    6  C   UNL     1       7.236  25.906  54.844  1.00  0.00     0.053 C 
HETATM    7  C   UNL     1       7.120  27.340  55.357  1.00  0.00     0.237 C 
ENDROOT
BRANCH   1   8
HETATM    8  C   UNL     1       6.486  28.719  57.399  1.00  0.00     0.337 C 
BRANCH   8   9
HETATM    9  C   UNL     1       7.772  29.122  58.132  1.00  0.00     0.244 C 
HETATM   10  N   UNL     1       7.611  30.132  59.051  1.00  0.00    -0.351 N 
HETATM   11  H   UNL     1       6.725  30.608  59.170  1.00  0.00     0.163 HD
HETATM   12  O   UNL     1       8.848  28.573  57.917  1.00  0.00    -0.272 OA
BRANCH  10  13
HETATM   13  C   UNL     1       8.728  30.681  59.809  1.00  0.00     0.120 C 
HETATM   14  C   UNL     1       9.609  31.575  58.939  1.00  0.00     0.038 C 
BRANCH  13  15
HETATM   15  C   UNL     1       8.181  31.430  61.000  1.00  0.00     0.005 A 
HETATM   16  S   UNL     1       6.712  32.322  60.909  1.00  0.00    -0.104 SA
HETATM   17  C   UNL     1       6.829  32.815  62.540  1.00  0.00     0.050 A 
HETATM   18  C   UNL     1       7.964  32.326  63.147  1.00  0.00     0.008 A 
HETATM   19  C   UNL     1       8.743  31.528  62.260  1.00  0.00     0.017 A 
ENDBRANCH  13  15
ENDBRANCH  10  13
ENDBRANCH   8   9
ENDBRANCH   1   8
BRANCH   5  20
HETATM   20  N   UNL     1       5.080  25.750  53.705  1.00  0.00    -0.338 N 
HETATM   21  C   UNL     1       5.534  25.916  52.408  1.00  0.00     0.321 C 
HETATM   22  N   UNL     1       4.614  26.614  51.657  1.00  0.00    -0.309 N 
HETATM   23  O   UNL     1       6.589  25.445  52.014  1.00  0.00    -0.247 OA
HETATM   24  H   UNL     1       3.688  26.703  52.047  1.00  0.00     0.170 HD
HETATM   25  H   UNL     1       4.452  26.498  53.976  1.00  0.00     0.164 HD
BRANCH  22  26
HETATM   26  C   UNL     1       4.764  27.065  50.328  1.00  0.00     0.036 A 
HETATM   27  C   UNL     1       4.376  26.325  49.206  1.00  0.00     0.032 A 
HETATM   28  C   UNL     1       4.570  26.837  47.920  1.00  0.00     0.044 A 
HETATM   29  C   UNL     1       5.156  28.086  47.756  1.00  0.00     0.116 A 
HETATM   30  F   UNL     1       5.341  28.574  46.523  1.00  0.00    -0.206 F 
HETATM   31  C   UNL     1       5.556  28.832  48.856  1.00  0.00     0.044 A 
HETATM   32  C   UNL     1       5.361  28.321  50.142  1.00  0.00     0.032 A 
ENDBRANCH  22  26
ENDBRANCH   5  20
TORSDOF 6
ENDMDL
MODEL 4
REMARK VINA RESULT:      -8.5      4.552     10.863
REMARK  6 active torsions:
REMARK  status: ('A' for Active; 'I' for Inactive)
REMARK    1  A    between atoms: C_2  and  N_3 
REMARK    2  A    between atoms: C_2  and  C_25 
REMARK       I    between atoms: N_3  and  C_4 
REMARK    3  A    between atoms: C_4  and  C_5 
REMARK    4  A    between atoms: C_5  and  N_6 
REMARK    5  A    between atoms: C_10  and  N_11 
REMARK       I    between atoms: N_11  and  C_12 
REMARK       I    between atoms: C_12  and  N_13 
REMARK    6  A    between atoms: N_13  and  C_14 
ROOT
HETATM    1  N   UNL     1       4.996  29.580  56.250  1.00  0.00    -0.063 N 
HETATM    2  H   UNL     1       4.938  30.413  55.653  1.00  0.00     0.280 HD
HETATM    3  C   UNL     1       6.430  29.092  56.198  1.00  0.00     0.237 C 
HETATM    4  C   UNL     1       6.789  28.834  54.744  1.00  0.00     0.053 C 
HETATM    5  C   UNL     1       5.871  27.780  54.107  1.00  0.00     0.089 C 
HETATM    6  C   UNL     1       4.418  28.262  54.225  1.00  0.00     0.053 C 
HETATM    7  C   UNL     1       4.041  28.557  55.676  1.00  0.00     0.237 C 
ENDROOT
BRANCH   1   8
HETATM    8  C   UNL     1       4.595  30.065  57.649  1.00  0.00     0.337 C 
BRANCH   8   9
HETATM    9  C   UNL     1       5.168  31.418  58.088  1.00  0.00     0.244 C 
HETATM   10  N   UNL     1       5.290  31.570  59.448  1.00  0.00    -0.351 N 
HETATM   11  H   UNL     1       4.958  30.865  60.097  1.00  0.00     0.163 HD
HETATM   12  O   UNL     1       5.498  32.283  57.282  1.00  0.00    -0.272 OA
BRANCH  10  13
HETATM   13  C   UNL     1       5.770  32.806  60.055  1.00  0.00     0.120 C 
HETATM   14  C   UNL     1       4.677  33.487  60.876  1.00  0.00     0.038 C 
BRANCH  13  15
HETATM   15  C   UNL     1       6.983  32.491  60.898  1.00  0.00     0.005 A 
HETATM   16  S   UNL     1       8.414  31.828  60.210  1.00  0.00    -0.104 SA
HETATM   17  C   UNL     1       9.203  31.780  61.723  1.00  0.00     0.050 A 
HETATM   18  C   UNL     1       8.400  32.246  62.739  1.00  0.00     0.008 A 
HETATM   19  C   UNL     1       7.120  32.656  62.264  1.00  0.00     0.017 A 
ENDBRANCH  13  15
ENDBRANCH  10  13
ENDBRANCH   8   9
ENDBRANCH   1   8
BRANCH   5  20
HETATM   20  N   UNL     1       5.956  26.405  54.616  1.00  0.00    -0.338 N 
HETATM   21  C   UNL     1       6.907  25.471  54.245  1.00  0.00     0.321 C 
HETATM   22  N   UNL     1       6.601  24.232  54.764  1.00  0.00    -0.309 N 
HETATM   23  O   UNL     1       7.896  25.763  53.590  1.00  0.00    -0.247 OA
HETATM   24  H   UNL     1       5.905  24.209  55.494  1.00  0.00     0.170 HD
HETATM   25  H   UNL     1       5.054  25.970  54.775  1.00  0.00     0.164 HD
BRANCH  22  26
HETATM   26  C   UNL     1       7.273  23.015  54.521  1.00  0.00     0.036 A 
HETATM   27  C   UNL     1       7.562  22.528  53.242  1.00  0.00     0.032 A 
HETATM   28  C   UNL     1       8.221  21.304  53.084  1.00  0.00     0.044 A 
HETATM   29  C   UNL     1       8.586  20.568  54.204  1.00  0.00     0.116 A 
HETATM   30  F   UNL     1       9.217  19.397  54.051  1.00  0.00    -0.206 F 
HETATM   31  C   UNL     1       8.301  21.031  55.481  1.00  0.00     0.044 A 
HETATM   32  C   UNL     1       7.643  22.254  55.640  1.00  0.00     0.032 A 
ENDBRANCH  22  26
ENDBRANCH   5  20
TORSDOF 6
ENDMDL
MODEL 5
REMARK VINA RESULT:      -8.5      4.914     11.501
REMARK  6 active torsions:
REMARK  status: ('A' for Active; 'I' for Inactive)
REMARK    1  A    between atoms: C_2  and  N_3 
REMARK    2  A    between atoms: C_2  and  C_25 
REMARK       I    between atoms: N_3  and  C_4 
REMARK    3  A    between atoms: C_4  and  C_5 
REMARK    4  A    between atoms: C_5  and  N_6 
REMARK    5  A    between atoms: C_10  and  N_11 
REMARK       I    between atoms: N_11  and  C_12 
REMARK       I    between atoms: C_12  and  N_13 
REMARK    6  A    between atoms: N_13  and  C_14 
ROOT
HETATM    1  N   UNL     1       5.425  32.292  60.164  1.00  0.00    -0.063 N 
HETATM    2  H   UNL     1       5.571  33.254  59.837  1.00  0.00     0.280 HD
HETATM    3  C   UNL     1       6.757  31.794  60.692  1.00  0.00     0.237 C 
HETATM    4  C   UNL     1       7.782  31.916  59.577  1.00  0.00     0.053 C 
HETATM    5  C   UNL     1       7.385  31.093  58.343  1.00  0.00     0.089 C 
HETATM    6  C   UNL     1       6.006  31.569  57.860  1.00  0.00     0.053 C 
HETATM    7  C   UNL     1       4.963  31.483  58.973  1.00  0.00     0.237 C 
ENDROOT
BRANCH   1   8
HETATM    8  C   UNL     1       4.366  32.404  61.268  1.00  0.00     0.337 C 
BRANCH   8   9
HETATM    9  C   UNL     1       4.849  32.144  62.701  1.00  0.00     0.244 C 
HETATM   10  N   UNL     1       5.418  33.233  63.317  1.00  0.00    -0.351 N 
HETATM   11  H   UNL     1       5.564  34.108  62.827  1.00  0.00     0.163 HD
HETATM   12  O   UNL     1       4.722  31.052  63.247  1.00  0.00    -0.272 OA
BRANCH  10  13
HETATM   13  C   UNL     1       5.978  33.164  64.662  1.00  0.00     0.120 C 
HETATM   14  C   UNL     1       7.469  33.495  64.664  1.00  0.00     0.038 C 
BRANCH  13  15
HETATM   15  C   UNL     1       5.200  34.097  65.557  1.00  0.00     0.005 A 
HETATM   16  S   UNL     1       3.682  34.751  65.079  1.00  0.00    -0.104 SA
HETATM   17  C   UNL     1       3.519  35.625  66.537  1.00  0.00     0.050 A 
HETATM   18  C   UNL     1       4.597  35.438  67.373  1.00  0.00     0.008 A 
HETATM   19  C   UNL     1       5.565  34.558  66.809  1.00  0.00     0.017 A 
ENDBRANCH  13  15
ENDBRANCH  10  13
ENDBRANCH   8   9
ENDBRANCH   1   8
BRANCH   5  20
HETATM   20  N   UNL     1       7.359  29.630  58.478  1.00  0.00    -0.338 N 
HETATM   21  C   UNL     1       7.577  28.728  57.452  1.00  0.00     0.321 C 
HETATM   22  N   UNL     1       7.305  27.443  57.867  1.00  0.00    -0.309 N 
HETATM   23  O   UNL     1       8.003  29.065  56.358  1.00  0.00    -0.247 OA
HETATM   24  H   UNL     1       7.219  27.301  58.863  1.00  0.00     0.170 HD
HETATM   25  H   UNL     1       6.658  29.291  59.126  1.00  0.00     0.164 HD
BRANCH  22  26
HETATM   26  C   UNL     1       7.310  26.272  57.080  1.00  0.00     0.036 A 
HETATM   27  C   UNL     1       6.306  25.946  56.163  1.00  0.00     0.032 A 
HETATM   28  C   UNL     1       6.377  24.758  55.429  1.00  0.00     0.044 A 
HETATM   29  C   UNL     1       7.450  23.895  55.616  1.00  0.00     0.116 A 
HETATM   30  F   UNL     1       7.516  22.759  54.912  1.00  0.00    -0.206 F 
HETATM   31  C   UNL     1       8.453  24.197  56.527  1.00  0.00     0.044 A 
HETATM   32  C   UNL     1       8.382  25.384  57.261  1.00  0.00     0.032 A 
ENDBRANCH  22  26
ENDBRANCH   5  20
TORSDOF 6
ENDMDL
MODEL 6
REMARK VINA RESULT:      -8.3      4.460     10.867
REMARK  6 active torsions:
REMARK  status: ('A' for Active; 'I' for Inactive)
REMARK    1  A    between atoms: C_2  and  N_3 
REMARK    2  A    between atoms: C_2  and  C_25 
REMARK       I    between atoms: N_3  and  C_4 
REMARK    3  A    between atoms: C_4  and  C_5 
REMARK    4  A    between atoms: C_5  and  N_6 
REMARK    5  A    between atoms: C_10  and  N_11 
REMARK       I    between atoms: N_11  and  C_12 
REMARK       I    between atoms: C_12  and  N_13 
REMARK    6  A    between atoms: N_13  and  C_14 
ROOT
HETATM    1  N   UNL     1       7.715  29.522  57.564  1.00  0.00    -0.063 N 
HETATM    2  H   UNL     1       6.948  29.976  58.073  1.00  0.00     0.280 HD
HETATM    3  C   UNL     1       7.510  29.818  56.091  1.00  0.00     0.237 C 
HETATM    4  C   UNL     1       6.129  29.321  55.697  1.00  0.00     0.053 C 
HETATM    5  C   UNL     1       5.975  27.812  55.937  1.00  0.00     0.089 C 
HETATM    6  C   UNL     1       6.247  27.523  57.421  1.00  0.00     0.053 C 
HETATM    7  C   UNL     1       7.620  28.040  57.849  1.00  0.00     0.237 C 
ENDROOT
BRANCH   1   8
HETATM    8  C   UNL     1       8.994  30.164  58.115  1.00  0.00     0.337 C 
BRANCH   8   9
HETATM    9  C   UNL     1       8.819  31.099  59.319  1.00  0.00     0.244 C 
HETATM   10  N   UNL     1       7.998  30.610  60.306  1.00  0.00    -0.351 N 
HETATM   11  H   UNL     1       7.499  29.734  60.200  1.00  0.00     0.163 HD
HETATM   12  O   UNL     1       9.381  32.188  59.389  1.00  0.00    -0.272 OA
BRANCH  10  13
HETATM   13  C   UNL     1       7.675  31.377  61.503  1.00  0.00     0.120 C 
HETATM   14  C   UNL     1       8.914  32.057  62.082  1.00  0.00     0.038 C 
BRANCH  13  15
HETATM   15  C   UNL     1       6.600  32.380  61.159  1.00  0.00     0.005 A 
HETATM   16  S   UNL     1       5.596  32.189  59.775  1.00  0.00    -0.104 SA
HETATM   17  C   UNL     1       4.749  33.635  60.103  1.00  0.00     0.050 A 
HETATM   18  C   UNL     1       5.219  34.262  61.235  1.00  0.00     0.008 A 
HETATM   19  C   UNL     1       6.286  33.540  61.843  1.00  0.00     0.017 A 
ENDBRANCH  13  15
ENDBRANCH  10  13
ENDBRANCH   8   9
ENDBRANCH   1   8
BRANCH   5  20
HETATM   20  N   UNL     1       6.792  26.905  55.121  1.00  0.00    -0.338 N 
HETATM   21  C   UNL     1       6.770  25.523  55.194  1.00  0.00     0.321 C 
HETATM   22  N   UNL     1       7.778  24.978  54.430  1.00  0.00    -0.309 N 
HETATM   23  O   UNL     1       5.921  24.910  55.822  1.00  0.00    -0.247 OA
HETATM   24  H   UNL     1       8.225  25.596  53.769  1.00  0.00     0.170 HD
HETATM   25  H   UNL     1       7.727  27.250  54.934  1.00  0.00     0.164 HD
BRANCH  22  26
HETATM   26  C   UNL     1       8.138  23.618  54.336  1.00  0.00     0.036 A 
HETATM   27  C   UNL     1       8.928  22.954  55.280  1.00  0.00     0.032 A 
HETATM   28  C   UNL     1       9.252  21.605  55.108  1.00  0.00     0.044 A 
HETATM   29  C   UNL     1       8.791  20.922  53.990  1.00  0.00     0.116 A 
HETATM   30  F   UNL     1       9.103  19.630  53.827  1.00  0.00    -0.206 F 
HETATM   31  C   UNL     1       8.013  21.564  53.037  1.00  0.00     0.044 A 
HETATM   32  C   UNL     1       7.688  22.913  53.209  1.00  0.00     0.032 A 
ENDBRANCH  22  26
ENDBRANCH   5  20
TORSDOF 6
ENDMDL
MODEL 7
REMARK VINA RESULT:      -8.2      5.371      9.869
REMARK  6 active torsions:
REMARK  status: ('A' for Active; 'I' for Inactive)
REMARK    1  A    between atoms: C_2  and  N_3 
REMARK    2  A    between atoms: C_2  and  C_25 
REMARK       I    between atoms: N_3  and  C_4 
REMARK    3  A    between atoms: C_4  and  C_5 
REMARK    4  A    between atoms: C_5  and  N_6 
REMARK    5  A    between atoms: C_10  and  N_11 
REMARK       I    between atoms: N_11  and  C_12 
REMARK       I    between atoms: C_12  and  N_13 
REMARK    6  A    between atoms: N_13  and  C_14 
ROOT
HETATM    1  N   UNL     1       4.408  29.619  53.970  1.00  0.00    -0.063 N 
HETATM    2  H   UNL     1       3.552  29.944  53.505  1.00  0.00     0.280 HD
HETATM    3  C   UNL     1       5.513  29.635  52.933  1.00  0.00     0.237 C 
HETATM    4  C   UNL     1       5.078  28.764  51.765  1.00  0.00     0.053 C 
HETATM    5  C   UNL     1       4.812  27.316  52.201  1.00  0.00     0.089 C 
HETATM    6  C   UNL     1       3.735  27.325  53.296  1.00  0.00     0.053 C 
HETATM    7  C   UNL     1       4.137  28.217  54.469  1.00  0.00     0.237 C 
ENDROOT
BRANCH   1   8
HETATM    8  C   UNL     1       4.654  30.627  55.099  1.00  0.00     0.337 C 
BRANCH   8   9
HETATM    9  C   UNL     1       5.205  30.056  56.412  1.00  0.00     0.244 C 
HETATM   10  N   UNL     1       6.538  29.722  56.373  1.00  0.00    -0.351 N 
HETATM   11  H   UNL     1       7.080  29.788  55.519  1.00  0.00     0.163 HD
HETATM   12  O   UNL     1       4.507  29.922  57.412  1.00  0.00    -0.272 OA
BRANCH  10  13
HETATM   13  C   UNL     1       7.225  29.120  57.509  1.00  0.00     0.120 C 
HETATM   14  C   UNL     1       7.164  27.595  57.454  1.00  0.00     0.038 C 
BRANCH  13  15
HETATM   15  C   UNL     1       8.649  29.619  57.531  1.00  0.00     0.005 A 
HETATM   16  S   UNL     1       9.113  30.988  58.465  1.00  0.00    -0.104 SA
HETATM   17  C   UNL     1      10.738  30.874  57.954  1.00  0.00     0.050 A 
HETATM   18  C   UNL     1      10.933  29.825  57.083  1.00  0.00     0.008 A 
HETATM   19  C   UNL     1       9.730  29.102  56.839  1.00  0.00     0.017 A 
ENDBRANCH  13  15
ENDBRANCH  10  13
ENDBRANCH   8   9
ENDBRANCH   1   8
BRANCH   5  20
HETATM   20  N   UNL     1       5.956  26.524  52.670  1.00  0.00    -0.338 N 
HETATM   21  C   UNL     1       5.964  25.150  52.834  1.00  0.00     0.321 C 
HETATM   22  N   UNL     1       7.124  24.741  53.456  1.00  0.00    -0.309 N 
HETATM   23  O   UNL     1       5.068  24.431  52.420  1.00  0.00    -0.247 OA
HETATM   24  H   UNL     1       7.874  25.414  53.495  1.00  0.00     0.170 HD
HETATM   25  H   UNL     1       6.509  26.985  53.383  1.00  0.00     0.164 HD
BRANCH  22  26
HETATM   26  C   UNL     1       7.448  23.436  53.884  1.00  0.00     0.036 A 
HETATM   27  C   UNL     1       7.368  23.011  55.214  1.00  0.00     0.032 A 
HETATM   28  C   UNL     1       7.720  21.703  55.561  1.00  0.00     0.044 A 
HETATM   29  C   UNL     1       8.157  20.823  54.579  1.00  0.00     0.116 A 
HETATM   30  F   UNL     1       8.494  19.572  54.913  1.00  0.00    -0.206 F 
HETATM   31  C   UNL     1       8.252  21.228  53.255  1.00  0.00     0.044 A 
HETATM   32  C   UNL     1       7.899  22.535  52.907  1.00  0.00     0.032 A 
ENDBRANCH  22  26
ENDBRANCH   5  20
TORSDOF 6
ENDMDL
MODEL 8
REMARK VINA RESULT:      -8.2      6.944     10.305
REMARK  6 active torsions:
REMARK  status: ('A' for Active; 'I' for Inactive)
REMARK    1  A    between atoms: C_2  and  N_3 
REMARK    2  A    between atoms: C_2  and  C_25 
REMARK       I    between atoms: N_3  and  C_4 
REMARK    3  A    between atoms: C_4  and  C_5 
REMARK    4  A    between atoms: C_5  and  N_6 
REMARK    5  A    between atoms: C_10  and  N_11 
REMARK       I    between atoms: N_11  and  C_12 
REMARK       I    between atoms: C_12  and  N_13 
REMARK    6  A    between atoms: N_13  and  C_14 
ROOT
HETATM    1  N   UNL     1       4.357  29.053  52.814  1.00  0.00    -0.063 N 
HETATM    2  H   UNL     1       4.740  29.998  52.924  1.00  0.00     0.280 HD
HETATM    3  C   UNL     1       3.859  28.612  54.177  1.00  0.00     0.237 C 
HETATM    4  C   UNL     1       5.021  28.697  55.154  1.00  0.00     0.053 C 
HETATM    5  C   UNL     1       6.193  27.801  54.728  1.00  0.00     0.089 C 
HETATM    6  C   UNL     1       6.642  28.220  53.320  1.00  0.00     0.053 C 
HETATM    7  C   UNL     1       5.484  28.171  52.325  1.00  0.00     0.237 C 
ENDROOT
BRANCH   1   8
HETATM    8  C   UNL     1       3.218  29.200  51.798  1.00  0.00     0.337 C 
BRANCH   8   9
HETATM    9  C   UNL     1       3.582  28.951  50.329  1.00  0.00     0.244 C 
HETATM   10  N   UNL     1       2.965  27.859  49.767  1.00  0.00    -0.351 N 
HETATM   11  H   UNL     1       2.377  27.239  50.311  1.00  0.00     0.163 HD
HETATM   12  O   UNL     1       4.354  29.680  49.712  1.00  0.00    -0.272 OA
BRANCH  10  13
HETATM   13  C   UNL     1       3.225  27.437  48.395  1.00  0.00     0.120 C 
HETATM   14  C   UNL     1       3.563  25.949  48.324  1.00  0.00     0.038 C 
BRANCH  13  15
HETATM   15  C   UNL     1       2.020  27.774  47.551  1.00  0.00     0.005 A 
HETATM   16  S   UNL     1       1.421  29.383  47.433  1.00  0.00    -0.104 SA
HETATM   17  C   UNL     1       0.158  28.911  46.385  1.00  0.00     0.050 A 
HETATM   18  C   UNL     1       0.177  27.558  46.131  1.00  0.00     0.008 A 
HETATM   19  C   UNL     1       1.249  26.903  46.803  1.00  0.00     0.017 A 
ENDBRANCH  13  15
ENDBRANCH  10  13
ENDBRANCH   8   9
ENDBRANCH   1   8
BRANCH   5  20
HETATM   20  N   UNL     1       5.980  26.348  54.743  1.00  0.00    -0.338 N 
HETATM   21  C   UNL     1       6.978  25.394  54.835  1.00  0.00     0.321 C 
HETATM   22  N   UNL     1       6.464  24.131  54.641  1.00  0.00    -0.309 N 
HETATM   23  O   UNL     1       8.136  25.675  55.105  1.00  0.00    -0.247 OA
HETATM   24  H   UNL     1       5.460  24.041  54.692  1.00  0.00     0.170 HD
HETATM   25  H   UNL     1       5.227  26.037  54.141  1.00  0.00     0.164 HD
BRANCH  22  26
HETATM   26  C   UNL     1       7.184  22.920  54.559  1.00  0.00     0.036 A 
HETATM   27  C   UNL     1       7.490  22.119  55.664  1.00  0.00     0.032 A 
HETATM   28  C   UNL     1       8.220  20.938  55.501  1.00  0.00     0.044 A 
HETATM   29  C   UNL     1       8.646  20.560  54.233  1.00  0.00     0.116 A 
HETATM   30  F   UNL     1       9.345  19.429  54.079  1.00  0.00    -0.206 F 
HETATM   31  C   UNL     1       8.360  21.345  53.125  1.00  0.00     0.044 A 
HETATM   32  C   UNL     1       7.630  22.526  53.288  1.00  0.00     0.032 A 
ENDBRANCH  22  26
ENDBRANCH   5  20
TORSDOF 6
ENDMDL
MODEL 9
REMARK VINA RESULT:      -8.1      4.558      6.615
REMARK  6 active torsions:
REMARK  status: ('A' for Active; 'I' for Inactive)
REMARK    1  A    between atoms: C_2  and  N_3 
REMARK    2  A    between atoms: C_2  and  C_25 
REMARK       I    between atoms: N_3  and  C_4 
REMARK    3  A    between atoms: C_4  and  C_5 
REMARK    4  A    between atoms: C_5  and  N_6 
REMARK    5  A    between atoms: C_10  and  N_11 
REMARK       I    between atoms: N_11  and  C_12 
REMARK       I    between atoms: C_12  and  N_13 
REMARK    6  A    between atoms: N_13  and  C_14 
ROOT
HETATM    1  N   UNL     1       5.993  24.611  53.360  1.00  0.00    -0.063 N 
HETATM    2  H   UNL     1       5.611  23.692  53.612  1.00  0.00     0.280 HD
HETATM    3  C   UNL     1       7.494  24.542  53.560  1.00  0.00     0.237 C 
HETATM    4  C   UNL     1       7.760  24.139  55.002  1.00  0.00     0.053 C 
HETATM    5  C   UNL     1       7.161  25.145  55.995  1.00  0.00     0.089 C 
HETATM    6  C   UNL     1       5.650  25.249  55.736  1.00  0.00     0.053 C 
HETATM    7  C   UNL     1       5.356  25.625  54.284  1.00  0.00     0.237 C 
ENDROOT
BRANCH   1   8
HETATM    8  C   UNL     1       5.610  24.810  51.888  1.00  0.00     0.337 C 
BRANCH   8   9
HETATM    9  C   UNL     1       5.358  26.255  51.441  1.00  0.00     0.244 C 
HETATM   10  N   UNL     1       4.517  26.379  50.361  1.00  0.00    -0.351 N 
HETATM   11  H   UNL     1       4.158  25.570  49.868  1.00  0.00     0.163 HD
HETATM   12  O   UNL     1       5.863  27.216  52.015  1.00  0.00    -0.272 OA
BRANCH  10  13
HETATM   13  C   UNL     1       4.198  27.671  49.765  1.00  0.00     0.120 C 
HETATM   14  C   UNL     1       5.412  28.278  49.066  1.00  0.00     0.038 C 
BRANCH  13  15
HETATM   15  C   UNL     1       3.040  27.491  48.814  1.00  0.00     0.005 A 
HETATM   16  S   UNL     1       3.180  26.530  47.393  1.00  0.00    -0.104 SA
HETATM   17  C   UNL     1       1.565  26.847  46.936  1.00  0.00     0.050 A 
HETATM   18  C   UNL     1       0.928  27.674  47.833  1.00  0.00     0.008 A 
HETATM   19  C   UNL     1       1.777  28.046  48.915  1.00  0.00     0.017 A 
ENDBRANCH  13  15
ENDBRANCH  10  13
ENDBRANCH   8   9
ENDBRANCH   1   8
BRANCH   5  20
HETATM   20  N   UNL     1       7.730  26.498  56.022  1.00  0.00    -0.338 N 
HETATM   21  C   UNL     1       7.970  27.243  57.163  1.00  0.00     0.321 C 
HETATM   22  N   UNL     1       8.336  28.531  56.837  1.00  0.00    -0.309 N 
HETATM   23  O   UNL     1       7.906  26.767  58.286  1.00  0.00    -0.247 OA
HETATM   24  H   UNL     1       8.598  28.694  55.876  1.00  0.00     0.170 HD
HETATM   25  H   UNL     1       7.426  27.086  55.254  1.00  0.00     0.164 HD
BRANCH  22  26
HETATM   26  C   UNL     1       8.559  29.605  57.723  1.00  0.00     0.036 A 
HETATM   27  C   UNL     1       7.600  30.087  58.620  1.00  0.00     0.032 A 
HETATM   28  C   UNL     1       7.894  31.167  59.457  1.00  0.00     0.044 A 
HETATM   29  C   UNL     1       9.145  31.768  59.394  1.00  0.00     0.116 A 
HETATM   30  F   UNL     1       9.424  32.802  60.197  1.00  0.00    -0.206 F 
HETATM   31  C   UNL     1      10.107  31.311  58.505  1.00  0.00     0.044 A 
HETATM   32  C   UNL     1       9.814  30.230  57.668  1.00  0.00     0.032 A 
ENDBRANCH  22  26
ENDBRANCH   5  20
TORSDOF 6
ENDMDL
MODEL 10
REMARK VINA RESULT:      -7.9      3.916      6.451
REMARK  6 active torsions:
REMARK  status: ('A' for Active; 'I' for Inactive)
REMARK    1  A    between atoms: C_2  and  N_3 
REMARK    2  A    between atoms: C_2  and  C_25 
REMARK       I    between atoms: N_3  and  C_4 
REMARK    3  A    between atoms: C_4  and  C_5 
REMARK    4  A    between atoms: C_5  and  N_6 
REMARK    5  A    between atoms: C_10  and  N_11 
REMARK       I    between atoms: N_11  and  C_12 
REMARK       I    between atoms: C_12  and  N_13 
REMARK    6  A    between atoms: N_13  and  C_14 
ROOT
HETATM    1  N   UNL     1       5.750  24.540  53.654  1.00  0.00    -0.063 N 
HETATM    2  H   UNL     1       5.326  23.650  53.939  1.00  0.00     0.280 HD
HETATM    3  C   UNL     1       7.254  24.347  53.678  1.00  0.00     0.237 C 
HETATM    4  C   UNL     1       7.649  23.897  55.075  1.00  0.00     0.053 C 
HETATM    5  C   UNL     1       7.253  24.928  56.141  1.00  0.00     0.089 C 
HETATM    6  C   UNL     1       5.736  25.157  56.060  1.00  0.00     0.053 C 
HETATM    7  C   UNL     1       5.309  25.583  54.656  1.00  0.00     0.237 C 
ENDROOT
BRANCH   1   8
HETATM    8  C   UNL     1       5.218  24.797  52.238  1.00  0.00     0.337 C 
BRANCH   8   9
HETATM    9  C   UNL     1       5.419  26.213  51.685  1.00  0.00     0.244 C 
HETATM   10  N   UNL     1       4.260  26.844  51.299  1.00  0.00    -0.351 N 
HETATM   11  H   UNL     1       3.364  26.371  51.318  1.00  0.00     0.163 HD
HETATM   12  O   UNL     1       6.527  26.736  51.608  1.00  0.00    -0.272 OA
BRANCH  10  13
HETATM   13  C   UNL     1       4.258  28.175  50.705  1.00  0.00     0.120 C 
HETATM   14  C   UNL     1       3.214  28.289  49.595  1.00  0.00     0.038 C 
BRANCH  13  15
HETATM   15  C   UNL     1       4.021  29.190  51.797  1.00  0.00     0.005 A 
HETATM   16  S   UNL     1       4.230  30.876  51.524  1.00  0.00    -0.104 SA
HETATM   17  C   UNL     1       3.805  31.261  53.133  1.00  0.00     0.050 A 
HETATM   18  C   UNL     1       3.518  30.136  53.873  1.00  0.00     0.008 A 
HETATM   19  C   UNL     1       3.643  28.943  53.104  1.00  0.00     0.017 A 
ENDBRANCH  13  15
ENDBRANCH  10  13
ENDBRANCH   8   9
ENDBRANCH   1   8
BRANCH   5  20
HETATM   20  N   UNL     1       7.930  26.231  56.115  1.00  0.00    -0.338 N 
HETATM   21  C   UNL     1       8.091  27.071  57.203  1.00  0.00     0.321 C 
HETATM   22  N   UNL     1       8.605  28.286  56.808  1.00  0.00    -0.309 N 
HETATM   23  O   UNL     1       7.848  26.721  58.348  1.00  0.00    -0.247 OA
HETATM   24  H   UNL     1       8.997  28.328  55.879  1.00  0.00     0.170 HD
HETATM   25  H   UNL     1       7.776  26.756  55.262  1.00  0.00     0.164 HD
BRANCH  22  26
HETATM   26  C   UNL     1       8.809  29.428  57.610  1.00  0.00     0.036 A 
HETATM   27  C   UNL     1       9.987  30.183  57.605  1.00  0.00     0.032 A 
HETATM   28  C   UNL     1      10.117  31.296  58.441  1.00  0.00     0.044 A 
HETATM   29  C   UNL     1       9.072  31.651  59.285  1.00  0.00     0.116 A 
HETATM   30  F   UNL     1       9.199  32.717  60.085  1.00  0.00    -0.206 F 
HETATM   31  C   UNL     1       7.899  30.910  59.311  1.00  0.00     0.044 A 
HETATM   32  C   UNL     1       7.768  29.798  58.475  1.00  0.00     0.032 A 
ENDBRANCH  22  26
ENDBRANCH   5  20
TORSDOF 6
ENDMDL
