MODEL 1
REMARK VINA RESULT:     -11.7      0.000      0.000
REMARK  9 active torsions:
REMARK  status: ('A' for Active; 'I' for Inactive)
REMARK       I    between atoms: C_2  and  N_3 
REMARK    1  A    between atoms: N_3  and  C_4 
REMARK    2  A    between atoms: C_7  and  O_8 
REMARK    3  A    between atoms: O_8  and  C_9 
REMARK    4  A    between atoms: C_9  and  C_10 
REMARK    5  A    between atoms: C_11  and  O_12 
REMARK    6  A    between atoms: C_16  and  C_17 
REMARK    7  A    between atoms: C_31  and  O_32 
REMARK    8  A    between atoms: O_32  and  C_33 
REMARK    9  A    between atoms: C_33  and  C_34 
ROOT
HETATM    1  C   UNL     1       5.745  31.177  56.838  1.00  0.00     0.269 C 
HETATM    2  N   UNL     1       4.251  31.321  57.020  1.00  0.00    -0.061 N 
HETATM    3  H   UNL     1       3.873  31.696  56.145  1.00  0.00     0.278 HD
HETATM    4  H   UNL     1       4.081  32.016  57.754  1.00  0.00     0.278 HD
HETATM    5  C   UNL     1       3.525  30.038  57.351  1.00  0.00     0.238 C 
HETATM    6  C   UNL     1       3.679  29.003  56.222  1.00  0.00     0.069 C 
HETATM    7  C   UNL     1       5.090  28.952  55.746  1.00  0.00    -0.019 A 
HETATM    8  C   UNL     1       6.000  29.956  56.025  1.00  0.00     0.052 A 
HETATM    9  N   UNL     1       7.193  29.626  55.436  1.00  0.00    -0.356 N 
HETATM   10  H   UNL     1       8.057  30.153  55.478  1.00  0.00     0.166 HD
HETATM   11  C   UNL     1       7.068  28.417  54.787  1.00  0.00     0.043 A 
HETATM   12  C   UNL     1       5.761  27.962  54.980  1.00  0.00     0.002 A 
HETATM   13  C   UNL     1       8.013  27.697  54.051  1.00  0.00     0.033 A 
HETATM   14  C   UNL     1       7.616  26.464  53.525  1.00  0.00     0.039 A 
HETATM   15  C   UNL     1       6.331  25.963  53.732  1.00  0.00     0.070 A 
HETATM   16  C   UNL     1       5.383  26.719  54.432  1.00  0.00     0.051 A 
ENDROOT
BRANCH   1  17
HETATM   17  C   UNL     1       6.461  31.231  58.176  1.00  0.00    -0.021 A 
HETATM   18  C   UNL     1       7.601  30.438  58.378  1.00  0.00     0.012 A 
HETATM   19  C   UNL     1       8.334  30.521  59.567  1.00  0.00     0.038 A 
HETATM   20  C   UNL     1       7.947  31.398  60.583  1.00  0.00     0.076 A 
HETATM   21  C   UNL     1       6.796  32.186  60.415  1.00  0.00    -0.000 A 
HETATM   22  C   UNL     1       6.075  32.104  59.207  1.00  0.00     0.021 A 
BRANCH  20  23
HETATM   23  O   UNL     1       8.630  31.576  61.755  1.00  0.00    -0.355 OA
HETATM   24  C   UNL     1       8.782  30.455  62.616  1.00  0.00     0.210 C 
ENDBRANCH  20  23
BRANCH  21  25
HETATM   25  C   UNL     1       6.365  33.177  61.484  1.00  0.00     0.217 C 
BRANCH  25  26
HETATM   26  O   UNL     1       5.623  32.495  62.503  1.00  0.00    -0.347 OA
BRANCH  26  27
HETATM   27  C   UNL     1       5.697  33.044  63.755  1.00  0.00     0.069 A 
HETATM   28  C   UNL     1       6.980  33.139  64.293  1.00  0.00     0.039 A 
HETATM   29  C   UNL     1       7.179  33.689  65.565  1.00  0.00     0.032 A 
HETATM   30  C   UNL     1       6.095  34.140  66.326  1.00  0.00     0.034 A 
HETATM   31  C   UNL     1       4.811  34.026  65.789  1.00  0.00     0.032 A 
HETATM   32  C   UNL     1       4.613  33.482  64.513  1.00  0.00     0.039 A 
BRANCH  30  33
HETATM   33  N   UNL     1       6.371  34.684  67.596  1.00  0.00    -0.328 N 
HETATM   34  C   UNL     1       5.779  34.349  68.802  1.00  0.00     0.218 C 
HETATM   35  C   UNL     1       6.325  35.164  69.947  1.00  0.00     0.117 C 
HETATM   36  O   UNL     1       4.904  33.511  68.985  1.00  0.00    -0.274 OA
HETATM   37  H   UNL     1       7.079  35.407  67.627  1.00  0.00     0.169 HD
ENDBRANCH  30  33
ENDBRANCH  26  27
ENDBRANCH  25  26
ENDBRANCH  21  25
ENDBRANCH   1  17
BRANCH  15  38
HETATM   38  O   UNL     1       6.099  24.728  53.190  1.00  0.00    -0.347 OA
BRANCH  38  39
HETATM   39  C   UNL     1       7.241  24.055  52.650  1.00  0.00     0.214 C 
BRANCH  39  40
HETATM   40  C   UNL     1       7.550  22.836  53.485  1.00  0.00    -0.034 A 
HETATM   41  C   UNL     1       7.432  22.881  54.883  1.00  0.00     0.009 A 
HETATM   42  C   UNL     1       7.664  21.740  55.653  1.00  0.00     0.001 A 
HETATM   43  C   UNL     1       8.007  20.540  55.034  1.00  0.00     0.000 A 
HETATM   44  C   UNL     1       8.116  20.479  53.647  1.00  0.00     0.001 A 
HETATM   45  C   UNL     1       7.886  21.620  52.874  1.00  0.00     0.009 A 
ENDBRANCH  39  40
ENDBRANCH  38  39
ENDBRANCH  15  38
TORSDOF 9
ENDMDL
MODEL 2
REMARK VINA RESULT:     -11.6      1.629      2.873
REMARK  9 active torsions:
REMARK  status: ('A' for Active; 'I' for Inactive)
REMARK       I    between atoms: C_2  and  N_3 
REMARK    1  A    between atoms: N_3  and  C_4 
REMARK    2  A    between atoms: C_7  and  O_8 
REMARK    3  A    between atoms: O_8  and  C_9 
REMARK    4  A    between atoms: C_9  and  C_10 
REMARK    5  A    between atoms: C_11  and  O_12 
REMARK    6  A    between atoms: C_16  and  C_17 
REMARK    7  A    between atoms: C_31  and  O_32 
REMARK    8  A    between atoms: O_32  and  C_33 
REMARK    9  A    between atoms: C_33  and  C_34 
ROOT
HETATM    1  C   UNL     1       8.053  29.767  58.804  1.00  0.00     0.269 C 
HETATM    2  N   UNL     1       9.466  30.200  58.485  1.00  0.00    -0.061 N 
HETATM    3  H   UNL     1      10.095  29.481  58.855  1.00  0.00     0.278 HD
HETATM    4  H   UNL     1       9.659  31.070  58.991  1.00  0.00     0.278 HD
HETATM    5  C   UNL     1       9.758  30.387  57.014  1.00  0.00     0.238 C 
HETATM    6  C   UNL     1       9.571  29.071  56.238  1.00  0.00     0.069 C 
HETATM    7  C   UNL     1       8.319  28.384  56.662  1.00  0.00    -0.019 A 
HETATM    8  C   UNL     1       7.661  28.707  57.834  1.00  0.00     0.052 A 
HETATM    9  N   UNL     1       6.566  27.891  57.947  1.00  0.00    -0.356 N 
HETATM   10  H   UNL     1       5.875  27.900  58.688  1.00  0.00     0.166 HD
HETATM   11  C   UNL     1       6.503  27.050  56.857  1.00  0.00     0.043 A 
HETATM   12  C   UNL     1       7.584  27.350  56.024  1.00  0.00     0.002 A 
HETATM   13  C   UNL     1       5.572  26.054  56.550  1.00  0.00     0.033 A 
HETATM   14  C   UNL     1       5.736  25.369  55.342  1.00  0.00     0.039 A 
HETATM   15  C   UNL     1       6.781  25.671  54.469  1.00  0.00     0.070 A 
HETATM   16  C   UNL     1       7.731  26.639  54.815  1.00  0.00     0.051 A 
ENDROOT
BRANCH   1  17
HETATM   17  C   UNL     1       7.123  30.965  58.871  1.00  0.00    -0.021 A 
HETATM   18  C   UNL     1       6.372  31.317  57.738  1.00  0.00     0.012 A 
HETATM   19  C   UNL     1       5.443  32.364  57.787  1.00  0.00     0.038 A 
HETATM   20  C   UNL     1       5.243  33.083  58.966  1.00  0.00     0.076 A 
HETATM   21  C   UNL     1       5.998  32.767  60.108  1.00  0.00    -0.000 A 
HETATM   22  C   UNL     1       6.919  31.701  60.050  1.00  0.00     0.021 A 
BRANCH  20  23
HETATM   23  O   UNL     1       4.325  34.088  59.114  1.00  0.00    -0.355 OA
HETATM   24  C   UNL     1       4.312  35.128  58.144  1.00  0.00     0.210 C 
ENDBRANCH  20  23
BRANCH  21  25
HETATM   25  C   UNL     1       5.781  33.505  61.418  1.00  0.00     0.217 C 
BRANCH  25  26
HETATM   26  O   UNL     1       5.695  32.563  62.494  1.00  0.00    -0.347 OA
BRANCH  26  27
HETATM   27  C   UNL     1       5.751  33.097  63.753  1.00  0.00     0.069 A 
HETATM   28  C   UNL     1       7.027  33.182  64.311  1.00  0.00     0.039 A 
HETATM   29  C   UNL     1       7.210  33.717  65.592  1.00  0.00     0.032 A 
HETATM   30  C   UNL     1       6.116  34.161  66.342  1.00  0.00     0.034 A 
HETATM   31  C   UNL     1       4.840  34.058  65.787  1.00  0.00     0.032 A 
HETATM   32  C   UNL     1       4.658  33.529  64.501  1.00  0.00     0.039 A 
BRANCH  30  33
HETATM   33  N   UNL     1       6.375  34.690  67.623  1.00  0.00    -0.328 N 
HETATM   34  C   UNL     1       5.774  34.334  68.818  1.00  0.00     0.218 C 
HETATM   35  C   UNL     1       6.303  35.137  69.980  1.00  0.00     0.117 C 
HETATM   36  O   UNL     1       4.903  33.488  68.981  1.00  0.00    -0.274 OA
HETATM   37  H   UNL     1       7.078  35.418  67.671  1.00  0.00     0.169 HD
ENDBRANCH  30  33
ENDBRANCH  26  27
ENDBRANCH  25  26
ENDBRANCH  21  25
ENDBRANCH   1  17
BRANCH  15  38
HETATM   38  O   UNL     1       6.791  24.945  53.309  1.00  0.00    -0.347 OA
BRANCH  38  39
HETATM   39  C   UNL     1       8.038  24.336  52.961  1.00  0.00     0.214 C 
BRANCH  39  40
HETATM   40  C   UNL     1       8.131  22.974  53.605  1.00  0.00    -0.034 A 
HETATM   41  C   UNL     1       7.881  21.813  52.857  1.00  0.00     0.009 A 
HETATM   42  C   UNL     1       8.020  20.550  53.435  1.00  0.00     0.001 A 
HETATM   43  C   UNL     1       8.418  20.434  54.765  1.00  0.00     0.000 A 
HETATM   44  C   UNL     1       8.680  21.578  55.516  1.00  0.00     0.001 A 
HETATM   45  C   UNL     1       8.541  22.842  54.939  1.00  0.00     0.009 A 
ENDBRANCH  39  40
ENDBRANCH  38  39
ENDBRANCH  15  38
TORSDOF 9
ENDMDL
MODEL 3
REMARK VINA RESULT:     -11.2      2.626     13.062
REMARK  9 active torsions:
REMARK  status: ('A' for Active; 'I' for Inactive)
REMARK       I    between atoms: C_2  and  N_3 
REMARK    1  A    between atoms: N_3  and  C_4 
REMARK    2  A    between atoms: C_7  and  O_8 
REMARK    3  A    between atoms: O_8  and  C_9 
REMARK    4  A    between atoms: C_9  and  C_10 
REMARK    5  A    between atoms: C_11  and  O_12 
REMARK    6  A    between atoms: C_16  and  C_17 
REMARK    7  A    between atoms: C_31  and  O_32 
REMARK    8  A    between atoms: O_32  and  C_33 
REMARK    9  A    between atoms: C_33  and  C_34 
ROOT
HETATM    1  C   UNL     1       8.053  32.395  60.093  1.00  0.00     0.269 C 
HETATM    2  N   UNL     1       9.396  31.860  60.534  1.00  0.00    -0.061 N 
HETATM    3  H   UNL     1       9.993  32.667  60.738  1.00  0.00     0.278 HD
HETATM    4  H   UNL     1       9.817  31.356  59.747  1.00  0.00     0.278 HD
HETATM    5  C   UNL     1       9.357  30.967  61.752  1.00  0.00     0.238 C 
HETATM    6  C   UNL     1       8.820  31.723  62.980  1.00  0.00     0.069 C 
HETATM    7  C   UNL     1       7.622  32.532  62.617  1.00  0.00    -0.019 A 
HETATM    8  C   UNL     1       7.307  32.835  61.305  1.00  0.00     0.052 A 
HETATM    9  N   UNL     1       6.170  33.600  61.306  1.00  0.00    -0.356 N 
HETATM   10  H   UNL     1       5.680  33.961  60.495  1.00  0.00     0.166 HD
HETATM   11  C   UNL     1       5.742  33.789  62.602  1.00  0.00     0.043 A 
HETATM   12  C   UNL     1       6.627  33.114  63.446  1.00  0.00     0.002 A 
HETATM   13  C   UNL     1       4.640  34.501  63.083  1.00  0.00     0.033 A 
HETATM   14  C   UNL     1       4.424  34.496  64.464  1.00  0.00     0.039 A 
HETATM   15  C   UNL     1       5.265  33.799  65.331  1.00  0.00     0.070 A 
HETATM   16  C   UNL     1       6.390  33.130  64.836  1.00  0.00     0.051 A 
ENDROOT
BRANCH   1  17
HETATM   17  C   UNL     1       7.333  31.389  59.213  1.00  0.00    -0.021 A 
HETATM   18  C   UNL     1       5.992  31.617  58.864  1.00  0.00     0.012 A 
HETATM   19  C   UNL     1       5.320  30.756  57.989  1.00  0.00     0.038 A 
HETATM   20  C   UNL     1       5.970  29.648  57.440  1.00  0.00     0.076 A 
HETATM   21  C   UNL     1       7.305  29.385  57.791  1.00  0.00    -0.000 A 
HETATM   22  C   UNL     1       7.975  30.268  58.662  1.00  0.00     0.021 A 
BRANCH  20  23
HETATM   23  O   UNL     1       5.405  28.784  56.543  1.00  0.00    -0.355 OA
HETATM   24  C   UNL     1       4.058  29.017  56.149  1.00  0.00     0.210 C 
ENDBRANCH  20  23
BRANCH  21  25
HETATM   25  C   UNL     1       8.055  28.209  57.187  1.00  0.00     0.217 C 
BRANCH  25  26
HETATM   26  O   UNL     1       7.772  27.021  57.936  1.00  0.00    -0.347 OA
BRANCH  26  27
HETATM   27  C   UNL     1       7.646  25.874  57.198  1.00  0.00     0.069 A 
HETATM   28  C   UNL     1       8.707  24.975  57.303  1.00  0.00     0.039 A 
HETATM   29  C   UNL     1       8.688  23.765  56.598  1.00  0.00     0.032 A 
HETATM   30  C   UNL     1       7.611  23.442  55.765  1.00  0.00     0.034 A 
HETATM   31  C   UNL     1       6.560  24.353  55.651  1.00  0.00     0.032 A 
HETATM   32  C   UNL     1       6.577  25.561  56.362  1.00  0.00     0.039 A 
BRANCH  30  33
HETATM   33  N   UNL     1       7.657  22.206  55.090  1.00  0.00    -0.328 N 
HETATM   34  C   UNL     1       7.957  21.988  53.756  1.00  0.00     0.218 C 
HETATM   35  C   UNL     1       7.888  20.526  53.392  1.00  0.00     0.117 C 
HETATM   36  O   UNL     1       8.239  22.834  52.915  1.00  0.00    -0.274 OA
HETATM   37  H   UNL     1       7.441  21.386  55.643  1.00  0.00     0.169 HD
ENDBRANCH  30  33
ENDBRANCH  26  27
ENDBRANCH  25  26
ENDBRANCH  21  25
ENDBRANCH   1  17
BRANCH  15  38
HETATM   38  O   UNL     1       4.906  33.853  66.651  1.00  0.00    -0.347 OA
BRANCH  38  39
HETATM   39  C   UNL     1       5.361  34.998  67.379  1.00  0.00     0.214 C 
BRANCH  39  40
HETATM   40  C   UNL     1       6.130  34.548  68.597  1.00  0.00    -0.034 A 
HETATM   41  C   UNL     1       5.620  33.541  69.431  1.00  0.00     0.009 A 
HETATM   42  C   UNL     1       6.355  33.086  70.527  1.00  0.00     0.001 A 
HETATM   43  C   UNL     1       7.611  33.624  70.796  1.00  0.00     0.000 A 
HETATM   44  C   UNL     1       8.134  34.617  69.969  1.00  0.00     0.001 A 
HETATM   45  C   UNL     1       7.400  35.075  68.873  1.00  0.00     0.009 A 
ENDBRANCH  39  40
ENDBRANCH  38  39
ENDBRANCH  15  38
TORSDOF 9
ENDMDL
MODEL 4
REMARK VINA RESULT:     -11.1      3.785      7.725
REMARK  9 active torsions:
REMARK  status: ('A' for Active; 'I' for Inactive)
REMARK       I    between atoms: C_2  and  N_3 
REMARK    1  A    between atoms: N_3  and  C_4 
REMARK    2  A    between atoms: C_7  and  O_8 
REMARK    3  A    between atoms: O_8  and  C_9 
REMARK    4  A    between atoms: C_9  and  C_10 
REMARK    5  A    between atoms: C_11  and  O_12 
REMARK    6  A    between atoms: C_16  and  C_17 
REMARK    7  A    between atoms: C_31  and  O_32 
REMARK    8  A    between atoms: O_32  and  C_33 
REMARK    9  A    between atoms: C_33  and  C_34 
ROOT
HETATM    1  C   UNL     1       8.345  29.799  58.942  1.00  0.00     0.269 C 
HETATM    2  N   UNL     1       9.643  30.384  58.436  1.00  0.00    -0.061 N 
HETATM    3  H   UNL     1      10.391  29.734  58.696  1.00  0.00     0.278 HD
HETATM    4  H   UNL     1       9.814  31.266  58.930  1.00  0.00     0.278 HD
HETATM    5  C   UNL     1       9.699  30.613  56.943  1.00  0.00     0.238 C 
HETATM    6  C   UNL     1       9.543  29.291  56.171  1.00  0.00     0.069 C 
HETATM    7  C   UNL     1       8.444  28.469  56.753  1.00  0.00    -0.019 A 
HETATM    8  C   UNL     1       7.932  28.710  58.015  1.00  0.00     0.052 A 
HETATM    9  N   UNL     1       6.956  27.779  58.263  1.00  0.00    -0.356 N 
HETATM   10  H   UNL     1       6.382  27.708  59.095  1.00  0.00     0.166 HD
HETATM   11  C   UNL     1       6.827  26.945  57.174  1.00  0.00     0.043 A 
HETATM   12  C   UNL     1       7.739  27.366  56.203  1.00  0.00     0.002 A 
HETATM   13  C   UNL     1       5.971  25.857  56.979  1.00  0.00     0.033 A 
HETATM   14  C   UNL     1       6.031  25.203  55.745  1.00  0.00     0.039 A 
HETATM   15  C   UNL     1       6.902  25.623  54.740  1.00  0.00     0.070 A 
HETATM   16  C   UNL     1       7.784  26.685  54.969  1.00  0.00     0.051 A 
ENDROOT
BRANCH   1  17
HETATM   17  C   UNL     1       7.312  30.889  59.169  1.00  0.00    -0.021 A 
HETATM   18  C   UNL     1       7.383  31.672  60.332  1.00  0.00     0.012 A 
HETATM   19  C   UNL     1       6.499  32.738  60.536  1.00  0.00     0.038 A 
HETATM   20  C   UNL     1       5.526  33.049  59.585  1.00  0.00     0.076 A 
HETATM   21  C   UNL     1       5.420  32.267  58.422  1.00  0.00    -0.000 A 
HETATM   22  C   UNL     1       6.325  31.205  58.221  1.00  0.00     0.021 A 
BRANCH  20  23
HETATM   23  O   UNL     1       4.655  34.100  59.682  1.00  0.00    -0.355 OA
HETATM   24  C   UNL     1       4.580  34.793  60.922  1.00  0.00     0.210 C 
ENDBRANCH  20  23
BRANCH  21  25
HETATM   25  C   UNL     1       4.396  32.598  57.349  1.00  0.00     0.217 C 
BRANCH  25  26
HETATM   26  O   UNL     1       3.468  31.514  57.216  1.00  0.00    -0.347 OA
BRANCH  26  27
HETATM   27  C   UNL     1       3.597  30.762  56.079  1.00  0.00     0.069 A 
HETATM   28  C   UNL     1       4.088  29.470  56.268  1.00  0.00     0.039 A 
HETATM   29  C   UNL     1       4.258  28.607  55.179  1.00  0.00     0.032 A 
HETATM   30  C   UNL     1       3.952  29.029  53.880  1.00  0.00     0.034 A 
HETATM   31  C   UNL     1       3.477  30.328  53.695  1.00  0.00     0.032 A 
HETATM   32  C   UNL     1       3.301  31.189  54.786  1.00  0.00     0.039 A 
BRANCH  30  33
HETATM   33  N   UNL     1       4.144  28.105  52.833  1.00  0.00    -0.328 N 
HETATM   34  C   UNL     1       5.300  27.892  52.102  1.00  0.00     0.218 C 
HETATM   35  C   UNL     1       5.116  26.829  51.047  1.00  0.00     0.117 C 
HETATM   36  O   UNL     1       6.373  28.470  52.233  1.00  0.00    -0.274 OA
HETATM   37  H   UNL     1       3.343  27.537  52.585  1.00  0.00     0.169 HD
ENDBRANCH  30  33
ENDBRANCH  26  27
ENDBRANCH  25  26
ENDBRANCH  21  25
ENDBRANCH   1  17
BRANCH  15  38
HETATM   38  O   UNL     1       6.822  24.912  53.573  1.00  0.00    -0.347 OA
BRANCH  38  39
HETATM   39  C   UNL     1       8.045  24.338  53.103  1.00  0.00     0.214 C 
BRANCH  39  40
HETATM   40  C   UNL     1       8.189  22.938  53.649  1.00  0.00    -0.034 A 
HETATM   41  C   UNL     1       7.769  21.832  52.895  1.00  0.00     0.009 A 
HETATM   42  C   UNL     1       7.950  20.534  53.374  1.00  0.00     0.001 A 
HETATM   43  C   UNL     1       8.563  20.327  54.608  1.00  0.00     0.000 A 
HETATM   44  C   UNL     1       8.995  21.416  55.362  1.00  0.00     0.001 A 
HETATM   45  C   UNL     1       8.813  22.716  54.885  1.00  0.00     0.009 A 
ENDBRANCH  39  40
ENDBRANCH  38  39
ENDBRANCH  15  38
TORSDOF 9
ENDMDL
MODEL 5
REMARK VINA RESULT:     -11.1      1.900      2.946
REMARK  9 active torsions:
REMARK  status: ('A' for Active; 'I' for Inactive)
REMARK       I    between atoms: C_2  and  N_3 
REMARK    1  A    between atoms: N_3  and  C_4 
REMARK    2  A    between atoms: C_7  and  O_8 
REMARK    3  A    between atoms: O_8  and  C_9 
REMARK    4  A    between atoms: C_9  and  C_10 
REMARK    5  A    between atoms: C_11  and  O_12 
REMARK    6  A    between atoms: C_16  and  C_17 
REMARK    7  A    between atoms: C_31  and  O_32 
REMARK    8  A    between atoms: O_32  and  C_33 
REMARK    9  A    between atoms: C_33  and  C_34 
ROOT
HETATM    1  C   UNL     1       5.008  32.338  56.711  1.00  0.00     0.269 C 
HETATM    2  N   UNL     1       4.020  32.519  55.582  1.00  0.00    -0.061 N 
HETATM    3  H   UNL     1       4.557  32.547  54.709  1.00  0.00     0.278 HD
HETATM    4  H   UNL     1       3.565  33.431  55.694  1.00  0.00     0.278 HD
HETATM    5  C   UNL     1       2.974  31.434  55.471  1.00  0.00     0.238 C 
HETATM    6  C   UNL     1       3.620  30.063  55.204  1.00  0.00     0.069 C 
HETATM    7  C   UNL     1       4.806  29.860  56.083  1.00  0.00    -0.019 A 
HETATM    8  C   UNL     1       5.424  30.908  56.741  1.00  0.00     0.052 A 
HETATM    9  N   UNL     1       6.485  30.402  57.446  1.00  0.00    -0.356 N 
HETATM   10  H   UNL     1       7.119  30.919  58.044  1.00  0.00     0.166 HD
HETATM   11  C   UNL     1       6.555  29.038  57.259  1.00  0.00     0.043 A 
HETATM   12  C   UNL     1       5.501  28.668  56.420  1.00  0.00     0.002 A 
HETATM   13  C   UNL     1       7.467  28.113  57.772  1.00  0.00     0.033 A 
HETATM   14  C   UNL     1       7.276  26.768  57.440  1.00  0.00     0.039 A 
HETATM   15  C   UNL     1       6.211  26.360  56.638  1.00  0.00     0.070 A 
HETATM   16  C   UNL     1       5.334  27.307  56.095  1.00  0.00     0.051 A 
ENDROOT
BRANCH   1  17
HETATM   17  C   UNL     1       4.447  32.880  58.013  1.00  0.00    -0.021 A 
HETATM   18  C   UNL     1       3.547  33.958  57.978  1.00  0.00     0.012 A 
HETATM   19  C   UNL     1       2.946  34.432  59.150  1.00  0.00     0.038 A 
HETATM   20  C   UNL     1       3.227  33.842  60.384  1.00  0.00     0.076 A 
HETATM   21  C   UNL     1       4.142  32.776  60.449  1.00  0.00    -0.000 A 
HETATM   22  C   UNL     1       4.729  32.299  59.260  1.00  0.00     0.021 A 
BRANCH  20  23
HETATM   23  O   UNL     1       2.651  34.211  61.569  1.00  0.00    -0.355 OA
HETATM   24  C   UNL     1       2.748  35.574  61.962  1.00  0.00     0.210 C 
ENDBRANCH  20  23
BRANCH  21  25
HETATM   25  C   UNL     1       4.445  32.087  61.769  1.00  0.00     0.217 C 
BRANCH  25  26
HETATM   26  O   UNL     1       5.747  32.474  62.228  1.00  0.00    -0.347 OA
BRANCH  26  27
HETATM   27  C   UNL     1       5.797  32.995  63.493  1.00  0.00     0.069 A 
HETATM   28  C   UNL     1       7.072  33.102  64.047  1.00  0.00     0.039 A 
HETATM   29  C   UNL     1       7.248  33.626  65.333  1.00  0.00     0.032 A 
HETATM   30  C   UNL     1       6.147  34.037  66.092  1.00  0.00     0.034 A 
HETATM   31  C   UNL     1       4.872  33.912  65.540  1.00  0.00     0.032 A 
HETATM   32  C   UNL     1       4.697  33.394  64.250  1.00  0.00     0.039 A 
BRANCH  30  33
HETATM   33  N   UNL     1       6.401  34.557  67.378  1.00  0.00    -0.328 N 
HETATM   34  C   UNL     1       5.679  34.324  68.536  1.00  0.00     0.218 C 
HETATM   35  C   UNL     1       6.245  35.073  69.717  1.00  0.00     0.117 C 
HETATM   36  O   UNL     1       4.684  33.619  68.655  1.00  0.00    -0.274 OA
HETATM   37  H   UNL     1       7.198  35.176  67.460  1.00  0.00     0.169 HD
ENDBRANCH  30  33
ENDBRANCH  26  27
ENDBRANCH  25  26
ENDBRANCH  21  25
ENDBRANCH   1  17
BRANCH  15  38
HETATM   38  O   UNL     1       6.129  25.010  56.431  1.00  0.00    -0.347 OA
BRANCH  38  39
HETATM   39  C   UNL     1       7.359  24.285  56.526  1.00  0.00     0.214 C 
BRANCH  39  40
HETATM   40  C   UNL     1       7.516  23.396  55.317  1.00  0.00    -0.034 A 
HETATM   41  C   UNL     1       7.531  23.945  54.025  1.00  0.00     0.009 A 
HETATM   42  C   UNL     1       7.730  23.131  52.908  1.00  0.00     0.001 A 
HETATM   43  C   UNL     1       7.926  21.762  53.071  1.00  0.00     0.000 A 
HETATM   44  C   UNL     1       7.924  21.205  54.349  1.00  0.00     0.001 A 
HETATM   45  C   UNL     1       7.724  22.017  55.467  1.00  0.00     0.009 A 
ENDBRANCH  39  40
ENDBRANCH  38  39
ENDBRANCH  15  38
TORSDOF 9
ENDMDL
MODEL 6
REMARK VINA RESULT:     -10.9      2.960      3.496
REMARK  9 active torsions:
REMARK  status: ('A' for Active; 'I' for Inactive)
REMARK       I    between atoms: C_2  and  N_3 
REMARK    1  A    between atoms: N_3  and  C_4 
REMARK    2  A    between atoms: C_7  and  O_8 
REMARK    3  A    between atoms: O_8  and  C_9 
REMARK    4  A    between atoms: C_9  and  C_10 
REMARK    5  A    between atoms: C_11  and  O_12 
REMARK    6  A    between atoms: C_16  and  C_17 
REMARK    7  A    between atoms: C_31  and  O_32 
REMARK    8  A    between atoms: O_32  and  C_33 
REMARK    9  A    between atoms: C_33  and  C_34 
ROOT
HETATM    1  C   UNL     1       6.222  31.894  58.410  1.00  0.00     0.269 C 
HETATM    2  N   UNL     1       4.930  32.406  57.818  1.00  0.00    -0.061 N 
HETATM    3  H   UNL     1       5.126  32.679  56.850  1.00  0.00     0.278 HD
HETATM    4  H   UNL     1       4.653  33.251  58.327  1.00  0.00     0.278 HD
HETATM    5  C   UNL     1       3.792  31.412  57.818  1.00  0.00     0.238 C 
HETATM    6  C   UNL     1       4.137  30.169  56.978  1.00  0.00     0.069 C 
HETATM    7  C   UNL     1       5.524  29.707  57.270  1.00  0.00    -0.019 A 
HETATM    8  C   UNL     1       6.451  30.512  57.905  1.00  0.00     0.052 A 
HETATM    9  N   UNL     1       7.625  29.811  58.007  1.00  0.00    -0.356 N 
HETATM   10  H   UNL     1       8.484  30.126  58.443  1.00  0.00     0.166 HD
HETATM   11  C   UNL     1       7.464  28.559  57.454  1.00  0.00     0.043 A 
HETATM   12  C   UNL     1       6.147  28.460  56.998  1.00  0.00     0.002 A 
HETATM   13  C   UNL     1       8.383  27.514  57.329  1.00  0.00     0.033 A 
HETATM   14  C   UNL     1       7.931  26.325  56.748  1.00  0.00     0.039 A 
HETATM   15  C   UNL     1       6.612  26.180  56.318  1.00  0.00     0.070 A 
HETATM   16  C   UNL     1       5.718  27.253  56.409  1.00  0.00     0.051 A 
ENDROOT
BRANCH   1  17
HETATM   17  C   UNL     1       6.221  32.043  59.921  1.00  0.00    -0.021 A 
HETATM   18  C   UNL     1       7.389  31.749  60.642  1.00  0.00     0.012 A 
HETATM   19  C   UNL     1       7.450  31.952  62.026  1.00  0.00     0.038 A 
HETATM   20  C   UNL     1       6.350  32.456  62.722  1.00  0.00     0.076 A 
HETATM   21  C   UNL     1       5.161  32.738  62.027  1.00  0.00    -0.000 A 
HETATM   22  C   UNL     1       5.116  32.542  60.632  1.00  0.00     0.021 A 
BRANCH  20  23
HETATM   23  O   UNL     1       6.339  32.728  64.063  1.00  0.00    -0.355 OA
HETATM   24  C   UNL     1       7.372  33.555  64.584  1.00  0.00     0.210 C 
ENDBRANCH  20  23
BRANCH  21  25
HETATM   25  C   UNL     1       3.955  33.320  62.746  1.00  0.00     0.217 C 
BRANCH  25  26
HETATM   26  O   UNL     1       3.660  34.619  62.217  1.00  0.00    -0.347 OA
BRANCH  26  27
HETATM   27  C   UNL     1       4.346  35.658  62.786  1.00  0.00     0.069 A 
HETATM   28  C   UNL     1       5.187  36.363  61.926  1.00  0.00     0.039 A 
HETATM   29  C   UNL     1       5.936  37.450  62.394  1.00  0.00     0.032 A 
HETATM   30  C   UNL     1       5.865  37.839  63.736  1.00  0.00     0.034 A 
HETATM   31  C   UNL     1       5.035  37.119  64.597  1.00  0.00     0.032 A 
HETATM   32  C   UNL     1       4.281  36.036  64.126  1.00  0.00     0.039 A 
BRANCH  30  33
HETATM   33  N   UNL     1       6.644  38.943  64.136  1.00  0.00    -0.328 N 
HETATM   34  C   UNL     1       6.422  40.278  63.844  1.00  0.00     0.218 C 
HETATM   35  C   UNL     1       7.486  41.172  64.432  1.00  0.00     0.117 C 
HETATM   36  O   UNL     1       5.502  40.745  63.182  1.00  0.00    -0.274 OA
HETATM   37  H   UNL     1       7.462  38.734  64.695  1.00  0.00     0.169 HD
ENDBRANCH  30  33
ENDBRANCH  26  27
ENDBRANCH  25  26
ENDBRANCH  21  25
ENDBRANCH   1  17
BRANCH  15  38
HETATM   38  O   UNL     1       6.305  24.948  55.807  1.00  0.00    -0.347 OA
BRANCH  38  39
HETATM   39  C   UNL     1       6.790  24.678  54.488  1.00  0.00     0.214 C 
BRANCH  39  40
HETATM   40  C   UNL     1       7.312  23.263  54.423  1.00  0.00    -0.034 A 
HETATM   41  C   UNL     1       7.496  22.516  55.597  1.00  0.00     0.009 A 
HETATM   42  C   UNL     1       7.926  21.189  55.536  1.00  0.00     0.001 A 
HETATM   43  C   UNL     1       8.169  20.593  54.301  1.00  0.00     0.000 A 
HETATM   44  C   UNL     1       7.980  21.319  53.127  1.00  0.00     0.001 A 
HETATM   45  C   UNL     1       7.550  22.647  53.186  1.00  0.00     0.009 A 
ENDBRANCH  39  40
ENDBRANCH  38  39
ENDBRANCH  15  38
TORSDOF 9
ENDMDL
MODEL 7
REMARK VINA RESULT:     -10.8      5.981     10.220
REMARK  9 active torsions:
REMARK  status: ('A' for Active; 'I' for Inactive)
REMARK       I    between atoms: C_2  and  N_3 
REMARK    1  A    between atoms: N_3  and  C_4 
REMARK    2  A    between atoms: C_7  and  O_8 
REMARK    3  A    between atoms: O_8  and  C_9 
REMARK    4  A    between atoms: C_9  and  C_10 
REMARK    5  A    between atoms: C_11  and  O_12 
REMARK    6  A    between atoms: C_16  and  C_17 
REMARK    7  A    between atoms: C_31  and  O_32 
REMARK    8  A    between atoms: O_32  and  C_33 
REMARK    9  A    between atoms: C_33  and  C_34 
ROOT
HETATM    1  C   UNL     1       3.853  29.496  56.396  1.00  0.00     0.269 C 
HETATM    2  N   UNL     1       4.568  29.679  57.715  1.00  0.00    -0.061 N 
HETATM    3  H   UNL     1       4.285  28.906  58.325  1.00  0.00     0.278 HD
HETATM    4  H   UNL     1       4.235  30.549  58.145  1.00  0.00     0.278 HD
HETATM    5  C   UNL     1       6.076  29.697  57.625  1.00  0.00     0.238 C 
HETATM    6  C   UNL     1       6.616  28.365  57.074  1.00  0.00     0.069 C 
HETATM    7  C   UNL     1       5.810  27.915  55.904  1.00  0.00    -0.019 A 
HETATM    8  C   UNL     1       4.557  28.431  55.630  1.00  0.00     0.052 A 
HETATM    9  N   UNL     1       4.074  27.804  54.510  1.00  0.00    -0.356 N 
HETATM   10  H   UNL     1       3.189  27.981  54.049  1.00  0.00     0.166 HD
HETATM   11  C   UNL     1       5.003  26.895  54.053  1.00  0.00     0.043 A 
HETATM   12  C   UNL     1       6.112  26.956  54.901  1.00  0.00     0.002 A 
HETATM   13  C   UNL     1       4.943  26.032  52.956  1.00  0.00     0.033 A 
HETATM   14  C   UNL     1       6.061  25.232  52.704  1.00  0.00     0.039 A 
HETATM   15  C   UNL     1       7.199  25.297  53.507  1.00  0.00     0.070 A 
HETATM   16  C   UNL     1       7.224  26.133  54.629  1.00  0.00     0.051 A 
ENDROOT
BRANCH   1  17
HETATM   17  C   UNL     1       3.698  30.824  55.677  1.00  0.00    -0.021 A 
HETATM   18  C   UNL     1       3.780  32.018  56.411  1.00  0.00     0.012 A 
HETATM   19  C   UNL     1       3.723  33.261  55.770  1.00  0.00     0.038 A 
HETATM   20  C   UNL     1       3.586  33.343  54.383  1.00  0.00     0.076 A 
HETATM   21  C   UNL     1       3.479  32.163  53.627  1.00  0.00    -0.000 A 
HETATM   22  C   UNL     1       3.551  30.917  54.282  1.00  0.00     0.021 A 
BRANCH  20  23
HETATM   23  O   UNL     1       3.569  34.513  53.673  1.00  0.00    -0.355 OA
HETATM   24  C   UNL     1       2.448  35.374  53.833  1.00  0.00     0.210 C 
ENDBRANCH  20  23
BRANCH  21  25
HETATM   25  C   UNL     1       3.364  32.213  52.113  1.00  0.00     0.217 C 
BRANCH  25  26
HETATM   26  O   UNL     1       4.550  31.669  51.521  1.00  0.00    -0.347 OA
BRANCH  26  27
HETATM   27  C   UNL     1       4.421  30.414  50.987  1.00  0.00     0.069 A 
HETATM   28  C   UNL     1       3.117  30.022  50.685  1.00  0.00     0.039 A 
HETATM   29  C   UNL     1       2.863  28.762  50.130  1.00  0.00     0.032 A 
HETATM   30  C   UNL     1       3.910  27.868  49.882  1.00  0.00     0.034 A 
HETATM   31  C   UNL     1       5.211  28.258  50.202  1.00  0.00     0.032 A 
HETATM   32  C   UNL     1       5.466  29.522  50.751  1.00  0.00     0.039 A 
BRANCH  30  33
HETATM   33  N   UNL     1       3.580  26.619  49.319  1.00  0.00    -0.328 N 
HETATM   34  C   UNL     1       3.515  26.293  47.975  1.00  0.00     0.218 C 
HETATM   35  C   UNL     1       3.108  24.857  47.759  1.00  0.00     0.117 C 
HETATM   36  O   UNL     1       3.736  27.035  47.025  1.00  0.00    -0.274 OA
HETATM   37  H   UNL     1       3.359  25.878  49.973  1.00  0.00     0.169 HD
ENDBRANCH  30  33
ENDBRANCH  26  27
ENDBRANCH  25  26
ENDBRANCH  21  25
ENDBRANCH   1  17
BRANCH  15  38
HETATM   38  O   UNL     1       8.228  24.484  53.116  1.00  0.00    -0.347 OA
BRANCH  38  39
HETATM   39  C   UNL     1       7.857  23.190  52.632  1.00  0.00     0.214 C 
BRANCH  39  40
HETATM   40  C   UNL     1       8.089  22.161  53.713  1.00  0.00    -0.034 A 
HETATM   41  C   UNL     1       7.771  22.448  55.050  1.00  0.00     0.009 A 
HETATM   42  C   UNL     1       7.934  21.480  56.042  1.00  0.00     0.001 A 
HETATM   43  C   UNL     1       8.407  20.213  55.708  1.00  0.00     0.000 A 
HETATM   44  C   UNL     1       8.716  19.912  54.384  1.00  0.00     0.001 A 
HETATM   45  C   UNL     1       8.555  20.879  53.389  1.00  0.00     0.009 A 
ENDBRANCH  39  40
ENDBRANCH  38  39
ENDBRANCH  15  38
TORSDOF 9
ENDMDL
MODEL 8
REMARK VINA RESULT:     -10.6      4.081     11.312
REMARK  9 active torsions:
REMARK  status: ('A' for Active; 'I' for Inactive)
REMARK       I    between atoms: C_2  and  N_3 
REMARK    1  A    between atoms: N_3  and  C_4 
REMARK    2  A    between atoms: C_7  and  O_8 
REMARK    3  A    between atoms: O_8  and  C_9 
REMARK    4  A    between atoms: C_9  and  C_10 
REMARK    5  A    between atoms: C_11  and  O_12 
REMARK    6  A    between atoms: C_16  and  C_17 
REMARK    7  A    between atoms: C_31  and  O_32 
REMARK    8  A    between atoms: O_32  and  C_33 
REMARK    9  A    between atoms: C_33  and  C_34 
ROOT
HETATM    1  C   UNL     1       3.132  29.893  53.918  1.00  0.00     0.269 C 
HETATM    2  N   UNL     1       2.795  31.359  54.069  1.00  0.00    -0.061 N 
HETATM    3  H   UNL     1       2.208  31.452  54.903  1.00  0.00     0.278 HD
HETATM    4  H   UNL     1       2.231  31.645  53.262  1.00  0.00     0.278 HD
HETATM    5  C   UNL     1       3.988  32.274  54.212  1.00  0.00     0.238 C 
HETATM    6  C   UNL     1       4.804  31.933  55.472  1.00  0.00     0.069 C 
HETATM    7  C   UNL     1       4.983  30.460  55.599  1.00  0.00    -0.019 A 
HETATM    8  C   UNL     1       4.203  29.559  54.897  1.00  0.00     0.052 A 
HETATM    9  N   UNL     1       4.598  28.293  55.244  1.00  0.00    -0.356 N 
HETATM   10  H   UNL     1       4.229  27.421  54.882  1.00  0.00     0.166 HD
HETATM   11  C   UNL     1       5.630  28.365  56.155  1.00  0.00     0.043 A 
HETATM   12  C   UNL     1       5.903  29.715  56.384  1.00  0.00     0.002 A 
HETATM   13  C   UNL     1       6.336  27.338  56.786  1.00  0.00     0.033 A 
HETATM   14  C   UNL     1       7.371  27.705  57.651  1.00  0.00     0.039 A 
HETATM   15  C   UNL     1       7.697  29.043  57.871  1.00  0.00     0.070 A 
HETATM   16  C   UNL     1       6.948  30.060  57.266  1.00  0.00     0.051 A 
ENDROOT
BRANCH   1  17
HETATM   17  C   UNL     1       3.442  29.555  52.471  1.00  0.00    -0.021 A 
HETATM   18  C   UNL     1       2.874  30.330  51.447  1.00  0.00     0.012 A 
HETATM   19  C   UNL     1       3.202  30.101  50.106  1.00  0.00     0.038 A 
HETATM   20  C   UNL     1       4.104  29.095  49.755  1.00  0.00     0.076 A 
HETATM   21  C   UNL     1       4.670  28.290  50.759  1.00  0.00    -0.000 A 
HETATM   22  C   UNL     1       4.343  28.540  52.107  1.00  0.00     0.021 A 
BRANCH  20  23
HETATM   23  O   UNL     1       4.515  28.833  48.476  1.00  0.00    -0.355 OA
HETATM   24  C   UNL     1       3.757  29.384  47.406  1.00  0.00     0.210 C 
ENDBRANCH  20  23
BRANCH  21  25
HETATM   25  C   UNL     1       5.682  27.209  50.416  1.00  0.00     0.217 C 
BRANCH  25  26
HETATM   26  O   UNL     1       5.193  25.935  50.853  1.00  0.00    -0.347 OA
BRANCH  26  27
HETATM   27  C   UNL     1       5.889  25.355  51.879  1.00  0.00     0.069 A 
HETATM   28  C   UNL     1       5.157  25.121  53.043  1.00  0.00     0.039 A 
HETATM   29  C   UNL     1       5.762  24.528  54.158  1.00  0.00     0.032 A 
HETATM   30  C   UNL     1       7.115  24.171  54.130  1.00  0.00     0.034 A 
HETATM   31  C   UNL     1       7.847  24.423  52.968  1.00  0.00     0.032 A 
HETATM   32  C   UNL     1       7.239  25.011  51.851  1.00  0.00     0.039 A 
BRANCH  30  33
HETATM   33  N   UNL     1       7.655  23.575  55.287  1.00  0.00    -0.328 N 
HETATM   34  C   UNL     1       7.876  22.228  55.513  1.00  0.00     0.218 C 
HETATM   35  C   UNL     1       8.453  21.970  56.883  1.00  0.00     0.117 C 
HETATM   36  O   UNL     1       7.641  21.303  54.744  1.00  0.00    -0.274 OA
HETATM   37  H   UNL     1       7.905  24.206  56.039  1.00  0.00     0.169 HD
ENDBRANCH  30  33
ENDBRANCH  26  27
ENDBRANCH  25  26
ENDBRANCH  21  25
ENDBRANCH   1  17
BRANCH  15  38
HETATM   38  O   UNL     1       8.757  29.249  58.712  1.00  0.00    -0.347 OA
BRANCH  38  39
HETATM   39  C   UNL     1       9.216  30.599  58.824  1.00  0.00     0.214 C 
BRANCH  39  40
HETATM   40  C   UNL     1       8.810  31.160  60.165  1.00  0.00    -0.034 A 
HETATM   41  C   UNL     1       8.080  32.356  60.246  1.00  0.00     0.009 A 
HETATM   42  C   UNL     1       7.656  32.849  61.481  1.00  0.00     0.001 A 
HETATM   43  C   UNL     1       7.948  32.147  62.648  1.00  0.00     0.000 A 
HETATM   44  C   UNL     1       8.663  30.952  62.581  1.00  0.00     0.001 A 
HETATM   45  C   UNL     1       9.089  30.458  61.347  1.00  0.00     0.009 A 
ENDBRANCH  39  40
ENDBRANCH  38  39
ENDBRANCH  15  38
TORSDOF 9
ENDMDL
MODEL 9
REMARK VINA RESULT:     -10.3      3.131     11.831
REMARK  9 active torsions:
REMARK  status: ('A' for Active; 'I' for Inactive)
REMARK       I    between atoms: C_2  and  N_3 
REMARK    1  A    between atoms: N_3  and  C_4 
REMARK    2  A    between atoms: C_7  and  O_8 
REMARK    3  A    between atoms: O_8  and  C_9 
REMARK    4  A    between atoms: C_9  and  C_10 
REMARK    5  A    between atoms: C_11  and  O_12 
REMARK    6  A    between atoms: C_16  and  C_17 
REMARK    7  A    between atoms: C_31  and  O_32 
REMARK    8  A    between atoms: O_32  and  C_33 
REMARK    9  A    between atoms: C_33  and  C_34 
ROOT
HETATM    1  C   UNL     1       4.278  28.763  55.898  1.00  0.00     0.269 C 
HETATM    2  N   UNL     1       2.947  29.254  56.419  1.00  0.00    -0.061 N 
HETATM    3  H   UNL     1       2.733  28.715  57.264  1.00  0.00     0.278 HD
HETATM    4  H   UNL     1       2.227  29.035  55.723  1.00  0.00     0.278 HD
HETATM    5  C   UNL     1       2.900  30.725  56.760  1.00  0.00     0.238 C 
HETATM    6  C   UNL     1       3.904  31.071  57.874  1.00  0.00     0.069 C 
HETATM    7  C   UNL     1       5.216  30.411  57.623  1.00  0.00    -0.019 A 
HETATM    8  C   UNL     1       5.355  29.359  56.736  1.00  0.00     0.052 A 
HETATM    9  N   UNL     1       6.668  28.965  56.745  1.00  0.00    -0.356 N 
HETATM   10  H   UNL     1       7.085  28.230  56.185  1.00  0.00     0.166 HD
HETATM   11  C   UNL     1       7.381  29.755  57.621  1.00  0.00     0.043 A 
HETATM   12  C   UNL     1       6.496  30.684  58.174  1.00  0.00     0.002 A 
HETATM   13  C   UNL     1       8.736  29.715  57.957  1.00  0.00     0.033 A 
HETATM   14  C   UNL     1       9.203  30.673  58.862  1.00  0.00     0.039 A 
HETATM   15  C   UNL     1       8.355  31.639  59.403  1.00  0.00     0.070 A 
HETATM   16  C   UNL     1       6.991  31.635  59.090  1.00  0.00     0.051 A 
ENDROOT
BRANCH   1  17
HETATM   17  C   UNL     1       4.400  29.013  54.406  1.00  0.00    -0.021 A 
HETATM   18  C   UNL     1       4.002  30.253  53.881  1.00  0.00     0.012 A 
HETATM   19  C   UNL     1       4.176  30.549  52.524  1.00  0.00     0.038 A 
HETATM   20  C   UNL     1       4.751  29.617  51.659  1.00  0.00     0.076 A 
HETATM   21  C   UNL     1       5.136  28.359  52.154  1.00  0.00    -0.000 A 
HETATM   22  C   UNL     1       4.970  28.078  53.525  1.00  0.00     0.021 A 
BRANCH  20  23
HETATM   23  O   UNL     1       4.999  29.840  50.332  1.00  0.00    -0.355 OA
HETATM   24  C   UNL     1       5.868  30.912  49.987  1.00  0.00     0.210 C 
ENDBRANCH  20  23
BRANCH  21  25
HETATM   25  C   UNL     1       5.797  27.333  51.249  1.00  0.00     0.217 C 
BRANCH  25  26
HETATM   26  O   UNL     1       5.283  26.028  51.544  1.00  0.00    -0.347 OA
BRANCH  26  27
HETATM   27  C   UNL     1       6.123  25.207  52.247  1.00  0.00     0.069 A 
HETATM   28  C   UNL     1       5.634  24.756  53.473  1.00  0.00     0.039 A 
HETATM   29  C   UNL     1       6.402  23.907  54.278  1.00  0.00     0.032 A 
HETATM   30  C   UNL     1       7.681  23.507  53.876  1.00  0.00     0.034 A 
HETATM   31  C   UNL     1       8.173  23.975  52.657  1.00  0.00     0.032 A 
HETATM   32  C   UNL     1       7.401  24.819  51.848  1.00  0.00     0.039 A 
BRANCH  30  33
HETATM   33  N   UNL     1       8.396  22.649  54.736  1.00  0.00    -0.328 N 
HETATM   34  C   UNL     1       8.365  21.265  54.758  1.00  0.00     0.218 C 
HETATM   35  C   UNL     1       9.254  20.696  55.836  1.00  0.00     0.117 C 
HETATM   36  O   UNL     1       7.709  20.530  54.029  1.00  0.00    -0.274 OA
HETATM   37  H   UNL     1       8.995  23.098  55.418  1.00  0.00     0.169 HD
ENDBRANCH  30  33
ENDBRANCH  26  27
ENDBRANCH  25  26
ENDBRANCH  21  25
ENDBRANCH   1  17
BRANCH  15  38
HETATM   38  O   UNL     1       8.962  32.533  60.243  1.00  0.00    -0.347 OA
BRANCH  38  39
HETATM   39  C   UNL     1       9.095  32.121  61.607  1.00  0.00     0.214 C 
BRANCH  39  40
HETATM   40  C   UNL     1       8.063  32.829  62.451  1.00  0.00    -0.034 A 
HETATM   41  C   UNL     1       7.017  33.544  61.847  1.00  0.00     0.009 A 
HETATM   42  C   UNL     1       6.031  34.153  62.625  1.00  0.00     0.001 A 
HETATM   43  C   UNL     1       6.074  34.046  64.013  1.00  0.00     0.000 A 
HETATM   44  C   UNL     1       7.101  33.330  64.624  1.00  0.00     0.001 A 
HETATM   45  C   UNL     1       8.090  32.721  63.849  1.00  0.00     0.009 A 
ENDBRANCH  39  40
ENDBRANCH  38  39
ENDBRANCH  15  38
TORSDOF 9
ENDMDL
MODEL 10
REMARK VINA RESULT:     -10.2      2.819      4.111
REMARK  9 active torsions:
REMARK  status: ('A' for Active; 'I' for Inactive)
REMARK       I    between atoms: C_2  and  N_3 
REMARK    1  A    between atoms: N_3  and  C_4 
REMARK    2  A    between atoms: C_7  and  O_8 
REMARK    3  A    between atoms: O_8  and  C_9 
REMARK    4  A    between atoms: C_9  and  C_10 
REMARK    5  A    between atoms: C_11  and  O_12 
REMARK    6  A    between atoms: C_16  and  C_17 
REMARK    7  A    between atoms: C_31  and  O_32 
REMARK    8  A    between atoms: O_32  and  C_33 
REMARK    9  A    between atoms: C_33  and  C_34 
ROOT
HETATM    1  C   UNL     1       5.687  30.814  58.541  1.00  0.00     0.269 C 
HETATM    2  N   UNL     1       6.945  31.122  59.320  1.00  0.00    -0.061 N 
HETATM    3  H   UNL     1       6.965  30.492  60.127  1.00  0.00     0.278 HD
HETATM    4  H   UNL     1       6.877  32.081  59.679  1.00  0.00     0.278 HD
HETATM    5  C   UNL     1       8.231  30.956  58.544  1.00  0.00     0.238 C 
HETATM    6  C   UNL     1       8.414  29.502  58.074  1.00  0.00     0.069 C 
HETATM    7  C   UNL     1       7.140  28.966  57.518  1.00  0.00    -0.019 A 
HETATM    8  C   UNL     1       5.919  29.569  57.757  1.00  0.00     0.052 A 
HETATM    9  N   UNL     1       4.949  28.831  57.130  1.00  0.00    -0.356 N 
HETATM   10  H   UNL     1       3.955  29.031  57.104  1.00  0.00     0.166 HD
HETATM   11  C   UNL     1       5.529  27.763  56.481  1.00  0.00     0.043 A 
HETATM   12  C   UNL     1       6.908  27.833  56.694  1.00  0.00     0.002 A 
HETATM   13  C   UNL     1       4.936  26.750  55.724  1.00  0.00     0.033 A 
HETATM   14  C   UNL     1       5.782  25.800  55.144  1.00  0.00     0.039 A 
HETATM   15  C   UNL     1       7.166  25.863  55.304  1.00  0.00     0.070 A 
HETATM   16  C   UNL     1       7.739  26.858  56.104  1.00  0.00     0.051 A 
ENDROOT
BRANCH   1  17
HETATM   17  C   UNL     1       5.243  32.020  57.733  1.00  0.00    -0.021 A 
HETATM   18  C   UNL     1       5.152  31.916  56.336  1.00  0.00     0.012 A 
HETATM   19  C   UNL     1       4.668  32.980  55.566  1.00  0.00     0.038 A 
HETATM   20  C   UNL     1       4.262  34.171  56.171  1.00  0.00     0.076 A 
HETATM   21  C   UNL     1       4.364  34.309  57.566  1.00  0.00    -0.000 A 
HETATM   22  C   UNL     1       4.839  33.226  58.332  1.00  0.00     0.021 A 
BRANCH  20  23
HETATM   23  O   UNL     1       3.734  35.241  55.500  1.00  0.00    -0.355 OA
HETATM   24  C   UNL     1       4.560  35.907  54.552  1.00  0.00     0.210 C 
ENDBRANCH  20  23
BRANCH  21  25
HETATM   25  C   UNL     1       3.898  35.577  58.261  1.00  0.00     0.217 C 
BRANCH  25  26
HETATM   26  O   UNL     1       2.796  35.276  59.127  1.00  0.00    -0.347 OA
BRANCH  26  27
HETATM   27  C   UNL     1       3.067  35.330  60.468  1.00  0.00     0.069 A 
HETATM   28  C   UNL     1       2.221  34.575  61.281  1.00  0.00     0.039 A 
HETATM   29  C   UNL     1       2.404  34.548  62.668  1.00  0.00     0.032 A 
HETATM   30  C   UNL     1       3.428  35.290  63.267  1.00  0.00     0.034 A 
HETATM   31  C   UNL     1       4.260  36.058  62.451  1.00  0.00     0.032 A 
HETATM   32  C   UNL     1       4.081  36.078  61.061  1.00  0.00     0.039 A 
BRANCH  30  33
HETATM   33  N   UNL     1       3.554  35.213  64.669  1.00  0.00    -0.328 N 
HETATM   34  C   UNL     1       4.115  34.185  65.407  1.00  0.00     0.218 C 
HETATM   35  C   UNL     1       4.052  34.452  66.890  1.00  0.00     0.117 C 
HETATM   36  O   UNL     1       4.608  33.150  64.973  1.00  0.00    -0.274 OA
HETATM   37  H   UNL     1       3.187  35.997  65.194  1.00  0.00     0.169 HD
ENDBRANCH  30  33
ENDBRANCH  26  27
ENDBRANCH  25  26
ENDBRANCH  21  25
ENDBRANCH   1  17
BRANCH  15  38
HETATM   38  O   UNL     1       7.867  24.888  54.648  1.00  0.00    -0.347 OA
BRANCH  38  39
HETATM   39  C   UNL     1       7.085  23.913  53.952  1.00  0.00     0.214 C 
BRANCH  39  40
HETATM   40  C   UNL     1       7.701  22.547  54.138  1.00  0.00    -0.034 A 
HETATM   41  C   UNL     1       7.927  22.036  55.425  1.00  0.00     0.009 A 
HETATM   42  C   UNL     1       8.446  20.751  55.600  1.00  0.00     0.001 A 
HETATM   43  C   UNL     1       8.735  19.961  54.490  1.00  0.00     0.000 A 
HETATM   44  C   UNL     1       8.505  20.452  53.206  1.00  0.00     0.001 A 
HETATM   45  C   UNL     1       7.987  21.737  53.029  1.00  0.00     0.009 A 
ENDBRANCH  39  40
ENDBRANCH  38  39
ENDBRANCH  15  38
TORSDOF 9
ENDMDL
