MODEL 1
REMARK VINA RESULT:      -9.5      0.000      0.000
REMARK  3 active torsions:
REMARK  status: ('A' for Active; 'I' for Inactive)
REMARK    1  A    between atoms: C_10  and  C_11 
REMARK       I    between atoms: C_11  and  N_12 
REMARK    2  A    between atoms: C_14  and  O_15 
REMARK    3  A    between atoms: O_15  and  C_16 
ROOT
HETATM    1  C   UNL     1       6.516  25.664  54.609  1.00  0.00     0.255 C 
HETATM    2  N   UNL     1       6.947  26.193  55.811  1.00  0.00    -0.345 N 
HETATM    3  C   UNL     1       6.618  27.571  56.160  1.00  0.00     0.158 C 
HETATM    4  C   UNL     1       7.739  28.012  57.111  1.00  0.00     0.148 C 
HETATM    5  C   UNL     1       8.060  26.700  57.825  1.00  0.00     0.054 C 
HETATM    6  C   UNL     1       7.974  25.675  56.705  1.00  0.00     0.129 C 
HETATM    7  O   UNL     1       5.764  26.267  53.846  1.00  0.00    -0.267 OA
ENDROOT
BRANCH   1   8
HETATM    8  C   UNL     1       7.026  24.352  54.173  1.00  0.00     0.050 A 
HETATM    9  C   UNL     1       7.398  24.213  52.836  1.00  0.00     0.136 A 
HETATM   10  N   UNL     1       7.908  23.090  52.269  1.00  0.00    -0.240 NA
HETATM   11  C   UNL     1       8.006  22.072  53.146  1.00  0.00     0.155 A 
HETATM   12  N   UNL     1       8.480  20.822  52.883  1.00  0.00    -0.260 N 
HETATM   13  C   UNL     1       7.645  22.068  54.486  1.00  0.00     0.038 A 
HETATM   14  N   UNL     1       8.476  20.000  53.952  1.00  0.00    -0.177 NA
HETATM   15  H   UNL     1       8.824  20.479  51.994  1.00  0.00     0.191 HD
HETATM   16  C   UNL     1       7.959  20.756  54.932  1.00  0.00     0.065 A 
HETATM   17  C   UNL     1       7.796  20.201  56.298  1.00  0.00     0.073 C 
HETATM   18  C   UNL     1       7.110  23.248  55.026  1.00  0.00     0.036 A 
ENDBRANCH   1   8
BRANCH   4  19
HETATM   19  O   UNL     1       7.259  29.010  58.004  1.00  0.00    -0.344 OA
BRANCH  19  20
HETATM   20  C   UNL     1       8.164  29.898  58.516  1.00  0.00     0.070 A 
HETATM   21  C   UNL     1       8.124  30.469  59.788  1.00  0.00     0.060 A 
HETATM   22  C   UNL     1       9.111  31.381  60.171  1.00  0.00     0.036 A 
HETATM   23 CL   UNL     1       9.050  32.088  61.740  1.00  0.00    -0.084 Cl
HETATM   24  C   UNL     1      10.140  31.728  59.299  1.00  0.00     0.024 A 
HETATM   25  C   UNL     1      10.180  31.163  58.026  1.00  0.00     0.004 A 
HETATM   26  C   UNL     1       9.190  30.257  57.638  1.00  0.00     0.037 A 
ENDBRANCH  19  20
ENDBRANCH   4  19
TORSDOF 3
ENDMDL
MODEL 2
REMARK VINA RESULT:      -9.0      2.303      3.922
REMARK  3 active torsions:
REMARK  status: ('A' for Active; 'I' for Inactive)
REMARK    1  A    between atoms: C_10  and  C_11 
REMARK       I    between atoms: C_11  and  N_12 
REMARK    2  A    between atoms: C_14  and  O_15 
REMARK    3  A    between atoms: O_15  and  C_16 
ROOT
HETATM    1  C   UNL     1       7.228  28.151  56.830  1.00  0.00     0.255 C 
HETATM    2  N   UNL     1       8.357  28.870  57.179  1.00  0.00    -0.345 N 
HETATM    3  C   UNL     1       8.357  29.680  58.391  1.00  0.00     0.158 C 
HETATM    4  C   UNL     1       9.384  30.789  58.121  1.00  0.00     0.148 C 
HETATM    5  C   UNL     1      10.393  30.053  57.240  1.00  0.00     0.054 C 
HETATM    6  C   UNL     1       9.504  29.202  56.346  1.00  0.00     0.129 C 
HETATM    7  O   UNL     1       6.238  28.070  57.553  1.00  0.00    -0.267 OA
ENDROOT
BRANCH   1   8
HETATM    8  C   UNL     1       7.162  27.508  55.506  1.00  0.00     0.050 A 
HETATM    9  C   UNL     1       6.669  28.262  54.442  1.00  0.00     0.136 A 
HETATM   10  N   UNL     1       6.560  27.841  53.156  1.00  0.00    -0.240 NA
HETATM   11  C   UNL     1       6.968  26.568  52.997  1.00  0.00     0.155 A 
HETATM   12  N   UNL     1       6.984  25.864  51.830  1.00  0.00    -0.260 N 
HETATM   13  C   UNL     1       7.448  25.702  53.970  1.00  0.00     0.038 A 
HETATM   14  N   UNL     1       7.455  24.607  51.957  1.00  0.00    -0.177 NA
HETATM   15  H   UNL     1       6.690  26.195  50.920  1.00  0.00     0.191 HD
HETATM   16  C   UNL     1       7.732  24.502  53.266  1.00  0.00     0.065 A 
HETATM   17  C   UNL     1       8.292  23.242  53.813  1.00  0.00     0.073 C 
HETATM   18  C   UNL     1       7.531  26.177  55.289  1.00  0.00     0.036 A 
ENDBRANCH   1   8
BRANCH   4  19
HETATM   19  O   UNL     1       9.958  31.234  59.343  1.00  0.00    -0.344 OA
BRANCH  19  20
HETATM   20  C   UNL     1       9.117  31.481  60.393  1.00  0.00     0.070 A 
HETATM   21  C   UNL     1       8.134  32.470  60.441  1.00  0.00     0.060 A 
HETATM   22  C   UNL     1       7.357  32.620  61.592  1.00  0.00     0.036 A 
HETATM   23 CL   UNL     1       6.151  33.848  61.648  1.00  0.00    -0.084 Cl
HETATM   24  C   UNL     1       7.548  31.792  62.697  1.00  0.00     0.024 A 
HETATM   25  C   UNL     1       8.533  30.808  62.653  1.00  0.00     0.004 A 
HETATM   26  C   UNL     1       9.316  30.660  61.506  1.00  0.00     0.037 A 
ENDBRANCH  19  20
ENDBRANCH   4  19
TORSDOF 3
ENDMDL
MODEL 3
REMARK VINA RESULT:      -8.9      5.606      8.973
REMARK  3 active torsions:
REMARK  status: ('A' for Active; 'I' for Inactive)
REMARK    1  A    between atoms: C_10  and  C_11 
REMARK       I    between atoms: C_11  and  N_12 
REMARK    2  A    between atoms: C_14  and  O_15 
REMARK    3  A    between atoms: O_15  and  C_16 
ROOT
HETATM    1  C   UNL     1       7.637  31.413  61.566  1.00  0.00     0.255 C 
HETATM    2  N   UNL     1       6.433  32.091  61.509  1.00  0.00    -0.345 N 
HETATM    3  C   UNL     1       5.545  32.095  62.666  1.00  0.00     0.158 C 
HETATM    4  C   UNL     1       4.140  32.296  62.082  1.00  0.00     0.148 C 
HETATM    5  C   UNL     1       4.444  33.181  60.873  1.00  0.00     0.054 C 
HETATM    6  C   UNL     1       5.733  32.583  60.331  1.00  0.00     0.129 C 
HETATM    7  O   UNL     1       8.061  30.890  62.594  1.00  0.00    -0.267 OA
ENDROOT
BRANCH   1   8
HETATM    8  C   UNL     1       8.425  31.238  60.333  1.00  0.00     0.050 A 
HETATM    9  C   UNL     1       9.339  32.237  60.001  1.00  0.00     0.136 A 
HETATM   10  N   UNL     1      10.162  32.231  58.921  1.00  0.00    -0.240 NA
HETATM   11  C   UNL     1       9.993  31.136  58.154  1.00  0.00     0.155 A 
HETATM   12  N   UNL     1      10.669  30.840  57.009  1.00  0.00    -0.260 N 
HETATM   13  C   UNL     1       9.103  30.090  58.353  1.00  0.00     0.038 A 
HETATM   14  N   UNL     1      10.305  29.669  56.448  1.00  0.00    -0.177 NA
HETATM   15  H   UNL     1      11.391  31.397  56.570  1.00  0.00     0.191 HD
HETATM   16  C   UNL     1       9.342  29.212  57.262  1.00  0.00     0.065 A 
HETATM   17  C   UNL     1       8.680  27.913  56.983  1.00  0.00     0.073 C 
HETATM   18  C   UNL     1       8.263  30.145  59.477  1.00  0.00     0.036 A 
ENDBRANCH   1   8
BRANCH   4  19
HETATM   19  O   UNL     1       3.303  32.946  63.030  1.00  0.00    -0.344 OA
BRANCH  19  20
HETATM   20  C   UNL     1       3.863  33.911  63.821  1.00  0.00     0.070 A 
HETATM   21  C   UNL     1       4.570  33.694  65.004  1.00  0.00     0.060 A 
HETATM   22  C   UNL     1       5.072  34.782  65.722  1.00  0.00     0.036 A 
HETATM   23 CL   UNL     1       5.937  34.506  67.186  1.00  0.00    -0.084 Cl
HETATM   24  C   UNL     1       4.877  36.086  65.272  1.00  0.00     0.024 A 
HETATM   25  C   UNL     1       4.167  36.306  64.094  1.00  0.00     0.004 A 
HETATM   26  C   UNL     1       3.658  35.221  63.378  1.00  0.00     0.037 A 
ENDBRANCH  19  20
ENDBRANCH   4  19
TORSDOF 3
ENDMDL
MODEL 4
REMARK VINA RESULT:      -8.8      3.505      8.806
REMARK  3 active torsions:
REMARK  status: ('A' for Active; 'I' for Inactive)
REMARK    1  A    between atoms: C_10  and  C_11 
REMARK       I    between atoms: C_11  and  N_12 
REMARK    2  A    between atoms: C_14  and  O_15 
REMARK    3  A    between atoms: O_15  and  C_16 
ROOT
HETATM    1  C   UNL     1       6.665  26.590  56.981  1.00  0.00     0.255 C 
HETATM    2  N   UNL     1       6.753  26.267  55.639  1.00  0.00    -0.345 N 
HETATM    3  C   UNL     1       7.036  24.893  55.239  1.00  0.00     0.158 C 
HETATM    4  C   UNL     1       7.712  25.016  53.867  1.00  0.00     0.148 C 
HETATM    5  C   UNL     1       7.010  26.249  53.298  1.00  0.00     0.054 C 
HETATM    6  C   UNL     1       6.908  27.168  54.505  1.00  0.00     0.129 C 
HETATM    7  O   UNL     1       6.708  25.749  57.875  1.00  0.00    -0.267 OA
ENDROOT
BRANCH   1   8
HETATM    8  C   UNL     1       6.589  28.008  57.378  1.00  0.00     0.050 A 
HETATM    9  C   UNL     1       5.355  28.647  57.269  1.00  0.00     0.136 A 
HETATM   10  N   UNL     1       5.097  29.936  57.609  1.00  0.00    -0.240 NA
HETATM   11  C   UNL     1       6.193  30.575  58.061  1.00  0.00     0.155 A 
HETATM   12  N   UNL     1       6.257  31.870  58.482  1.00  0.00    -0.260 N 
HETATM   13  C   UNL     1       7.479  30.069  58.190  1.00  0.00     0.038 A 
HETATM   14  N   UNL     1       7.483  32.250  58.895  1.00  0.00    -0.177 NA
HETATM   15  H   UNL     1       5.495  32.535  58.512  1.00  0.00     0.191 HD
HETATM   16  C   UNL     1       8.235  31.154  58.711  1.00  0.00     0.065 A 
HETATM   17  C   UNL     1       9.675  31.166  59.064  1.00  0.00     0.073 C 
HETATM   18  C   UNL     1       7.702  28.735  57.814  1.00  0.00     0.036 A 
ENDBRANCH   1   8
BRANCH   4  19
HETATM   19  O   UNL     1       7.465  23.849  53.093  1.00  0.00    -0.344 OA
BRANCH  19  20
HETATM   20  C   UNL     1       7.819  22.641  53.626  1.00  0.00     0.070 A 
HETATM   21  C   UNL     1       7.955  22.352  54.984  1.00  0.00     0.060 A 
HETATM   22  C   UNL     1       8.344  21.072  55.386  1.00  0.00     0.036 A 
HETATM   23 CL   UNL     1       8.516  20.724  57.064  1.00  0.00    -0.084 Cl
HETATM   24  C   UNL     1       8.599  20.075  54.446  1.00  0.00     0.024 A 
HETATM   25  C   UNL     1       8.471  20.363  53.089  1.00  0.00     0.004 A 
HETATM   26  C   UNL     1       8.089  21.644  52.685  1.00  0.00     0.037 A 
ENDBRANCH  19  20
ENDBRANCH   4  19
TORSDOF 3
ENDMDL
MODEL 5
REMARK VINA RESULT:      -8.8      5.108      7.370
REMARK  3 active torsions:
REMARK  status: ('A' for Active; 'I' for Inactive)
REMARK    1  A    between atoms: C_10  and  C_11 
REMARK       I    between atoms: C_11  and  N_12 
REMARK    2  A    between atoms: C_14  and  O_15 
REMARK    3  A    between atoms: O_15  and  C_16 
ROOT
HETATM    1  C   UNL     1       7.416  25.821  54.750  1.00  0.00     0.255 C 
HETATM    2  N   UNL     1       6.840  26.032  53.510  1.00  0.00    -0.345 N 
HETATM    3  C   UNL     1       6.298  27.344  53.174  1.00  0.00     0.158 C 
HETATM    4  C   UNL     1       5.208  27.062  52.131  1.00  0.00     0.148 C 
HETATM    5  C   UNL     1       5.793  25.849  51.408  1.00  0.00     0.054 C 
HETATM    6  C   UNL     1       6.398  25.037  52.543  1.00  0.00     0.129 C 
HETATM    7  O   UNL     1       7.597  26.723  55.564  1.00  0.00    -0.267 OA
ENDROOT
BRANCH   1   8
HETATM    8  C   UNL     1       7.768  24.449  55.157  1.00  0.00     0.050 A 
HETATM    9  C   UNL     1       7.981  24.211  56.514  1.00  0.00     0.136 A 
HETATM   10  N   UNL     1       8.289  23.010  57.069  1.00  0.00    -0.240 NA
HETATM   11  C   UNL     1       8.395  22.033  56.149  1.00  0.00     0.155 A 
HETATM   12  N   UNL     1       8.689  20.724  56.390  1.00  0.00    -0.260 N 
HETATM   13  C   UNL     1       8.239  22.141  54.774  1.00  0.00     0.038 A 
HETATM   14  N   UNL     1       8.721  19.958  55.280  1.00  0.00    -0.177 NA
HETATM   15  H   UNL     1       8.871  20.301  57.291  1.00  0.00     0.191 HD
HETATM   16  C   UNL     1       8.454  20.822  54.290  1.00  0.00     0.065 A 
HETATM   17  C   UNL     1       8.389  20.352  52.885  1.00  0.00     0.073 C 
HETATM   18  C   UNL     1       7.934  23.404  54.243  1.00  0.00     0.036 A 
ENDBRANCH   1   8
BRANCH   4  19
HETATM   19  O   UNL     1       5.053  28.181  51.268  1.00  0.00    -0.344 OA
BRANCH  19  20
HETATM   20  C   UNL     1       3.927  28.241  50.494  1.00  0.00     0.070 A 
HETATM   21  C   UNL     1       3.754  27.634  49.250  1.00  0.00     0.060 A 
HETATM   22  C   UNL     1       2.551  27.797  48.560  1.00  0.00     0.036 A 
HETATM   23 CL   UNL     1       2.347  27.050  47.021  1.00  0.00    -0.084 Cl
HETATM   24  C   UNL     1       1.516  28.558  49.098  1.00  0.00     0.024 A 
HETATM   25  C   UNL     1       1.688  29.170  50.338  1.00  0.00     0.004 A 
HETATM   26  C   UNL     1       2.893  29.015  51.026  1.00  0.00     0.037 A 
ENDBRANCH  19  20
ENDBRANCH   4  19
TORSDOF 3
ENDMDL
MODEL 6
REMARK VINA RESULT:      -8.8      3.821      8.830
REMARK  3 active torsions:
REMARK  status: ('A' for Active; 'I' for Inactive)
REMARK    1  A    between atoms: C_10  and  C_11 
REMARK       I    between atoms: C_11  and  N_12 
REMARK    2  A    between atoms: C_14  and  O_15 
REMARK    3  A    between atoms: O_15  and  C_16 
ROOT
HETATM    1  C   UNL     1       6.869  28.849  56.270  1.00  0.00     0.255 C 
HETATM    2  N   UNL     1       7.102  27.487  56.204  1.00  0.00    -0.345 N 
HETATM    3  C   UNL     1       6.152  26.619  55.517  1.00  0.00     0.158 C 
HETATM    4  C   UNL     1       6.318  25.249  56.187  1.00  0.00     0.148 C 
HETATM    5  C   UNL     1       7.807  25.264  56.533  1.00  0.00     0.054 C 
HETATM    6  C   UNL     1       8.032  26.694  56.996  1.00  0.00     0.129 C 
HETATM    7  O   UNL     1       5.942  29.397  55.679  1.00  0.00    -0.267 OA
ENDROOT
BRANCH   1   8
HETATM    8  C   UNL     1       7.716  29.684  57.140  1.00  0.00     0.050 A 
HETATM    9  C   UNL     1       9.086  29.707  56.883  1.00  0.00     0.136 A 
HETATM   10  N   UNL     1      10.008  30.434  57.564  1.00  0.00    -0.240 NA
HETATM   11  C   UNL     1       9.460  31.146  58.568  1.00  0.00     0.155 A 
HETATM   12  N   UNL     1      10.120  31.972  59.427  1.00  0.00    -0.260 N 
HETATM   13  C   UNL     1       8.126  31.188  58.948  1.00  0.00     0.038 A 
HETATM   14  N   UNL     1       9.320  32.570  60.333  1.00  0.00    -0.177 NA
HETATM   15  H   UNL     1      11.113  32.168  59.436  1.00  0.00     0.191 HD
HETATM   16  C   UNL     1       8.101  32.087  60.048  1.00  0.00     0.065 A 
HETATM   17  C   UNL     1       6.921  32.523  60.835  1.00  0.00     0.073 C 
HETATM   18  C   UNL     1       7.210  30.410  58.223  1.00  0.00     0.036 A 
ENDBRANCH   1   8
BRANCH   4  19
HETATM   19  O   UNL     1       5.988  24.212  55.271  1.00  0.00    -0.344 OA
BRANCH  19  20
HETATM   20  C   UNL     1       6.986  23.366  54.876  1.00  0.00     0.070 A 
HETATM   21  C   UNL     1       7.585  22.380  55.661  1.00  0.00     0.060 A 
HETATM   22  C   UNL     1       8.613  21.598  55.129  1.00  0.00     0.036 A 
HETATM   23 CL   UNL     1       9.353  20.389  56.107  1.00  0.00    -0.084 Cl
HETATM   24  C   UNL     1       9.050  21.787  53.820  1.00  0.00     0.024 A 
HETATM   25  C   UNL     1       8.458  22.774  53.035  1.00  0.00     0.004 A 
HETATM   26  C   UNL     1       7.435  23.563  53.567  1.00  0.00     0.037 A 
ENDBRANCH  19  20
ENDBRANCH   4  19
TORSDOF 3
ENDMDL
MODEL 7
REMARK VINA RESULT:      -8.6      5.025     10.036
REMARK  3 active torsions:
REMARK  status: ('A' for Active; 'I' for Inactive)
REMARK    1  A    between atoms: C_10  and  C_11 
REMARK       I    between atoms: C_11  and  N_12 
REMARK    2  A    between atoms: C_14  and  O_15 
REMARK    3  A    between atoms: O_15  and  C_16 
ROOT
HETATM    1  C   UNL     1       9.384  31.231  58.747  1.00  0.00     0.255 C 
HETATM    2  N   UNL     1       8.807  30.182  58.055  1.00  0.00    -0.345 N 
HETATM    3  C   UNL     1       9.115  29.986  56.643  1.00  0.00     0.158 C 
HETATM    4  C   UNL     1       7.887  29.266  56.070  1.00  0.00     0.148 C 
HETATM    5  C   UNL     1       7.447  28.427  57.270  1.00  0.00     0.054 C 
HETATM    6  C   UNL     1       7.660  29.372  58.442  1.00  0.00     0.129 C 
HETATM    7  O   UNL     1      10.243  31.962  58.259  1.00  0.00    -0.267 OA
ENDROOT
BRANCH   1   8
HETATM    8  C   UNL     1       8.910  31.546  60.106  1.00  0.00     0.050 A 
HETATM    9  C   UNL     1       9.436  30.807  61.165  1.00  0.00     0.136 A 
HETATM   10  N   UNL     1       9.133  30.976  62.477  1.00  0.00    -0.240 NA
HETATM   11  C   UNL     1       8.222  31.949  62.672  1.00  0.00     0.155 A 
HETATM   12  N   UNL     1       7.718  32.356  63.870  1.00  0.00    -0.260 N 
HETATM   13  C   UNL     1       7.600  32.734  61.711  1.00  0.00     0.038 A 
HETATM   14  N   UNL     1       6.825  33.362  63.774  1.00  0.00    -0.177 NA
HETATM   15  H   UNL     1       7.953  31.987  64.783  1.00  0.00     0.191 HD
HETATM   16  C   UNL     1       6.744  33.590  62.454  1.00  0.00     0.065 A 
HETATM   17  C   UNL     1       5.853  34.654  61.933  1.00  0.00     0.073 C 
HETATM   18  C   UNL     1       7.935  32.515  60.365  1.00  0.00     0.036 A 
ENDBRANCH   1   8
BRANCH   4  19
HETATM   19  O   UNL     1       8.263  28.462  54.959  1.00  0.00    -0.344 OA
BRANCH  19  20
HETATM   20  C   UNL     1       7.330  27.605  54.445  1.00  0.00     0.070 A 
HETATM   21  C   UNL     1       7.480  26.227  54.288  1.00  0.00     0.060 A 
HETATM   22  C   UNL     1       6.444  25.476  53.727  1.00  0.00     0.036 A 
HETATM   23 CL   UNL     1       6.640  23.776  53.529  1.00  0.00    -0.084 Cl
HETATM   24  C   UNL     1       5.258  26.084  53.323  1.00  0.00     0.024 A 
HETATM   25  C   UNL     1       5.108  27.460  53.474  1.00  0.00     0.004 A 
HETATM   26  C   UNL     1       6.144  28.215  54.027  1.00  0.00     0.037 A 
ENDBRANCH  19  20
ENDBRANCH   4  19
TORSDOF 3
ENDMDL
MODEL 8
REMARK VINA RESULT:      -8.6      3.749      5.772
REMARK  3 active torsions:
REMARK  status: ('A' for Active; 'I' for Inactive)
REMARK    1  A    between atoms: C_10  and  C_11 
REMARK       I    between atoms: C_11  and  N_12 
REMARK    2  A    between atoms: C_14  and  O_15 
REMARK    3  A    between atoms: O_15  and  C_16 
ROOT
HETATM    1  C   UNL     1       8.718  29.736  57.692  1.00  0.00     0.255 C 
HETATM    2  N   UNL     1       7.959  30.698  58.333  1.00  0.00    -0.345 N 
HETATM    3  C   UNL     1       8.536  31.468  59.429  1.00  0.00     0.158 C 
HETATM    4  C   UNL     1       7.337  31.881  60.293  1.00  0.00     0.148 C 
HETATM    5  C   UNL     1       6.248  32.044  59.232  1.00  0.00     0.054 C 
HETATM    6  C   UNL     1       6.515  30.881  58.290  1.00  0.00     0.129 C 
HETATM    7  O   UNL     1       9.911  29.560  57.927  1.00  0.00    -0.267 OA
ENDROOT
BRANCH   1   8
HETATM    8  C   UNL     1       8.067  28.824  56.735  1.00  0.00     0.050 A 
HETATM    9  C   UNL     1       8.368  28.981  55.383  1.00  0.00     0.136 A 
HETATM   10  N   UNL     1       7.882  28.219  54.369  1.00  0.00    -0.240 NA
HETATM   11  C   UNL     1       7.029  27.272  54.804  1.00  0.00     0.155 A 
HETATM   12  N   UNL     1       6.381  26.353  54.033  1.00  0.00    -0.260 N 
HETATM   13  C   UNL     1       6.622  27.030  56.108  1.00  0.00     0.038 A 
HETATM   14  N   UNL     1       5.592  25.513  54.733  1.00  0.00    -0.177 NA
HETATM   15  H   UNL     1       6.445  26.253  53.028  1.00  0.00     0.191 HD
HETATM   16  C   UNL     1       5.731  25.929  56.001  1.00  0.00     0.065 A 
HETATM   17  C   UNL     1       5.013  25.235  57.098  1.00  0.00     0.073 C 
HETATM   18  C   UNL     1       7.141  27.851  57.122  1.00  0.00     0.036 A 
ENDBRANCH   1   8
BRANCH   4  19
HETATM   19  O   UNL     1       7.616  33.099  60.971  1.00  0.00    -0.344 OA
BRANCH  19  20
HETATM   20  C   UNL     1       7.060  33.285  62.206  1.00  0.00     0.070 A 
HETATM   21  C   UNL     1       5.808  33.844  62.466  1.00  0.00     0.060 A 
HETATM   22  C   UNL     1       5.375  33.990  63.786  1.00  0.00     0.036 A 
HETATM   23 CL   UNL     1       3.831  34.687  64.100  1.00  0.00    -0.084 Cl
HETATM   24  C   UNL     1       6.176  33.584  64.851  1.00  0.00     0.024 A 
HETATM   25  C   UNL     1       7.429  33.032  64.594  1.00  0.00     0.004 A 
HETATM   26  C   UNL     1       7.868  32.891  63.276  1.00  0.00     0.037 A 
ENDBRANCH  19  20
ENDBRANCH   4  19
TORSDOF 3
ENDMDL
MODEL 9
REMARK VINA RESULT:      -8.6      2.331      3.740
REMARK  3 active torsions:
REMARK  status: ('A' for Active; 'I' for Inactive)
REMARK    1  A    between atoms: C_10  and  C_11 
REMARK       I    between atoms: C_11  and  N_12 
REMARK    2  A    between atoms: C_14  and  O_15 
REMARK    3  A    between atoms: O_15  and  C_16 
ROOT
HETATM    1  C   UNL     1       5.972  28.485  56.243  1.00  0.00     0.255 C 
HETATM    2  N   UNL     1       6.646  29.161  57.243  1.00  0.00    -0.345 N 
HETATM    3  C   UNL     1       6.476  30.602  57.389  1.00  0.00     0.158 C 
HETATM    4  C   UNL     1       7.776  31.086  58.046  1.00  0.00     0.148 C 
HETATM    5  C   UNL     1       8.132  29.884  58.922  1.00  0.00     0.054 C 
HETATM    6  C   UNL     1       7.780  28.701  58.033  1.00  0.00     0.129 C 
HETATM    7  O   UNL     1       5.137  29.022  55.519  1.00  0.00    -0.267 OA
ENDROOT
BRANCH   1   8
HETATM    8  C   UNL     1       6.308  27.076  55.971  1.00  0.00     0.050 A 
HETATM    9  C   UNL     1       6.091  26.150  56.990  1.00  0.00     0.136 A 
HETATM   10  N   UNL     1       6.321  24.814  56.908  1.00  0.00    -0.240 NA
HETATM   11  C   UNL     1       6.819  24.452  55.711  1.00  0.00     0.155 A 
HETATM   12  N   UNL     1       7.148  23.188  55.321  1.00  0.00    -0.260 N 
HETATM   13  C   UNL     1       7.109  25.272  54.629  1.00  0.00     0.038 A 
HETATM   14  N   UNL     1       7.617  23.111  54.059  1.00  0.00    -0.177 NA
HETATM   15  H   UNL     1       7.069  22.344  55.874  1.00  0.00     0.191 HD
HETATM   16  C   UNL     1       7.602  24.383  53.635  1.00  0.00     0.065 A 
HETATM   17  C   UNL     1       8.045  24.719  52.260  1.00  0.00     0.073 C 
HETATM   18  C   UNL     1       6.868  26.648  54.763  1.00  0.00     0.036 A 
ENDBRANCH   1   8
BRANCH   4  19
HETATM   19  O   UNL     1       7.531  32.258  58.813  1.00  0.00    -0.344 OA
BRANCH  19  20
HETATM   20  C   UNL     1       7.619  32.161  60.174  1.00  0.00     0.070 A 
HETATM   21  C   UNL     1       6.551  32.198  61.071  1.00  0.00     0.060 A 
HETATM   22  C   UNL     1       6.794  32.107  62.443  1.00  0.00     0.036 A 
HETATM   23 CL   UNL     1       5.470  32.160  63.544  1.00  0.00    -0.084 Cl
HETATM   24  C   UNL     1       8.091  31.978  62.933  1.00  0.00     0.024 A 
HETATM   25  C   UNL     1       9.161  31.947  62.040  1.00  0.00     0.004 A 
HETATM   26  C   UNL     1       8.922  32.045  60.668  1.00  0.00     0.037 A 
ENDBRANCH  19  20
ENDBRANCH   4  19
TORSDOF 3
ENDMDL
MODEL 10
REMARK VINA RESULT:      -8.5      4.540      9.285
REMARK  3 active torsions:
REMARK  status: ('A' for Active; 'I' for Inactive)
REMARK    1  A    between atoms: C_10  and  C_11 
REMARK       I    between atoms: C_11  and  N_12 
REMARK    2  A    between atoms: C_14  and  O_15 
REMARK    3  A    between atoms: O_15  and  C_16 
ROOT
HETATM    1  C   UNL     1       7.463  28.805  57.816  1.00  0.00     0.255 C 
HETATM    2  N   UNL     1       6.805  27.628  57.509  1.00  0.00    -0.345 N 
HETATM    3  C   UNL     1       7.568  26.409  57.268  1.00  0.00     0.158 C 
HETATM    4  C   UNL     1       6.678  25.566  56.345  1.00  0.00     0.148 C 
HETATM    5  C   UNL     1       5.284  25.962  56.829  1.00  0.00     0.054 C 
HETATM    6  C   UNL     1       5.424  27.456  57.079  1.00  0.00     0.129 C 
HETATM    7  O   UNL     1       8.675  28.862  58.004  1.00  0.00    -0.267 OA
ENDROOT
BRANCH   1   8
HETATM    8  C   UNL     1       6.704  30.068  57.850  1.00  0.00     0.050 A 
HETATM    9  C   UNL     1       7.181  31.088  58.672  1.00  0.00     0.136 A 
HETATM   10  N   UNL     1       6.626  32.320  58.809  1.00  0.00    -0.240 NA
HETATM   11  C   UNL     1       5.513  32.466  58.064  1.00  0.00     0.155 A 
HETATM   12  N   UNL     1       4.735  33.582  57.984  1.00  0.00    -0.260 N 
HETATM   13  C   UNL     1       4.918  31.527  57.233  1.00  0.00     0.038 A 
HETATM   14  N   UNL     1       3.683  33.456  57.150  1.00  0.00    -0.177 NA
HETATM   15  H   UNL     1       4.879  34.457  58.473  1.00  0.00     0.191 HD
HETATM   16  C   UNL     1       3.787  32.198  56.695  1.00  0.00     0.065 A 
HETATM   17  C   UNL     1       2.798  31.670  55.724  1.00  0.00     0.073 C 
HETATM   18  C   UNL     1       5.520  30.262  57.132  1.00  0.00     0.036 A 
ENDBRANCH   1   8
BRANCH   4  19
HETATM   19  O   UNL     1       6.944  24.182  56.537  1.00  0.00    -0.344 OA
BRANCH  19  20
HETATM   20  C   UNL     1       7.287  23.439  55.442  1.00  0.00     0.070 A 
HETATM   21  C   UNL     1       7.794  22.139  55.459  1.00  0.00     0.060 A 
HETATM   22  C   UNL     1       8.120  21.506  54.257  1.00  0.00     0.036 A 
HETATM   23 CL   UNL     1       8.752  19.904  54.286  1.00  0.00    -0.084 Cl
HETATM   24  C   UNL     1       7.945  22.155  53.037  1.00  0.00     0.024 A 
HETATM   25  C   UNL     1       7.445  23.455  53.018  1.00  0.00     0.004 A 
HETATM   26  C   UNL     1       7.125  24.093  54.218  1.00  0.00     0.037 A 
ENDBRANCH  19  20
ENDBRANCH   4  19
TORSDOF 3
ENDMDL
