MODEL 1
REMARK VINA RESULT:     -10.4      0.000      0.000
REMARK  7 active torsions:
REMARK  status: ('A' for Active; 'I' for Inactive)
REMARK    1  A    between atoms: C_6  and  O_7 
REMARK    2  A    between atoms: O_7  and  C_8 
REMARK    3  A    between atoms: C_8  and  C_9 
REMARK       I    between atoms: C_9  and  N_10 
REMARK    4  A    between atoms: N_10  and  C_11 
REMARK    5  A    between atoms: C_14  and  N_15 
REMARK    6  A    between atoms: N_18  and  C_20 
REMARK    7  A    between atoms: C_20  and  C_21 
ROOT
HETATM    1  C   UNL     1       6.885  28.826  56.523  1.00  0.00     0.034 A 
HETATM    2  C   UNL     1       6.084  29.962  56.645  1.00  0.00     0.032 A 
HETATM    3  C   UNL     1       6.276  30.862  57.704  1.00  0.00     0.031 A 
HETATM    4  C   UNL     1       7.260  30.649  58.681  1.00  0.00     0.030 A 
HETATM    5  C   UNL     1       8.092  29.540  58.509  1.00  0.00     0.031 A 
HETATM    6  C   UNL     1       7.914  28.643  57.446  1.00  0.00     0.032 A 
ENDROOT
BRANCH   1   7
HETATM    7  N   UNL     1       6.560  27.894  55.519  1.00  0.00    -0.325 N 
HETATM    8  C   UNL     1       7.244  27.666  54.337  1.00  0.00     0.246 C 
HETATM    9  O   UNL     1       8.150  28.359  53.879  1.00  0.00    -0.271 OA
HETATM   10  H   UNL     1       5.775  27.270  55.687  1.00  0.00     0.169 HD
BRANCH   8  11
HETATM   11  C   UNL     1       6.853  26.358  53.648  1.00  0.00     0.278 C 
BRANCH  11  12
HETATM   12  O   UNL     1       7.973  25.551  53.295  1.00  0.00    -0.342 OA
BRANCH  12  13
HETATM   13  C   UNL     1       7.946  24.283  53.821  1.00  0.00     0.069 A 
HETATM   14  C   UNL     1       8.063  23.104  53.081  1.00  0.00     0.044 A 
HETATM   15  C   UNL     1       8.021  21.844  53.707  1.00  0.00    -0.053 A 
HETATM   16  C   UNL     1       7.832  21.772  55.100  1.00  0.00    -0.056 A 
HETATM   17  C   UNL     1       8.129  20.606  52.858  1.00  0.00     0.049 C 
HETATM   18  C   UNL     1       7.747  20.451  55.816  1.00  0.00     0.049 C 
HETATM   19  C   UNL     1       7.753  22.962  55.840  1.00  0.00     0.010 A 
HETATM   20  C   UNL     1       7.817  24.205  55.205  1.00  0.00     0.037 A 
ENDBRANCH  12  13
ENDBRANCH  11  12
ENDBRANCH   8  11
ENDBRANCH   1   7
BRANCH   4  21
HETATM   21  N   UNL     1       7.313  31.466  59.805  1.00  0.00    -0.378 N 
HETATM   22  C   UNL     1       8.609  31.979  60.266  1.00  0.00     0.150 C 
HETATM   23  C   UNL     1       8.556  32.165  61.796  1.00  0.00     0.255 C 
HETATM   24  N   UNL     1       7.377  33.054  62.212  1.00  0.00    -0.064 N 
HETATM   25  H   UNL     1       7.575  33.993  61.849  1.00  0.00     0.280 HD
HETATM   26  C   UNL     1       6.056  32.576  61.596  1.00  0.00     0.255 C 
HETATM   27  C   UNL     1       6.172  32.351  60.073  1.00  0.00     0.150 C 
BRANCH  24  28
HETATM   28  C   UNL     1       7.241  33.162  63.715  1.00  0.00     0.273 C 
BRANCH  28  29
HETATM   29  C   UNL     1       6.082  34.005  64.171  1.00  0.00    -0.033 A 
HETATM   30  C   UNL     1       5.982  35.354  63.799  1.00  0.00     0.009 A 
HETATM   31  C   UNL     1       4.915  36.131  64.249  1.00  0.00     0.001 A 
HETATM   32  C   UNL     1       3.940  35.574  65.074  1.00  0.00     0.000 A 
HETATM   33  C   UNL     1       4.027  34.236  65.450  1.00  0.00     0.001 A 
HETATM   34  C   UNL     1       5.090  33.453  65.001  1.00  0.00     0.009 A 
ENDBRANCH  28  29
ENDBRANCH  24  28
ENDBRANCH   4  21
TORSDOF 7
ENDMDL
MODEL 2
REMARK VINA RESULT:     -10.4      0.527      1.234
REMARK  7 active torsions:
REMARK  status: ('A' for Active; 'I' for Inactive)
REMARK    1  A    between atoms: C_6  and  O_7 
REMARK    2  A    between atoms: O_7  and  C_8 
REMARK    3  A    between atoms: C_8  and  C_9 
REMARK       I    between atoms: C_9  and  N_10 
REMARK    4  A    between atoms: N_10  and  C_11 
REMARK    5  A    between atoms: C_14  and  N_15 
REMARK    6  A    between atoms: N_18  and  C_20 
REMARK    7  A    between atoms: C_20  and  C_21 
ROOT
HETATM    1  C   UNL     1       7.083  28.911  56.717  1.00  0.00     0.034 A 
HETATM    2  C   UNL     1       6.195  29.979  56.849  1.00  0.00     0.032 A 
HETATM    3  C   UNL     1       6.318  30.883  57.915  1.00  0.00     0.031 A 
HETATM    4  C   UNL     1       7.320  30.742  58.887  1.00  0.00     0.030 A 
HETATM    5  C   UNL     1       8.237  29.704  58.704  1.00  0.00     0.031 A 
HETATM    6  C   UNL     1       8.126  28.804  57.635  1.00  0.00     0.032 A 
ENDROOT
BRANCH   1   7
HETATM    7  N   UNL     1       6.830  27.964  55.706  1.00  0.00    -0.325 N 
HETATM    8  C   UNL     1       7.520  27.805  54.517  1.00  0.00     0.246 C 
HETATM    9  O   UNL     1       8.360  28.576  54.058  1.00  0.00    -0.271 OA
HETATM   10  H   UNL     1       6.102  27.274  55.875  1.00  0.00     0.169 HD
BRANCH   8  11
HETATM   11  C   UNL     1       7.235  26.474  53.819  1.00  0.00     0.278 C 
BRANCH  11  12
HETATM   12  O   UNL     1       6.739  25.472  54.702  1.00  0.00    -0.342 OA
BRANCH  12  13
HETATM   13  C   UNL     1       7.173  24.201  54.416  1.00  0.00     0.069 A 
HETATM   14  C   UNL     1       7.294  23.165  55.346  1.00  0.00     0.044 A 
HETATM   15  C   UNL     1       7.751  21.891  54.962  1.00  0.00    -0.053 A 
HETATM   16  C   UNL     1       8.118  21.665  53.622  1.00  0.00    -0.056 A 
HETATM   17  C   UNL     1       7.884  20.820  56.010  1.00  0.00     0.049 C 
HETATM   18  C   UNL     1       8.644  20.332  53.163  1.00  0.00     0.049 C 
HETATM   19  C   UNL     1       7.957  22.699  52.687  1.00  0.00     0.010 A 
HETATM   20  C   UNL     1       7.482  23.954  53.081  1.00  0.00     0.037 A 
ENDBRANCH  12  13
ENDBRANCH  11  12
ENDBRANCH   8  11
ENDBRANCH   1   7
BRANCH   4  21
HETATM   21  N   UNL     1       7.312  31.553  60.017  1.00  0.00    -0.378 N 
HETATM   22  C   UNL     1       8.569  32.141  60.495  1.00  0.00     0.150 C 
HETATM   23  C   UNL     1       8.491  32.312  62.025  1.00  0.00     0.255 C 
HETATM   24  N   UNL     1       7.255  33.123  62.436  1.00  0.00    -0.064 N 
HETATM   25  H   UNL     1       7.398  34.075  62.082  1.00  0.00     0.280 HD
HETATM   26  C   UNL     1       5.972  32.569  61.804  1.00  0.00     0.255 C 
HETATM   27  C   UNL     1       6.116  32.363  60.281  1.00  0.00     0.150 C 
BRANCH  24  28
HETATM   28  C   UNL     1       7.099  33.212  63.938  1.00  0.00     0.273 C 
BRANCH  28  29
HETATM   29  C   UNL     1       5.987  34.117  64.391  1.00  0.00    -0.033 A 
HETATM   30  C   UNL     1       5.928  35.453  63.967  1.00  0.00     0.009 A 
HETATM   31  C   UNL     1       4.905  36.289  64.414  1.00  0.00     0.001 A 
HETATM   32  C   UNL     1       3.934  35.804  65.288  1.00  0.00     0.000 A 
HETATM   33  C   UNL     1       3.980  34.480  65.715  1.00  0.00     0.001 A 
HETATM   34  C   UNL     1       4.999  33.638  65.270  1.00  0.00     0.009 A 
ENDBRANCH  28  29
ENDBRANCH  24  28
ENDBRANCH   4  21
TORSDOF 7
ENDMDL
MODEL 3
REMARK VINA RESULT:     -10.2      2.382     11.830
REMARK  7 active torsions:
REMARK  status: ('A' for Active; 'I' for Inactive)
REMARK    1  A    between atoms: C_6  and  O_7 
REMARK    2  A    between atoms: O_7  and  C_8 
REMARK    3  A    between atoms: C_8  and  C_9 
REMARK       I    between atoms: C_9  and  N_10 
REMARK    4  A    between atoms: N_10  and  C_11 
REMARK    5  A    between atoms: C_14  and  N_15 
REMARK    6  A    between atoms: N_18  and  C_20 
REMARK    7  A    between atoms: C_20  and  C_21 
ROOT
HETATM    1  C   UNL     1       8.065  30.107  58.407  1.00  0.00     0.034 A 
HETATM    2  C   UNL     1       8.979  29.232  57.818  1.00  0.00     0.032 A 
HETATM    3  C   UNL     1       8.611  28.452  56.712  1.00  0.00     0.031 A 
HETATM    4  C   UNL     1       7.319  28.508  56.169  1.00  0.00     0.030 A 
HETATM    5  C   UNL     1       6.437  29.434  56.731  1.00  0.00     0.031 A 
HETATM    6  C   UNL     1       6.801  30.225  57.830  1.00  0.00     0.032 A 
ENDROOT
BRANCH   1   7
HETATM    7  N   UNL     1       8.449  30.764  59.592  1.00  0.00    -0.325 N 
HETATM    8  C   UNL     1       9.277  31.867  59.704  1.00  0.00     0.246 C 
HETATM    9  O   UNL     1       9.961  32.354  58.808  1.00  0.00    -0.271 OA
HETATM   10  H   UNL     1       8.037  30.445  60.465  1.00  0.00     0.169 HD
BRANCH   8  11
HETATM   11  C   UNL     1       9.201  32.549  61.072  1.00  0.00     0.278 C 
BRANCH  11  12
HETATM   12  O   UNL     1       8.728  31.687  62.104  1.00  0.00    -0.342 OA
BRANCH  12  13
HETATM   13  C   UNL     1       7.712  32.216  62.861  1.00  0.00     0.069 A 
HETATM   14  C   UNL     1       7.880  32.879  64.080  1.00  0.00     0.044 A 
HETATM   15  C   UNL     1       6.777  33.389  64.790  1.00  0.00    -0.053 A 
HETATM   16  C   UNL     1       5.481  33.203  64.276  1.00  0.00    -0.056 A 
HETATM   17  C   UNL     1       7.015  34.073  66.109  1.00  0.00     0.049 C 
HETATM   18  C   UNL     1       4.264  33.697  65.009  1.00  0.00     0.049 C 
HETATM   19  C   UNL     1       5.324  32.569  63.033  1.00  0.00     0.010 A 
HETATM   20  C   UNL     1       6.432  32.087  62.330  1.00  0.00     0.037 A 
ENDBRANCH  12  13
ENDBRANCH  11  12
ENDBRANCH   8  11
ENDBRANCH   1   7
BRANCH   4  21
HETATM   21  N   UNL     1       6.938  27.604  55.183  1.00  0.00    -0.378 N 
HETATM   22  C   UNL     1       5.539  27.165  55.105  1.00  0.00     0.150 C 
HETATM   23  C   UNL     1       5.495  25.731  54.543  1.00  0.00     0.255 C 
HETATM   24  N   UNL     1       6.231  25.633  53.199  1.00  0.00    -0.064 N 
HETATM   25  H   UNL     1       5.687  26.185  52.527  1.00  0.00     0.280 HD
HETATM   26  C   UNL     1       7.641  26.231  53.276  1.00  0.00     0.255 C 
HETATM   27  C   UNL     1       7.641  27.645  53.895  1.00  0.00     0.150 C 
BRANCH  24  28
HETATM   28  C   UNL     1       6.295  24.213  52.681  1.00  0.00     0.273 C 
BRANCH  28  29
HETATM   29  C   UNL     1       7.180  23.301  53.486  1.00  0.00    -0.033 A 
HETATM   30  C   UNL     1       8.034  22.385  52.854  1.00  0.00     0.009 A 
HETATM   31  C   UNL     1       8.832  21.529  53.613  1.00  0.00     0.001 A 
HETATM   32  C   UNL     1       8.785  21.575  55.005  1.00  0.00     0.000 A 
HETATM   33  C   UNL     1       7.942  22.481  55.644  1.00  0.00     0.001 A 
HETATM   34  C   UNL     1       7.144  23.342  54.891  1.00  0.00     0.009 A 
ENDBRANCH  28  29
ENDBRANCH  24  28
ENDBRANCH   4  21
TORSDOF 7
ENDMDL
MODEL 4
REMARK VINA RESULT:     -10.0      1.469      2.235
REMARK  7 active torsions:
REMARK  status: ('A' for Active; 'I' for Inactive)
REMARK    1  A    between atoms: C_6  and  O_7 
REMARK    2  A    between atoms: O_7  and  C_8 
REMARK    3  A    between atoms: C_8  and  C_9 
REMARK       I    between atoms: C_9  and  N_10 
REMARK    4  A    between atoms: N_10  and  C_11 
REMARK    5  A    between atoms: C_14  and  N_15 
REMARK    6  A    between atoms: N_18  and  C_20 
REMARK    7  A    between atoms: C_20  and  C_21 
ROOT
HETATM    1  C   UNL     1       7.658  29.402  57.377  1.00  0.00     0.034 A 
HETATM    2  C   UNL     1       6.411  30.029  57.379  1.00  0.00     0.032 A 
HETATM    3  C   UNL     1       6.081  30.964  58.372  1.00  0.00     0.031 A 
HETATM    4  C   UNL     1       6.977  31.291  59.400  1.00  0.00     0.030 A 
HETATM    5  C   UNL     1       8.243  30.701  59.347  1.00  0.00     0.031 A 
HETATM    6  C   UNL     1       8.583  29.774  58.352  1.00  0.00     0.032 A 
ENDROOT
BRANCH   1   7
HETATM    7  N   UNL     1       7.881  28.378  56.437  1.00  0.00    -0.325 N 
HETATM    8  C   UNL     1       7.874  27.014  56.669  1.00  0.00     0.246 C 
HETATM    9  O   UNL     1       7.848  26.466  57.769  1.00  0.00    -0.271 OA
HETATM   10  H   UNL     1       8.004  28.648  55.464  1.00  0.00     0.169 HD
BRANCH   8  11
HETATM   11  C   UNL     1       7.787  26.178  55.391  1.00  0.00     0.278 C 
BRANCH  11  12
HETATM   12  O   UNL     1       6.798  25.154  55.456  1.00  0.00    -0.342 OA
BRANCH  12  13
HETATM   13  C   UNL     1       7.184  23.959  54.902  1.00  0.00     0.069 A 
HETATM   14  C   UNL     1       7.419  22.781  55.616  1.00  0.00     0.044 A 
HETATM   15  C   UNL     1       7.816  21.599  54.963  1.00  0.00    -0.053 A 
HETATM   16  C   UNL     1       8.005  21.612  53.569  1.00  0.00    -0.056 A 
HETATM   17  C   UNL     1       8.077  20.366  55.786  1.00  0.00     0.049 C 
HETATM   18  C   UNL     1       8.460  20.387  52.824  1.00  0.00     0.049 C 
HETATM   19  C   UNL     1       7.731  22.789  52.854  1.00  0.00     0.010 A 
HETATM   20  C   UNL     1       7.318  23.949  53.516  1.00  0.00     0.037 A 
ENDBRANCH  12  13
ENDBRANCH  11  12
ENDBRANCH   8  11
ENDBRANCH   1   7
BRANCH   4  21
HETATM   21  N   UNL     1       6.560  32.092  60.458  1.00  0.00    -0.378 N 
HETATM   22  C   UNL     1       5.205  32.656  60.447  1.00  0.00     0.150 C 
HETATM   23  C   UNL     1       5.219  34.001  61.201  1.00  0.00     0.255 C 
HETATM   24  N   UNL     1       5.793  33.845  62.616  1.00  0.00    -0.064 N 
HETATM   25  H   UNL     1       5.127  33.267  63.140  1.00  0.00     0.280 HD
HETATM   26  C   UNL     1       7.145  33.121  62.606  1.00  0.00     0.255 C 
HETATM   27  C   UNL     1       7.097  31.808  61.795  1.00  0.00     0.150 C 
BRANCH  24  28
HETATM   28  C   UNL     1       5.917  35.170  63.336  1.00  0.00     0.273 C 
BRANCH  28  29
HETATM   29  C   UNL     1       5.425  35.149  64.757  1.00  0.00    -0.033 A 
HETATM   30  C   UNL     1       4.373  35.981  65.167  1.00  0.00     0.009 A 
HETATM   31  C   UNL     1       3.943  35.969  66.494  1.00  0.00     0.001 A 
HETATM   32  C   UNL     1       4.556  35.131  67.423  1.00  0.00     0.000 A 
HETATM   33  C   UNL     1       5.600  34.299  67.028  1.00  0.00     0.001 A 
HETATM   34  C   UNL     1       6.033  34.304  65.703  1.00  0.00     0.009 A 
ENDBRANCH  28  29
ENDBRANCH  24  28
ENDBRANCH   4  21
TORSDOF 7
ENDMDL
MODEL 5
REMARK VINA RESULT:      -9.7      2.962     11.861
REMARK  7 active torsions:
REMARK  status: ('A' for Active; 'I' for Inactive)
REMARK    1  A    between atoms: C_6  and  O_7 
REMARK    2  A    between atoms: O_7  and  C_8 
REMARK    3  A    between atoms: C_8  and  C_9 
REMARK       I    between atoms: C_9  and  N_10 
REMARK    4  A    between atoms: N_10  and  C_11 
REMARK    5  A    between atoms: C_14  and  N_15 
REMARK    6  A    between atoms: N_18  and  C_20 
REMARK    7  A    between atoms: C_20  and  C_21 
ROOT
HETATM    1  C   UNL     1       5.078  32.318  57.879  1.00  0.00     0.034 A 
HETATM    2  C   UNL     1       6.107  31.553  58.428  1.00  0.00     0.032 A 
HETATM    3  C   UNL     1       6.615  30.439  57.742  1.00  0.00     0.031 A 
HETATM    4  C   UNL     1       6.102  30.046  56.497  1.00  0.00     0.030 A 
HETATM    5  C   UNL     1       5.115  30.859  55.934  1.00  0.00     0.031 A 
HETATM    6  C   UNL     1       4.611  31.980  56.609  1.00  0.00     0.032 A 
ENDROOT
BRANCH   1   7
HETATM    7  N   UNL     1       4.521  33.341  58.670  1.00  0.00    -0.325 N 
HETATM    8  C   UNL     1       3.540  33.209  59.637  1.00  0.00     0.246 C 
HETATM    9  O   UNL     1       2.859  32.208  59.847  1.00  0.00    -0.271 OA
HETATM   10  H   UNL     1       4.911  34.276  58.579  1.00  0.00     0.169 HD
BRANCH   8  11
HETATM   11  C   UNL     1       3.421  34.427  60.556  1.00  0.00     0.278 C 
BRANCH  11  12
HETATM   12  O   UNL     1       4.662  35.097  60.763  1.00  0.00    -0.342 OA
BRANCH  12  13
HETATM   13  C   UNL     1       5.305  34.751  61.925  1.00  0.00     0.069 A 
HETATM   14  C   UNL     1       6.318  33.793  62.028  1.00  0.00     0.044 A 
HETATM   15  C   UNL     1       6.920  33.500  63.266  1.00  0.00    -0.053 A 
HETATM   16  C   UNL     1       6.476  34.165  64.424  1.00  0.00    -0.056 A 
HETATM   17  C   UNL     1       7.990  32.443  63.322  1.00  0.00     0.049 C 
HETATM   18  C   UNL     1       7.062  33.868  65.777  1.00  0.00     0.049 C 
HETATM   19  C   UNL     1       5.485  35.152  64.305  1.00  0.00     0.010 A 
HETATM   20  C   UNL     1       4.911  35.446  63.065  1.00  0.00     0.037 A 
ENDBRANCH  12  13
ENDBRANCH  11  12
ENDBRANCH   8  11
ENDBRANCH   1   7
BRANCH   4  21
HETATM   21  N   UNL     1       6.509  28.846  55.924  1.00  0.00    -0.378 N 
HETATM   22  C   UNL     1       7.847  28.747  55.327  1.00  0.00     0.150 C 
HETATM   23  C   UNL     1       7.804  27.727  54.172  1.00  0.00     0.255 C 
HETATM   24  N   UNL     1       7.253  26.373  54.640  1.00  0.00    -0.064 N 
HETATM   25  H   UNL     1       7.943  25.986  55.294  1.00  0.00     0.280 HD
HETATM   26  C   UNL     1       5.923  26.525  55.388  1.00  0.00     0.255 C 
HETATM   27  C   UNL     1       5.999  27.595  56.498  1.00  0.00     0.150 C 
BRANCH  24  28
HETATM   28  C   UNL     1       7.100  25.389  53.500  1.00  0.00     0.273 C 
BRANCH  28  29
HETATM   29  C   UNL     1       7.675  24.028  53.778  1.00  0.00    -0.033 A 
HETATM   30  C   UNL     1       8.397  23.778  54.954  1.00  0.00     0.009 A 
HETATM   31  C   UNL     1       8.946  22.516  55.188  1.00  0.00     0.001 A 
HETATM   32  C   UNL     1       8.782  21.496  54.254  1.00  0.00     0.000 A 
HETATM   33  C   UNL     1       8.067  21.731  53.083  1.00  0.00     0.001 A 
HETATM   34  C   UNL     1       7.514  22.989  52.844  1.00  0.00     0.009 A 
ENDBRANCH  28  29
ENDBRANCH  24  28
ENDBRANCH   4  21
TORSDOF 7
ENDMDL
MODEL 6
REMARK VINA RESULT:      -9.6      2.950     12.211
REMARK  7 active torsions:
REMARK  status: ('A' for Active; 'I' for Inactive)
REMARK    1  A    between atoms: C_6  and  O_7 
REMARK    2  A    between atoms: O_7  and  C_8 
REMARK    3  A    between atoms: C_8  and  C_9 
REMARK       I    between atoms: C_9  and  N_10 
REMARK    4  A    between atoms: N_10  and  C_11 
REMARK    5  A    between atoms: C_14  and  N_15 
REMARK    6  A    between atoms: N_18  and  C_20 
REMARK    7  A    between atoms: C_20  and  C_21 
ROOT
HETATM    1  C   UNL     1       5.267  31.383  58.177  1.00  0.00     0.034 A 
HETATM    2  C   UNL     1       6.568  30.945  58.422  1.00  0.00     0.032 A 
HETATM    3  C   UNL     1       7.024  29.726  57.897  1.00  0.00     0.031 A 
HETATM    4  C   UNL     1       6.192  28.902  57.125  1.00  0.00     0.030 A 
HETATM    5  C   UNL     1       4.913  29.385  56.837  1.00  0.00     0.031 A 
HETATM    6  C   UNL     1       4.456  30.608  57.349  1.00  0.00     0.032 A 
ENDROOT
BRANCH   1   7
HETATM    7  N   UNL     1       4.826  32.546  58.838  1.00  0.00    -0.325 N 
HETATM    8  C   UNL     1       3.716  32.672  59.655  1.00  0.00     0.246 C 
HETATM    9  O   UNL     1       2.826  31.839  59.802  1.00  0.00    -0.271 OA
HETATM   10  H   UNL     1       5.405  33.379  58.768  1.00  0.00     0.169 HD
BRANCH   8  11
HETATM   11  C   UNL     1       3.723  33.949  60.498  1.00  0.00     0.278 C 
BRANCH  11  12
HETATM   12  O   UNL     1       4.980  34.206  61.118  1.00  0.00    -0.342 OA
BRANCH  12  13
HETATM   13  C   UNL     1       4.948  34.183  62.491  1.00  0.00     0.069 A 
HETATM   14  C   UNL     1       6.061  34.006  63.317  1.00  0.00     0.044 A 
HETATM   15  C   UNL     1       5.933  33.995  64.719  1.00  0.00    -0.053 A 
HETATM   16  C   UNL     1       4.658  34.137  65.296  1.00  0.00    -0.056 A 
HETATM   17  C   UNL     1       7.163  33.777  65.559  1.00  0.00     0.049 C 
HETATM   18  C   UNL     1       4.459  34.099  66.787  1.00  0.00     0.049 C 
HETATM   19  C   UNL     1       3.551  34.352  64.460  1.00  0.00     0.010 A 
HETATM   20  C   UNL     1       3.698  34.382  63.071  1.00  0.00     0.037 A 
ENDBRANCH  12  13
ENDBRANCH  11  12
ENDBRANCH   8  11
ENDBRANCH   1   7
BRANCH   4  21
HETATM   21  N   UNL     1       6.618  27.628  56.761  1.00  0.00    -0.378 N 
HETATM   22  C   UNL     1       5.956  26.934  55.650  1.00  0.00     0.150 C 
HETATM   23  C   UNL     1       6.017  25.415  55.904  1.00  0.00     0.255 C 
HETATM   24  N   UNL     1       7.459  24.942  56.134  1.00  0.00    -0.064 N 
HETATM   25  H   UNL     1       7.954  25.070  55.244  1.00  0.00     0.280 HD
HETATM   26  C   UNL     1       8.171  25.781  57.201  1.00  0.00     0.255 C 
HETATM   27  C   UNL     1       8.037  27.296  56.934  1.00  0.00     0.150 C 
BRANCH  24  28
HETATM   28  C   UNL     1       7.532  23.473  56.492  1.00  0.00     0.273 C 
BRANCH  28  29
HETATM   29  C   UNL     1       7.751  22.561  55.316  1.00  0.00    -0.033 A 
HETATM   30  C   UNL     1       7.664  23.046  54.003  1.00  0.00     0.009 A 
HETATM   31  C   UNL     1       7.846  22.184  52.921  1.00  0.00     0.001 A 
HETATM   32  C   UNL     1       8.113  20.834  53.137  1.00  0.00     0.000 A 
HETATM   33  C   UNL     1       8.204  20.341  54.436  1.00  0.00     0.001 A 
HETATM   34  C   UNL     1       8.025  21.198  55.521  1.00  0.00     0.009 A 
ENDBRANCH  28  29
ENDBRANCH  24  28
ENDBRANCH   4  21
TORSDOF 7
ENDMDL
MODEL 7
REMARK VINA RESULT:      -9.5      3.402     12.182
REMARK  7 active torsions:
REMARK  status: ('A' for Active; 'I' for Inactive)
REMARK    1  A    between atoms: C_6  and  O_7 
REMARK    2  A    between atoms: O_7  and  C_8 
REMARK    3  A    between atoms: C_8  and  C_9 
REMARK       I    between atoms: C_9  and  N_10 
REMARK    4  A    between atoms: N_10  and  C_11 
REMARK    5  A    between atoms: C_14  and  N_15 
REMARK    6  A    between atoms: N_18  and  C_20 
REMARK    7  A    between atoms: C_20  and  C_21 
ROOT
HETATM    1  C   UNL     1       8.104  29.761  58.408  1.00  0.00     0.034 A 
HETATM    2  C   UNL     1       6.875  30.171  57.891  1.00  0.00     0.032 A 
HETATM    3  C   UNL     1       6.377  29.613  56.703  1.00  0.00     0.031 A 
HETATM    4  C   UNL     1       7.095  28.642  55.990  1.00  0.00     0.030 A 
HETATM    5  C   UNL     1       8.293  28.198  56.555  1.00  0.00     0.031 A 
HETATM    6  C   UNL     1       8.791  28.743  57.747  1.00  0.00     0.032 A 
ENDROOT
BRANCH   1   7
HETATM    7  N   UNL     1       8.612  30.449  59.527  1.00  0.00    -0.325 N 
HETATM    8  C   UNL     1       9.410  31.580  59.520  1.00  0.00     0.246 C 
HETATM    9  O   UNL     1       9.957  32.076  58.538  1.00  0.00    -0.271 OA
HETATM   10  H   UNL     1       8.326  30.131  60.449  1.00  0.00     0.169 HD
BRANCH   8  11
HETATM   11  C   UNL     1       9.483  32.282  60.878  1.00  0.00     0.278 C 
BRANCH  11  12
HETATM   12  O   UNL     1       8.615  31.711  61.853  1.00  0.00    -0.342 OA
BRANCH  12  13
HETATM   13  C   UNL     1       7.781  32.613  62.465  1.00  0.00     0.069 A 
HETATM   14  C   UNL     1       6.807  33.376  61.815  1.00  0.00     0.044 A 
HETATM   15  C   UNL     1       5.997  34.281  62.526  1.00  0.00    -0.053 A 
HETATM   16  C   UNL     1       6.189  34.439  63.911  1.00  0.00    -0.056 A 
HETATM   17  C   UNL     1       4.980  35.094  61.770  1.00  0.00     0.049 C 
HETATM   18  C   UNL     1       5.373  35.415  64.714  1.00  0.00     0.049 C 
HETATM   19  C   UNL     1       7.143  33.641  64.562  1.00  0.00     0.010 A 
HETATM   20  C   UNL     1       7.926  32.732  63.845  1.00  0.00     0.037 A 
ENDBRANCH  12  13
ENDBRANCH  11  12
ENDBRANCH   8  11
ENDBRANCH   1   7
BRANCH   4  21
HETATM   21  N   UNL     1       6.654  28.233  54.735  1.00  0.00    -0.378 N 
HETATM   22  C   UNL     1       5.454  28.848  54.154  1.00  0.00     0.150 C 
HETATM   23  C   UNL     1       4.755  27.817  53.246  1.00  0.00     0.255 C 
HETATM   24  N   UNL     1       5.716  27.258  52.188  1.00  0.00    -0.064 N 
HETATM   25  H   UNL     1       5.943  28.037  51.559  1.00  0.00     0.280 HD
HETATM   26  C   UNL     1       7.023  26.755  52.813  1.00  0.00     0.255 C 
HETATM   27  C   UNL     1       7.658  27.799  53.755  1.00  0.00     0.150 C 
BRANCH  24  28
HETATM   28  C   UNL     1       5.082  26.166  51.355  1.00  0.00     0.273 C 
BRANCH  28  29
HETATM   29  C   UNL     1       4.722  26.586  49.956  1.00  0.00    -0.033 A 
HETATM   30  C   UNL     1       4.014  25.725  49.106  1.00  0.00     0.009 A 
HETATM   31  C   UNL     1       3.708  26.118  47.803  1.00  0.00     0.001 A 
HETATM   32  C   UNL     1       4.104  27.370  47.336  1.00  0.00     0.000 A 
HETATM   33  C   UNL     1       4.806  28.235  48.171  1.00  0.00     0.001 A 
HETATM   34  C   UNL     1       5.113  27.848  49.475  1.00  0.00     0.009 A 
ENDBRANCH  28  29
ENDBRANCH  24  28
ENDBRANCH   4  21
TORSDOF 7
ENDMDL
MODEL 8
REMARK VINA RESULT:      -9.2      1.668      2.109
REMARK  7 active torsions:
REMARK  status: ('A' for Active; 'I' for Inactive)
REMARK    1  A    between atoms: C_6  and  O_7 
REMARK    2  A    between atoms: O_7  and  C_8 
REMARK    3  A    between atoms: C_8  and  C_9 
REMARK       I    between atoms: C_9  and  N_10 
REMARK    4  A    between atoms: N_10  and  C_11 
REMARK    5  A    between atoms: C_14  and  N_15 
REMARK    6  A    between atoms: N_18  and  C_20 
REMARK    7  A    between atoms: C_20  and  C_21 
ROOT
HETATM    1  C   UNL     1       6.412  28.778  56.261  1.00  0.00     0.034 A 
HETATM    2  C   UNL     1       5.388  29.697  56.029  1.00  0.00     0.032 A 
HETATM    3  C   UNL     1       5.223  30.811  56.867  1.00  0.00     0.031 A 
HETATM    4  C   UNL     1       6.063  31.034  57.967  1.00  0.00     0.030 A 
HETATM    5  C   UNL     1       7.120  30.139  58.148  1.00  0.00     0.031 A 
HETATM    6  C   UNL     1       7.298  29.030  57.308  1.00  0.00     0.032 A 
ENDROOT
BRANCH   1   7
HETATM    7  N   UNL     1       6.446  27.614  55.470  1.00  0.00    -0.325 N 
HETATM    8  C   UNL     1       5.661  26.483  55.613  1.00  0.00     0.246 C 
HETATM    9  O   UNL     1       4.924  26.228  56.562  1.00  0.00    -0.271 OA
HETATM   10  H   UNL     1       7.067  27.607  54.664  1.00  0.00     0.169 HD
BRANCH   8  11
HETATM   11  C   UNL     1       5.688  25.564  54.391  1.00  0.00     0.278 C 
BRANCH  11  12
HETATM   12  O   UNL     1       7.007  25.231  53.967  1.00  0.00    -0.342 OA
BRANCH  12  13
HETATM   13  C   UNL     1       7.402  23.957  54.295  1.00  0.00     0.069 A 
HETATM   14  C   UNL     1       7.616  22.922  53.382  1.00  0.00     0.044 A 
HETATM   15  C   UNL     1       8.019  21.643  53.811  1.00  0.00    -0.053 A 
HETATM   16  C   UNL     1       8.184  21.398  55.186  1.00  0.00    -0.056 A 
HETATM   17  C   UNL     1       8.212  20.559  52.785  1.00  0.00     0.049 C 
HETATM   18  C   UNL     1       8.581  20.042  55.703  1.00  0.00     0.049 C 
HETATM   19  C   UNL     1       8.003  22.453  56.094  1.00  0.00     0.010 A 
HETATM   20  C   UNL     1       7.623  23.723  55.650  1.00  0.00     0.037 A 
ENDBRANCH  12  13
ENDBRANCH  11  12
ENDBRANCH   8  11
ENDBRANCH   1   7
BRANCH   4  21
HETATM   21  N   UNL     1       5.770  32.050  58.871  1.00  0.00    -0.378 N 
HETATM   22  C   UNL     1       6.711  32.343  59.960  1.00  0.00     0.150 C 
HETATM   23  C   UNL     1       5.921  32.877  61.171  1.00  0.00     0.255 C 
HETATM   24  N   UNL     1       5.053  34.083  60.787  1.00  0.00    -0.064 N 
HETATM   25  H   UNL     1       5.698  34.844  60.550  1.00  0.00     0.280 HD
HETATM   26  C   UNL     1       4.186  33.793  59.556  1.00  0.00     0.255 C 
HETATM   27  C   UNL     1       5.010  33.210  58.388  1.00  0.00     0.150 C 
BRANCH  24  28
HETATM   28  C   UNL     1       4.187  34.556  61.934  1.00  0.00     0.273 C 
BRANCH  28  29
HETATM   29  C   UNL     1       4.701  35.788  62.628  1.00  0.00    -0.033 A 
HETATM   30  C   UNL     1       5.518  36.706  61.954  1.00  0.00     0.009 A 
HETATM   31  C   UNL     1       6.008  37.832  62.616  1.00  0.00     0.001 A 
HETATM   32  C   UNL     1       5.690  38.051  63.955  1.00  0.00     0.000 A 
HETATM   33  C   UNL     1       4.878  37.148  64.635  1.00  0.00     0.001 A 
HETATM   34  C   UNL     1       4.383  36.023  63.978  1.00  0.00     0.009 A 
ENDBRANCH  28  29
ENDBRANCH  24  28
ENDBRANCH   4  21
TORSDOF 7
ENDMDL
MODEL 9
REMARK VINA RESULT:      -9.1      3.956     12.183
REMARK  7 active torsions:
REMARK  status: ('A' for Active; 'I' for Inactive)
REMARK    1  A    between atoms: C_6  and  O_7 
REMARK    2  A    between atoms: O_7  and  C_8 
REMARK    3  A    between atoms: C_8  and  C_9 
REMARK       I    between atoms: C_9  and  N_10 
REMARK    4  A    between atoms: N_10  and  C_11 
REMARK    5  A    between atoms: C_14  and  N_15 
REMARK    6  A    between atoms: N_18  and  C_20 
REMARK    7  A    between atoms: C_20  and  C_21 
ROOT
HETATM    1  C   UNL     1       6.923  28.878  57.650  1.00  0.00     0.034 A 
HETATM    2  C   UNL     1       6.235  29.799  56.860  1.00  0.00     0.032 A 
HETATM    3  C   UNL     1       5.681  29.414  55.630  1.00  0.00     0.031 A 
HETATM    4  C   UNL     1       5.809  28.104  55.144  1.00  0.00     0.030 A 
HETATM    5  C   UNL     1       6.447  27.181  55.976  1.00  0.00     0.031 A 
HETATM    6  C   UNL     1       6.993  27.557  57.212  1.00  0.00     0.032 A 
ENDROOT
BRANCH   1   7
HETATM    7  N   UNL     1       7.569  29.354  58.807  1.00  0.00    -0.325 N 
HETATM    8  C   UNL     1       8.783  30.016  58.874  1.00  0.00     0.246 C 
HETATM    9  O   UNL     1       9.589  30.147  57.956  1.00  0.00    -0.271 OA
HETATM   10  H   UNL     1       7.080  29.263  59.694  1.00  0.00     0.169 HD
BRANCH   8  11
HETATM   11  C   UNL     1       9.024  30.712  60.215  1.00  0.00     0.278 C 
BRANCH  11  12
HETATM   12  O   UNL     1       8.715  32.103  60.190  1.00  0.00    -0.342 OA
BRANCH  12  13
HETATM   13  C   UNL     1       7.788  32.493  61.125  1.00  0.00     0.069 A 
HETATM   14  C   UNL     1       8.055  32.710  62.479  1.00  0.00     0.044 A 
HETATM   15  C   UNL     1       7.038  33.108  63.368  1.00  0.00    -0.053 A 
HETATM   16  C   UNL     1       5.725  33.263  62.888  1.00  0.00    -0.056 A 
HETATM   17  C   UNL     1       7.379  33.305  64.821  1.00  0.00     0.049 C 
HETATM   18  C   UNL     1       4.594  33.654  63.799  1.00  0.00     0.049 C 
HETATM   19  C   UNL     1       5.473  33.079  61.519  1.00  0.00     0.010 A 
HETATM   20  C   UNL     1       6.498  32.705  60.646  1.00  0.00     0.037 A 
ENDBRANCH  12  13
ENDBRANCH  11  12
ENDBRANCH   8  11
ENDBRANCH   1   7
BRANCH   4  21
HETATM   21  N   UNL     1       5.396  27.798  53.852  1.00  0.00    -0.378 N 
HETATM   22  C   UNL     1       5.508  26.418  53.365  1.00  0.00     0.150 C 
HETATM   23  C   UNL     1       5.735  26.444  51.840  1.00  0.00     0.255 C 
HETATM   24  N   UNL     1       4.641  27.246  51.123  1.00  0.00    -0.064 N 
HETATM   25  H   UNL     1       3.768  26.720  51.241  1.00  0.00     0.280 HD
HETATM   26  C   UNL     1       4.447  28.633  51.749  1.00  0.00     0.255 C 
HETATM   27  C   UNL     1       4.278  28.561  53.282  1.00  0.00     0.150 C 
BRANCH  24  28
HETATM   28  C   UNL     1       4.902  27.376  49.639  1.00  0.00     0.273 C 
BRANCH  28  29
HETATM   29  C   UNL     1       3.707  27.084  48.774  1.00  0.00    -0.033 A 
HETATM   30  C   UNL     1       3.743  26.058  47.819  1.00  0.00     0.009 A 
HETATM   31  C   UNL     1       2.636  25.813  47.006  1.00  0.00     0.001 A 
HETATM   32  C   UNL     1       1.486  26.588  47.136  1.00  0.00     0.000 A 
HETATM   33  C   UNL     1       1.436  27.609  48.081  1.00  0.00     0.001 A 
HETATM   34  C   UNL     1       2.539  27.857  48.898  1.00  0.00     0.009 A 
ENDBRANCH  28  29
ENDBRANCH  24  28
ENDBRANCH   4  21
TORSDOF 7
ENDMDL
MODEL 10
REMARK VINA RESULT:      -9.1      1.841      2.572
REMARK  7 active torsions:
REMARK  status: ('A' for Active; 'I' for Inactive)
REMARK    1  A    between atoms: C_6  and  O_7 
REMARK    2  A    between atoms: O_7  and  C_8 
REMARK    3  A    between atoms: C_8  and  C_9 
REMARK       I    between atoms: C_9  and  N_10 
REMARK    4  A    between atoms: N_10  and  C_11 
REMARK    5  A    between atoms: C_14  and  N_15 
REMARK    6  A    between atoms: N_18  and  C_20 
REMARK    7  A    between atoms: C_20  and  C_21 
ROOT
HETATM    1  C   UNL     1       4.479  28.327  55.433  1.00  0.00     0.034 A 
HETATM    2  C   UNL     1       5.226  28.278  56.610  1.00  0.00     0.032 A 
HETATM    3  C   UNL     1       5.192  29.343  57.523  1.00  0.00     0.031 A 
HETATM    4  C   UNL     1       4.425  30.492  57.284  1.00  0.00     0.030 A 
HETATM    5  C   UNL     1       3.635  30.497  56.131  1.00  0.00     0.031 A 
HETATM    6  C   UNL     1       3.656  29.432  55.220  1.00  0.00     0.032 A 
ENDROOT
BRANCH   1   7
HETATM    7  N   UNL     1       4.656  27.291  54.495  1.00  0.00    -0.325 N 
HETATM    8  C   UNL     1       5.724  27.119  53.632  1.00  0.00     0.246 C 
HETATM    9  O   UNL     1       6.615  27.936  53.409  1.00  0.00    -0.271 OA
HETATM   10  H   UNL     1       3.965  26.546  54.476  1.00  0.00     0.169 HD
BRANCH   8  11
HETATM   11  C   UNL     1       5.790  25.721  53.014  1.00  0.00     0.278 C 
BRANCH  11  12
HETATM   12  O   UNL     1       7.122  25.239  52.857  1.00  0.00    -0.342 OA
BRANCH  12  13
HETATM   13  C   UNL     1       7.367  24.042  53.483  1.00  0.00     0.069 A 
HETATM   14  C   UNL     1       7.736  22.858  52.839  1.00  0.00     0.044 A 
HETATM   15  C   UNL     1       7.966  21.674  53.564  1.00  0.00    -0.053 A 
HETATM   16  C   UNL     1       7.794  21.677  54.961  1.00  0.00    -0.056 A 
HETATM   17  C   UNL     1       8.339  20.423  52.815  1.00  0.00     0.049 C 
HETATM   18  C   UNL     1       7.995  20.433  55.782  1.00  0.00     0.049 C 
HETATM   19  C   UNL     1       7.460  22.879  55.604  1.00  0.00     0.010 A 
HETATM   20  C   UNL     1       7.256  24.051  54.871  1.00  0.00     0.037 A 
ENDBRANCH  12  13
ENDBRANCH  11  12
ENDBRANCH   8  11
ENDBRANCH   1   7
BRANCH   4  21
HETATM   21  N   UNL     1       4.543  31.595  58.124  1.00  0.00    -0.378 N 
HETATM   22  C   UNL     1       5.728  31.729  58.980  1.00  0.00     0.150 C 
HETATM   23  C   UNL     1       5.335  32.489  60.261  1.00  0.00     0.255 C 
HETATM   24  N   UNL     1       4.675  33.836  59.934  1.00  0.00    -0.064 N 
HETATM   25  H   UNL     1       5.401  34.421  59.505  1.00  0.00     0.280 HD
HETATM   26  C   UNL     1       3.531  33.681  58.925  1.00  0.00     0.255 C 
HETATM   27  C   UNL     1       3.956  32.867  57.684  1.00  0.00     0.150 C 
BRANCH  24  28
HETATM   28  C   UNL     1       4.183  34.551  61.173  1.00  0.00     0.273 C 
BRANCH  28  29
HETATM   29  C   UNL     1       4.932  34.198  62.429  1.00  0.00    -0.033 A 
HETATM   30  C   UNL     1       6.330  34.288  62.482  1.00  0.00     0.009 A 
HETATM   31  C   UNL     1       7.014  33.933  63.645  1.00  0.00     0.001 A 
HETATM   32  C   UNL     1       6.313  33.486  64.763  1.00  0.00     0.000 A 
HETATM   33  C   UNL     1       4.925  33.394  64.723  1.00  0.00     0.001 A 
HETATM   34  C   UNL     1       4.235  33.749  63.564  1.00  0.00     0.009 A 
ENDBRANCH  28  29
ENDBRANCH  24  28
ENDBRANCH   4  21
TORSDOF 7
ENDMDL
