MODEL 1
REMARK VINA RESULT:      -9.1      0.000      0.000
REMARK  6 active torsions:
REMARK  status: ('A' for Active; 'I' for Inactive)
REMARK    1  A    between atoms: C_2  and  O_3 
REMARK    2  A    between atoms: O_3  and  C_4 
REMARK    3  A    between atoms: C_8  and  C_9 
REMARK    4  A    between atoms: C_9  and  N_10 
REMARK       I    between atoms: N_10  and  C_11 
REMARK       I    between atoms: C_11  and  N_12 
REMARK    5  A    between atoms: N_12  and  C_13 
REMARK    6  A    between atoms: C_14  and  C_15 
ROOT
HETATM    1  N   UNL     1       7.205  27.605  55.403  1.00  0.00    -0.339 N 
HETATM    2  C   UNL     1       7.283  27.497  54.047  1.00  0.00     0.316 C 
HETATM    3  N   UNL     1       7.469  26.244  53.550  1.00  0.00    -0.338 N 
HETATM    4  O   UNL     1       7.204  28.454  53.281  1.00  0.00    -0.247 OA
HETATM    5  H   UNL     1       6.916  26.778  55.898  1.00  0.00     0.164 HD
HETATM    6  H   UNL     1       7.522  26.233  52.538  1.00  0.00     0.164 HD
ENDROOT
BRANCH   1   7
HETATM    7  C   UNL     1       6.871  28.887  55.975  1.00  0.00     0.163 C 
BRANCH   7   8
HETATM    8  C   UNL     1       7.960  29.436  56.852  1.00  0.00    -0.035 A 
HETATM    9  C   UNL     1       9.213  29.750  56.320  1.00  0.00     0.028 A 
HETATM   10  C   UNL     1      10.211  30.180  57.180  1.00  0.00     0.120 A 
HETATM   11  N   UNL     1      10.052  30.306  58.513  1.00  0.00    -0.237 NA
HETATM   12  C   UNL     1       8.845  29.985  59.014  1.00  0.00     0.165 A 
HETATM   13  C   UNL     1       7.776  29.572  58.232  1.00  0.00     0.066 A 
BRANCH  12  14
HETATM   14  O   UNL     1       8.604  30.108  60.361  1.00  0.00    -0.324 OA
BRANCH  14  15
HETATM   15  C   UNL     1       8.477  31.427  60.926  1.00  0.00     0.058 C 
HETATM   16  C   UNL     1       7.736  32.406  60.004  1.00  0.00     0.045 C 
HETATM   17  C   UNL     1       9.821  31.996  61.408  1.00  0.00     0.045 C 
HETATM   18  C   UNL     1       7.593  31.209  62.171  1.00  0.00     0.045 C 
ENDBRANCH  14  15
ENDBRANCH  12  14
ENDBRANCH   7   8
ENDBRANCH   1   7
BRANCH   3  19
HETATM   19  C   UNL     1       7.613  25.008  54.249  1.00  0.00     0.095 A 
HETATM   20  C   UNL     1       6.958  23.723  53.786  1.00  0.00     0.043 A 
HETATM   21  C   UNL     1       6.413  24.475  54.978  1.00  0.00     0.037 A 
BRANCH  20  22
HETATM   22  C   UNL     1       7.601  22.376  54.034  1.00  0.00    -0.052 A 
HETATM   23  C   UNL     1       7.693  21.853  55.337  1.00  0.00     0.007 A 
HETATM   24  C   UNL     1       8.291  20.616  55.588  1.00  0.00     0.001 A 
HETATM   25  C   UNL     1       8.802  19.865  54.535  1.00  0.00     0.000 A 
HETATM   26  C   UNL     1       8.707  20.350  53.233  1.00  0.00     0.001 A 
HETATM   27  C   UNL     1       8.108  21.589  52.988  1.00  0.00     0.007 A 
ENDBRANCH  20  22
ENDBRANCH   3  19
TORSDOF 6
ENDMDL
MODEL 2
REMARK VINA RESULT:      -9.0      1.762      2.155
REMARK  6 active torsions:
REMARK  status: ('A' for Active; 'I' for Inactive)
REMARK    1  A    between atoms: C_2  and  O_3 
REMARK    2  A    between atoms: O_3  and  C_4 
REMARK    3  A    between atoms: C_8  and  C_9 
REMARK    4  A    between atoms: C_9  and  N_10 
REMARK       I    between atoms: N_10  and  C_11 
REMARK       I    between atoms: C_11  and  N_12 
REMARK    5  A    between atoms: N_12  and  C_13 
REMARK    6  A    between atoms: C_14  and  C_15 
ROOT
HETATM    1  N   UNL     1       5.244  27.833  55.043  1.00  0.00    -0.339 N 
HETATM    2  C   UNL     1       4.368  27.896  54.000  1.00  0.00     0.316 C 
HETATM    3  N   UNL     1       4.209  26.756  53.274  1.00  0.00    -0.338 N 
HETATM    4  O   UNL     1       3.745  28.909  53.695  1.00  0.00    -0.247 OA
HETATM    5  H   UNL     1       5.409  26.918  55.428  1.00  0.00     0.164 HD
HETATM    6  H   UNL     1       3.549  26.871  52.513  1.00  0.00     0.164 HD
ENDROOT
BRANCH   1   7
HETATM    7  C   UNL     1       5.347  28.968  55.927  1.00  0.00     0.163 C 
BRANCH   7   8
HETATM    8  C   UNL     1       6.740  29.176  56.449  1.00  0.00    -0.035 A 
HETATM    9  C   UNL     1       7.843  29.073  55.598  1.00  0.00     0.028 A 
HETATM   10  C   UNL     1       9.114  29.195  56.138  1.00  0.00     0.120 A 
HETATM   11  N   UNL     1       9.356  29.400  57.449  1.00  0.00    -0.237 NA
HETATM   12  C   UNL     1       8.285  29.483  58.259  1.00  0.00     0.165 A 
HETATM   13  C   UNL     1       6.976  29.400  57.810  1.00  0.00     0.066 A 
BRANCH  12  14
HETATM   14  O   UNL     1       8.456  29.710  59.604  1.00  0.00    -0.324 OA
BRANCH  14  15
HETATM   15  C   UNL     1       8.659  31.062  60.059  1.00  0.00     0.058 C 
HETATM   16  C   UNL     1       7.345  31.829  60.265  1.00  0.00     0.045 C 
HETATM   17  C   UNL     1       9.647  31.841  59.175  1.00  0.00     0.045 C 
HETATM   18  C   UNL     1       9.313  30.888  61.444  1.00  0.00     0.045 C 
ENDBRANCH  14  15
ENDBRANCH  12  14
ENDBRANCH   7   8
ENDBRANCH   1   7
BRANCH   3  19
HETATM   19  C   UNL     1       4.845  25.489  53.434  1.00  0.00     0.095 A 
HETATM   20  C   UNL     1       6.187  25.161  52.812  1.00  0.00     0.043 A 
HETATM   21  C   UNL     1       4.914  24.587  52.233  1.00  0.00     0.037 A 
BRANCH  20  22
HETATM   22  C   UNL     1       7.153  24.206  53.478  1.00  0.00    -0.052 A 
HETATM   23  C   UNL     1       7.671  24.484  54.757  1.00  0.00     0.007 A 
HETATM   24  C   UNL     1       8.571  23.621  55.386  1.00  0.00     0.001 A 
HETATM   25  C   UNL     1       8.967  22.448  54.751  1.00  0.00     0.000 A 
HETATM   26  C   UNL     1       8.455  22.138  53.494  1.00  0.00     0.001 A 
HETATM   27  C   UNL     1       7.554  23.007  52.869  1.00  0.00     0.007 A 
ENDBRANCH  20  22
ENDBRANCH   3  19
TORSDOF 6
ENDMDL
MODEL 3
REMARK VINA RESULT:      -8.9      2.393      9.973
REMARK  6 active torsions:
REMARK  status: ('A' for Active; 'I' for Inactive)
REMARK    1  A    between atoms: C_2  and  O_3 
REMARK    2  A    between atoms: O_3  and  C_4 
REMARK    3  A    between atoms: C_8  and  C_9 
REMARK    4  A    between atoms: C_9  and  N_10 
REMARK       I    between atoms: N_10  and  C_11 
REMARK       I    between atoms: C_11  and  N_12 
REMARK    5  A    between atoms: N_12  and  C_13 
REMARK    6  A    between atoms: C_14  and  C_15 
ROOT
HETATM    1  N   UNL     1       8.966  29.852  58.198  1.00  0.00    -0.339 N 
HETATM    2  C   UNL     1       9.810  30.907  58.381  1.00  0.00     0.316 C 
HETATM    3  N   UNL     1       9.682  31.588  59.552  1.00  0.00    -0.338 N 
HETATM    4  O   UNL     1      10.647  31.260  57.554  1.00  0.00    -0.247 OA
HETATM    5  H   UNL     1       8.600  29.428  59.035  1.00  0.00     0.164 HD
HETATM    6  H   UNL     1      10.334  32.361  59.623  1.00  0.00     0.164 HD
ENDROOT
BRANCH   1   7
HETATM    7  C   UNL     1       9.151  29.012  57.040  1.00  0.00     0.163 C 
BRANCH   7   8
HETATM    8  C   UNL     1       7.869  28.396  56.556  1.00  0.00    -0.035 A 
HETATM    9  C   UNL     1       6.773  28.266  57.412  1.00  0.00     0.028 A 
HETATM   10  C   UNL     1       5.638  27.622  56.946  1.00  0.00     0.120 A 
HETATM   11  N   UNL     1       5.527  27.097  55.709  1.00  0.00    -0.237 NA
HETATM   12  C   UNL     1       6.595  27.217  54.900  1.00  0.00     0.165 A 
HETATM   13  C   UNL     1       7.764  27.868  55.265  1.00  0.00     0.066 A 
BRANCH  12  14
HETATM   14  O   UNL     1       6.547  26.724  53.617  1.00  0.00    -0.324 OA
BRANCH  14  15
HETATM   15  C   UNL     1       6.856  25.334  53.396  1.00  0.00     0.058 C 
HETATM   16  C   UNL     1       7.232  24.591  54.686  1.00  0.00     0.045 C 
HETATM   17  C   UNL     1       7.903  25.131  52.289  1.00  0.00     0.045 C 
HETATM   18  C   UNL     1       5.526  24.739  52.892  1.00  0.00     0.045 C 
ENDBRANCH  14  15
ENDBRANCH  12  14
ENDBRANCH   7   8
ENDBRANCH   1   7
BRANCH   3  19
HETATM   19  C   UNL     1       8.771  31.370  60.628  1.00  0.00     0.095 A 
HETATM   20  C   UNL     1       8.951  31.997  61.995  1.00  0.00     0.043 A 
HETATM   21  C   UNL     1       9.241  30.530  61.781  1.00  0.00     0.037 A 
BRANCH  20  22
HETATM   22  C   UNL     1       7.764  32.365  62.858  1.00  0.00    -0.052 A 
HETATM   23  C   UNL     1       7.938  33.110  64.039  1.00  0.00     0.007 A 
HETATM   24  C   UNL     1       6.857  33.452  64.854  1.00  0.00     0.001 A 
HETATM   25  C   UNL     1       5.569  33.063  64.499  1.00  0.00     0.000 A 
HETATM   26  C   UNL     1       5.366  32.341  63.326  1.00  0.00     0.001 A 
HETATM   27  C   UNL     1       6.453  32.002  62.513  1.00  0.00     0.007 A 
ENDBRANCH  20  22
ENDBRANCH   3  19
TORSDOF 6
ENDMDL
MODEL 4
REMARK VINA RESULT:      -8.6      2.330      9.492
REMARK  6 active torsions:
REMARK  status: ('A' for Active; 'I' for Inactive)
REMARK    1  A    between atoms: C_2  and  O_3 
REMARK    2  A    between atoms: O_3  and  C_4 
REMARK    3  A    between atoms: C_8  and  C_9 
REMARK    4  A    between atoms: C_9  and  N_10 
REMARK       I    between atoms: N_10  and  C_11 
REMARK       I    between atoms: C_11  and  N_12 
REMARK    5  A    between atoms: N_12  and  C_13 
REMARK    6  A    between atoms: C_14  and  C_15 
ROOT
HETATM    1  N   UNL     1       6.165  27.829  57.113  1.00  0.00    -0.339 N 
HETATM    2  C   UNL     1       6.245  28.985  56.397  1.00  0.00     0.316 C 
HETATM    3  N   UNL     1       6.800  30.053  57.032  1.00  0.00    -0.338 N 
HETATM    4  O   UNL     1       5.842  29.101  55.243  1.00  0.00    -0.247 OA
HETATM    5  H   UNL     1       6.825  27.729  57.867  1.00  0.00     0.164 HD
HETATM    6  H   UNL     1       6.826  30.881  56.446  1.00  0.00     0.164 HD
ENDROOT
BRANCH   1   7
HETATM    7  C   UNL     1       5.714  26.632  56.445  1.00  0.00     0.163 C 
BRANCH   7   8
HETATM    8  C   UNL     1       6.680  25.489  56.582  1.00  0.00    -0.035 A 
HETATM    9  C   UNL     1       7.774  25.580  57.446  1.00  0.00     0.028 A 
HETATM   10  C   UNL     1       8.681  24.533  57.482  1.00  0.00     0.120 A 
HETATM   11  N   UNL     1       8.579  23.424  56.720  1.00  0.00    -0.237 NA
HETATM   12  C   UNL     1       7.529  23.357  55.882  1.00  0.00     0.165 A 
HETATM   13  C   UNL     1       6.554  24.340  55.794  1.00  0.00     0.066 A 
BRANCH  12  14
HETATM   14  O   UNL     1       7.350  22.248  55.090  1.00  0.00    -0.324 OA
BRANCH  14  15
HETATM   15  C   UNL     1       8.162  22.100  53.909  1.00  0.00     0.058 C 
HETATM   16  C   UNL     1       9.658  21.961  54.225  1.00  0.00     0.045 C 
HETATM   17  C   UNL     1       7.894  23.196  52.866  1.00  0.00     0.045 C 
HETATM   18  C   UNL     1       7.692  20.761  53.307  1.00  0.00     0.045 C 
ENDBRANCH  14  15
ENDBRANCH  12  14
ENDBRANCH   7   8
ENDBRANCH   1   7
BRANCH   3  19
HETATM   19  C   UNL     1       7.304  30.150  58.363  1.00  0.00     0.095 A 
HETATM   20  C   UNL     1       8.017  31.381  58.883  1.00  0.00     0.043 A 
HETATM   21  C   UNL     1       8.795  30.130  58.547  1.00  0.00     0.037 A 
BRANCH  20  22
HETATM   22  C   UNL     1       7.928  31.789  60.337  1.00  0.00    -0.052 A 
HETATM   23  C   UNL     1       8.792  31.227  61.295  1.00  0.00     0.007 A 
HETATM   24  C   UNL     1       8.720  31.584  62.643  1.00  0.00     0.001 A 
HETATM   25  C   UNL     1       7.785  32.524  63.064  1.00  0.00     0.000 A 
HETATM   26  C   UNL     1       6.932  33.111  62.134  1.00  0.00     0.001 A 
HETATM   27  C   UNL     1       7.008  32.750  60.785  1.00  0.00     0.007 A 
ENDBRANCH  20  22
ENDBRANCH   3  19
TORSDOF 6
ENDMDL
MODEL 5
REMARK VINA RESULT:      -8.5      5.973      9.411
REMARK  6 active torsions:
REMARK  status: ('A' for Active; 'I' for Inactive)
REMARK    1  A    between atoms: C_2  and  O_3 
REMARK    2  A    between atoms: O_3  and  C_4 
REMARK    3  A    between atoms: C_8  and  C_9 
REMARK    4  A    between atoms: C_9  and  N_10 
REMARK       I    between atoms: N_10  and  C_11 
REMARK       I    between atoms: C_11  and  N_12 
REMARK    5  A    between atoms: N_12  and  C_13 
REMARK    6  A    between atoms: C_14  and  C_15 
ROOT
HETATM    1  N   UNL     1       5.612  26.448  50.827  1.00  0.00    -0.339 N 
HETATM    2  C   UNL     1       5.305  26.756  52.119  1.00  0.00     0.316 C 
HETATM    3  N   UNL     1       5.725  25.875  53.067  1.00  0.00    -0.338 N 
HETATM    4  O   UNL     1       4.676  27.758  52.449  1.00  0.00    -0.247 OA
HETATM    5  H   UNL     1       6.407  25.845  50.693  1.00  0.00     0.164 HD
HETATM    6  H   UNL     1       5.461  26.160  54.004  1.00  0.00     0.164 HD
ENDROOT
BRANCH   1   7
HETATM    7  C   UNL     1       5.313  27.413  49.798  1.00  0.00     0.163 C 
BRANCH   7   8
HETATM    8  C   UNL     1       4.020  27.127  49.089  1.00  0.00    -0.035 A 
HETATM    9  C   UNL     1       3.834  25.926  48.401  1.00  0.00     0.028 A 
HETATM   10  C   UNL     1       2.656  25.738  47.697  1.00  0.00     0.120 A 
HETATM   11  N   UNL     1       1.670  26.655  47.624  1.00  0.00    -0.237 NA
HETATM   12  C   UNL     1       1.868  27.814  48.279  1.00  0.00     0.165 A 
HETATM   13  C   UNL     1       3.000  28.084  49.032  1.00  0.00     0.066 A 
BRANCH  12  14
HETATM   14  O   UNL     1       0.897  28.787  48.266  1.00  0.00    -0.324 OA
BRANCH  14  15
HETATM   15  C   UNL     1       0.786  29.640  47.110  1.00  0.00     0.058 C 
HETATM   16  C   UNL     1      -0.177  29.088  46.049  1.00  0.00     0.045 C 
HETATM   17  C   UNL     1       2.153  30.007  46.513  1.00  0.00     0.045 C 
HETATM   18  C   UNL     1       0.161  30.934  47.670  1.00  0.00     0.045 C 
ENDBRANCH  14  15
ENDBRANCH  12  14
ENDBRANCH   7   8
ENDBRANCH   1   7
BRANCH   3  19
HETATM   19  C   UNL     1       6.437  24.649  52.908  1.00  0.00     0.095 A 
HETATM   20  C   UNL     1       7.568  24.232  53.825  1.00  0.00     0.043 A 
HETATM   21  C   UNL     1       7.858  24.725  52.427  1.00  0.00     0.037 A 
BRANCH  20  22
HETATM   22  C   UNL     1       7.839  22.776  54.132  1.00  0.00    -0.052 A 
HETATM   23  C   UNL     1       7.645  22.266  55.429  1.00  0.00     0.007 A 
HETATM   24  C   UNL     1       7.898  20.927  55.735  1.00  0.00     0.001 A 
HETATM   25  C   UNL     1       8.344  20.061  54.743  1.00  0.00     0.000 A 
HETATM   26  C   UNL     1       8.527  20.533  53.446  1.00  0.00     0.001 A 
HETATM   27  C   UNL     1       8.271  21.875  53.146  1.00  0.00     0.007 A 
ENDBRANCH  20  22
ENDBRANCH   3  19
TORSDOF 6
ENDMDL
MODEL 6
REMARK VINA RESULT:      -8.4      3.633      6.177
REMARK  6 active torsions:
REMARK  status: ('A' for Active; 'I' for Inactive)
REMARK    1  A    between atoms: C_2  and  O_3 
REMARK    2  A    between atoms: O_3  and  C_4 
REMARK    3  A    between atoms: C_8  and  C_9 
REMARK    4  A    between atoms: C_9  and  N_10 
REMARK       I    between atoms: N_10  and  C_11 
REMARK       I    between atoms: C_11  and  N_12 
REMARK    5  A    between atoms: N_12  and  C_13 
REMARK    6  A    between atoms: C_14  and  C_15 
ROOT
HETATM    1  N   UNL     1       7.867  30.848  60.404  1.00  0.00    -0.339 N 
HETATM    2  C   UNL     1       8.446  31.251  59.237  1.00  0.00     0.316 C 
HETATM    3  N   UNL     1       8.290  30.425  58.167  1.00  0.00    -0.338 N 
HETATM    4  O   UNL     1       9.090  32.290  59.121  1.00  0.00    -0.247 OA
HETATM    5  H   UNL     1       7.088  30.216  60.316  1.00  0.00     0.164 HD
HETATM    6  H   UNL     1       8.747  30.780  57.335  1.00  0.00     0.164 HD
ENDROOT
BRANCH   1   7
HETATM    7  C   UNL     1       7.883  31.749  61.530  1.00  0.00     0.163 C 
BRANCH   7   8
HETATM    8  C   UNL     1       6.505  32.144  61.980  1.00  0.00    -0.035 A 
HETATM    9  C   UNL     1       5.499  32.409  61.048  1.00  0.00     0.028 A 
HETATM   10  C   UNL     1       4.266  32.845  61.506  1.00  0.00     0.120 A 
HETATM   11  N   UNL     1       3.975  33.043  62.807  1.00  0.00    -0.237 NA
HETATM   12  C   UNL     1       4.958  32.799  63.693  1.00  0.00     0.165 A 
HETATM   13  C   UNL     1       6.215  32.334  63.336  1.00  0.00     0.066 A 
BRANCH  12  14
HETATM   14  O   UNL     1       4.727  32.959  65.039  1.00  0.00    -0.324 OA
BRANCH  14  15
HETATM   15  C   UNL     1       5.284  34.108  65.707  1.00  0.00     0.058 C 
HETATM   16  C   UNL     1       5.063  35.416  64.933  1.00  0.00     0.045 C 
HETATM   17  C   UNL     1       6.759  33.910  66.092  1.00  0.00     0.045 C 
HETATM   18  C   UNL     1       4.471  34.202  67.013  1.00  0.00     0.045 C 
ENDBRANCH  14  15
ENDBRANCH  12  14
ENDBRANCH   7   8
ENDBRANCH   1   7
BRANCH   3  19
HETATM   19  C   UNL     1       7.613  29.172  58.086  1.00  0.00     0.095 A 
HETATM   20  C   UNL     1       7.438  28.417  56.784  1.00  0.00     0.043 A 
HETATM   21  C   UNL     1       6.272  29.146  57.409  1.00  0.00     0.037 A 
BRANCH  20  22
HETATM   22  C   UNL     1       7.390  26.906  56.748  1.00  0.00    -0.052 A 
HETATM   23  C   UNL     1       8.499  26.142  57.157  1.00  0.00     0.007 A 
HETATM   24  C   UNL     1       8.479  24.746  57.123  1.00  0.00     0.001 A 
HETATM   25  C   UNL     1       7.338  24.079  56.687  1.00  0.00     0.000 A 
HETATM   26  C   UNL     1       6.220  24.809  56.296  1.00  0.00     0.001 A 
HETATM   27  C   UNL     1       6.246  26.207  56.332  1.00  0.00     0.007 A 
ENDBRANCH  20  22
ENDBRANCH   3  19
TORSDOF 6
ENDMDL
MODEL 7
REMARK VINA RESULT:      -8.3      4.388      7.339
REMARK  6 active torsions:
REMARK  status: ('A' for Active; 'I' for Inactive)
REMARK    1  A    between atoms: C_2  and  O_3 
REMARK    2  A    between atoms: O_3  and  C_4 
REMARK    3  A    between atoms: C_8  and  C_9 
REMARK    4  A    between atoms: C_9  and  N_10 
REMARK       I    between atoms: N_10  and  C_11 
REMARK       I    between atoms: C_11  and  N_12 
REMARK    5  A    between atoms: N_12  and  C_13 
REMARK    6  A    between atoms: C_14  and  C_15 
ROOT
HETATM    1  N   UNL     1       4.586  27.453  54.479  1.00  0.00    -0.339 N 
HETATM    2  C   UNL     1       5.131  27.333  55.723  1.00  0.00     0.316 C 
HETATM    3  N   UNL     1       5.967  26.278  55.918  1.00  0.00    -0.338 N 
HETATM    4  O   UNL     1       4.897  28.109  56.646  1.00  0.00    -0.247 OA
HETATM    5  H   UNL     1       5.099  27.021  53.728  1.00  0.00     0.164 HD
HETATM    6  H   UNL     1       6.334  26.244  56.863  1.00  0.00     0.164 HD
ENDROOT
BRANCH   1   7
HETATM    7  C   UNL     1       3.805  28.627  54.177  1.00  0.00     0.163 C 
BRANCH   7   8
HETATM    8  C   UNL     1       4.243  29.310  52.913  1.00  0.00    -0.035 A 
HETATM    9  C   UNL     1       4.075  30.687  52.751  1.00  0.00     0.028 A 
HETATM   10  C   UNL     1       4.422  31.261  51.538  1.00  0.00     0.120 A 
HETATM   11  N   UNL     1       4.907  30.566  50.489  1.00  0.00    -0.237 NA
HETATM   12  C   UNL     1       5.049  29.238  50.654  1.00  0.00     0.165 A 
HETATM   13  C   UNL     1       4.756  28.576  51.837  1.00  0.00     0.066 A 
BRANCH  12  14
HETATM   14  O   UNL     1       5.557  28.468  49.634  1.00  0.00    -0.324 OA
BRANCH  14  15
HETATM   15  C   UNL     1       4.640  27.836  48.719  1.00  0.00     0.058 C 
HETATM   16  C   UNL     1       3.330  28.618  48.549  1.00  0.00     0.045 C 
HETATM   17  C   UNL     1       4.388  26.359  49.061  1.00  0.00     0.045 C 
HETATM   18  C   UNL     1       5.383  27.880  47.369  1.00  0.00     0.045 C 
ENDBRANCH  14  15
ENDBRANCH  12  14
ENDBRANCH   7   8
ENDBRANCH   1   7
BRANCH   3  19
HETATM   19  C   UNL     1       6.353  25.251  55.006  1.00  0.00     0.095 A 
HETATM   20  C   UNL     1       7.668  24.508  55.116  1.00  0.00     0.043 A 
HETATM   21  C   UNL     1       7.467  25.555  54.045  1.00  0.00     0.037 A 
BRANCH  20  22
HETATM   22  C   UNL     1       7.799  23.066  54.678  1.00  0.00    -0.052 A 
HETATM   23  C   UNL     1       7.727  22.021  55.618  1.00  0.00     0.007 A 
HETATM   24  C   UNL     1       7.855  20.683  55.237  1.00  0.00     0.001 A 
HETATM   25  C   UNL     1       8.047  20.358  53.898  1.00  0.00     0.000 A 
HETATM   26  C   UNL     1       8.102  21.371  52.944  1.00  0.00     0.001 A 
HETATM   27  C   UNL     1       7.974  22.708  53.332  1.00  0.00     0.007 A 
ENDBRANCH  20  22
ENDBRANCH   3  19
TORSDOF 6
ENDMDL
MODEL 8
REMARK VINA RESULT:      -8.2      3.654      6.445
REMARK  6 active torsions:
REMARK  status: ('A' for Active; 'I' for Inactive)
REMARK    1  A    between atoms: C_2  and  O_3 
REMARK    2  A    between atoms: O_3  and  C_4 
REMARK    3  A    between atoms: C_8  and  C_9 
REMARK    4  A    between atoms: C_9  and  N_10 
REMARK       I    between atoms: N_10  and  C_11 
REMARK       I    between atoms: C_11  and  N_12 
REMARK    5  A    between atoms: N_12  and  C_13 
REMARK    6  A    between atoms: C_14  and  C_15 
ROOT
HETATM    1  N   UNL     1       8.621  31.020  60.669  1.00  0.00    -0.339 N 
HETATM    2  C   UNL     1       8.965  31.509  59.443  1.00  0.00     0.316 C 
HETATM    3  N   UNL     1       8.475  30.839  58.365  1.00  0.00    -0.338 N 
HETATM    4  O   UNL     1       9.683  32.492  59.279  1.00  0.00    -0.247 OA
HETATM    5  H   UNL     1       7.775  30.477  60.707  1.00  0.00     0.164 HD
HETATM    6  H   UNL     1       8.770  31.250  57.487  1.00  0.00     0.164 HD
ENDROOT
BRANCH   1   7
HETATM    7  C   UNL     1       8.998  31.771  61.841  1.00  0.00     0.163 C 
BRANCH   7   8
HETATM    8  C   UNL     1       7.813  32.299  62.600  1.00  0.00    -0.035 A 
HETATM    9  C   UNL     1       7.968  32.834  63.881  1.00  0.00     0.028 A 
HETATM   10  C   UNL     1       6.838  33.237  64.574  1.00  0.00     0.120 A 
HETATM   11  N   UNL     1       5.583  33.137  64.089  1.00  0.00    -0.237 NA
HETATM   12  C   UNL     1       5.448  32.607  62.860  1.00  0.00     0.165 A 
HETATM   13  C   UNL     1       6.519  32.199  62.078  1.00  0.00     0.066 A 
BRANCH  12  14
HETATM   14  O   UNL     1       4.201  32.491  62.293  1.00  0.00    -0.324 OA
BRANCH  14  15
HETATM   15  C   UNL     1       3.498  33.690  61.912  1.00  0.00     0.058 C 
HETATM   16  C   UNL     1       4.437  34.874  61.642  1.00  0.00     0.045 C 
HETATM   17  C   UNL     1       2.378  34.058  62.899  1.00  0.00     0.045 C 
HETATM   18  C   UNL     1       2.832  33.314  60.574  1.00  0.00     0.045 C 
ENDBRANCH  14  15
ENDBRANCH  12  14
ENDBRANCH   7   8
ENDBRANCH   1   7
BRANCH   3  19
HETATM   19  C   UNL     1       7.655  29.671  58.325  1.00  0.00     0.095 A 
HETATM   20  C   UNL     1       7.287  28.972  57.033  1.00  0.00     0.043 A 
HETATM   21  C   UNL     1       6.268  29.813  57.765  1.00  0.00     0.037 A 
BRANCH  20  22
HETATM   22  C   UNL     1       7.064  27.477  56.980  1.00  0.00    -0.052 A 
HETATM   23  C   UNL     1       5.770  26.949  56.816  1.00  0.00     0.007 A 
HETATM   24  C   UNL     1       5.542  25.571  56.774  1.00  0.00     0.001 A 
HETATM   25  C   UNL     1       6.609  24.687  56.886  1.00  0.00     0.000 A 
HETATM   26  C   UNL     1       7.902  25.182  57.031  1.00  0.00     0.001 A 
HETATM   27  C   UNL     1       8.125  26.562  57.072  1.00  0.00     0.007 A 
ENDBRANCH  20  22
ENDBRANCH   3  19
TORSDOF 6
ENDMDL
MODEL 9
REMARK VINA RESULT:      -8.2      2.058      2.908
REMARK  6 active torsions:
REMARK  status: ('A' for Active; 'I' for Inactive)
REMARK    1  A    between atoms: C_2  and  O_3 
REMARK    2  A    between atoms: O_3  and  C_4 
REMARK    3  A    between atoms: C_8  and  C_9 
REMARK    4  A    between atoms: C_9  and  N_10 
REMARK       I    between atoms: N_10  and  C_11 
REMARK       I    between atoms: C_11  and  N_12 
REMARK    5  A    between atoms: N_12  and  C_13 
REMARK    6  A    between atoms: C_14  and  C_15 
ROOT
HETATM    1  N   UNL     1       5.539  26.818  55.082  1.00  0.00    -0.339 N 
HETATM    2  C   UNL     1       5.847  27.486  53.935  1.00  0.00     0.316 C 
HETATM    3  N   UNL     1       6.314  26.733  52.902  1.00  0.00    -0.338 N 
HETATM    4  O   UNL     1       5.734  28.702  53.803  1.00  0.00    -0.247 OA
HETATM    5  H   UNL     1       5.315  25.842  54.979  1.00  0.00     0.164 HD
HETATM    6  H   UNL     1       6.528  27.289  52.082  1.00  0.00     0.164 HD
ENDROOT
BRANCH   1   7
HETATM    7  C   UNL     1       4.911  27.546  56.158  1.00  0.00     0.163 C 
BRANCH   7   8
HETATM    8  C   UNL     1       5.852  28.494  56.846  1.00  0.00    -0.035 A 
HETATM    9  C   UNL     1       7.012  28.023  57.466  1.00  0.00     0.028 A 
HETATM   10  C   UNL     1       7.810  28.922  58.155  1.00  0.00     0.120 A 
HETATM   11  N   UNL     1       7.530  30.235  58.276  1.00  0.00    -0.237 NA
HETATM   12  C   UNL     1       6.402  30.673  57.687  1.00  0.00     0.165 A 
HETATM   13  C   UNL     1       5.554  29.857  56.953  1.00  0.00     0.066 A 
BRANCH  12  14
HETATM   14  O   UNL     1       6.063  32.003  57.752  1.00  0.00    -0.324 OA
BRANCH  14  15
HETATM   15  C   UNL     1       5.216  32.452  58.828  1.00  0.00     0.058 C 
HETATM   16  C   UNL     1       5.973  32.627  60.152  1.00  0.00     0.045 C 
HETATM   17  C   UNL     1       3.960  31.583  58.993  1.00  0.00     0.045 C 
HETATM   18  C   UNL     1       4.756  33.852  58.371  1.00  0.00     0.045 C 
ENDBRANCH  14  15
ENDBRANCH  12  14
ENDBRANCH   7   8
ENDBRANCH   1   7
BRANCH   3  19
HETATM   19  C   UNL     1       6.547  25.326  52.845  1.00  0.00     0.095 A 
HETATM   20  C   UNL     1       7.832  24.688  53.332  1.00  0.00     0.043 A 
HETATM   21  C   UNL     1       7.559  24.827  51.853  1.00  0.00     0.037 A 
BRANCH  20  22
HETATM   22  C   UNL     1       7.847  23.294  53.920  1.00  0.00    -0.052 A 
HETATM   23  C   UNL     1       7.996  22.166  53.092  1.00  0.00     0.007 A 
HETATM   24  C   UNL     1       8.003  20.871  53.614  1.00  0.00     0.001 A 
HETATM   25  C   UNL     1       7.872  20.674  54.985  1.00  0.00     0.000 A 
HETATM   26  C   UNL     1       7.742  21.773  55.830  1.00  0.00     0.001 A 
HETATM   27  C   UNL     1       7.735  23.067  55.301  1.00  0.00     0.007 A 
ENDBRANCH  20  22
ENDBRANCH   3  19
TORSDOF 6
ENDMDL
MODEL 10
REMARK VINA RESULT:      -7.8      6.802     13.188
REMARK  6 active torsions:
REMARK  status: ('A' for Active; 'I' for Inactive)
REMARK    1  A    between atoms: C_2  and  O_3 
REMARK    2  A    between atoms: O_3  and  C_4 
REMARK    3  A    between atoms: C_8  and  C_9 
REMARK    4  A    between atoms: C_9  and  N_10 
REMARK       I    between atoms: N_10  and  C_11 
REMARK       I    between atoms: C_11  and  N_12 
REMARK    5  A    between atoms: N_12  and  C_13 
REMARK    6  A    between atoms: C_14  and  C_15 
ROOT
HETATM    1  N   UNL     1       4.931  34.867  63.807  1.00  0.00    -0.339 N 
HETATM    2  C   UNL     1       4.018  34.052  64.408  1.00  0.00     0.316 C 
HETATM    3  N   UNL     1       4.195  33.822  65.738  1.00  0.00    -0.338 N 
HETATM    4  O   UNL     1       3.078  33.528  63.816  1.00  0.00    -0.247 OA
HETATM    5  H   UNL     1       5.411  35.514  64.410  1.00  0.00     0.164 HD
HETATM    6  H   UNL     1       3.486  33.207  66.122  1.00  0.00     0.164 HD
ENDROOT
BRANCH   1   7
HETATM    7  C   UNL     1       4.712  35.255  62.435  1.00  0.00     0.163 C 
BRANCH   7   8
HETATM    8  C   UNL     1       5.169  34.212  61.455  1.00  0.00    -0.035 A 
HETATM    9  C   UNL     1       4.649  34.175  60.159  1.00  0.00     0.028 A 
HETATM   10  C   UNL     1       5.042  33.149  59.314  1.00  0.00     0.120 A 
HETATM   11  N   UNL     1       5.896  32.168  59.670  1.00  0.00    -0.237 NA
HETATM   12  C   UNL     1       6.377  32.208  60.926  1.00  0.00     0.165 A 
HETATM   13  C   UNL     1       6.066  33.207  61.835  1.00  0.00     0.066 A 
BRANCH  12  14
HETATM   14  O   UNL     1       7.268  31.251  61.352  1.00  0.00    -0.324 OA
BRANCH  14  15
HETATM   15  C   UNL     1       8.526  31.117  60.662  1.00  0.00     0.058 C 
HETATM   16  C   UNL     1       9.143  32.468  60.273  1.00  0.00     0.045 C 
HETATM   17  C   UNL     1       8.442  30.156  59.465  1.00  0.00     0.045 C 
HETATM   18  C   UNL     1       9.452  30.471  61.712  1.00  0.00     0.045 C 
ENDBRANCH  14  15
ENDBRANCH  12  14
ENDBRANCH   7   8
ENDBRANCH   1   7
BRANCH   3  19
HETATM   19  C   UNL     1       5.220  34.301  66.608  1.00  0.00     0.095 A 
HETATM   20  C   UNL     1       5.017  34.466  68.100  1.00  0.00     0.043 A 
HETATM   21  C   UNL     1       5.053  35.674  67.193  1.00  0.00     0.037 A 
BRANCH  20  22
HETATM   22  C   UNL     1       6.158  34.282  69.076  1.00  0.00    -0.052 A 
HETATM   23  C   UNL     1       7.267  35.148  69.057  1.00  0.00     0.007 A 
HETATM   24  C   UNL     1       8.334  34.989  69.944  1.00  0.00     0.001 A 
HETATM   25  C   UNL     1       8.312  33.962  70.881  1.00  0.00     0.000 A 
HETATM   26  C   UNL     1       7.218  33.102  70.935  1.00  0.00     0.001 A 
HETATM   27  C   UNL     1       6.152  33.266  70.044  1.00  0.00     0.007 A 
ENDBRANCH  20  22
ENDBRANCH   3  19
TORSDOF 6
ENDMDL
