MODEL 1
REMARK VINA RESULT:      -9.5      0.000      0.000
REMARK  6 active torsions:
REMARK  status: ('A' for Active; 'I' for Inactive)
REMARK    1  A    between atoms: C_2  and  O_3 
REMARK    2  A    between atoms: C_2  and  C_10 
REMARK    3  A    between atoms: O_3  and  C_4 
REMARK       I    between atoms: C_10  and  N_11 
REMARK    4  A    between atoms: N_11  and  C_12 
REMARK    5  A    between atoms: N_13  and  C_14 
REMARK    6  A    between atoms: C_26  and  C_27 
ROOT
HETATM    1  C   UNL     1       5.560  25.915  51.944  1.00  0.00     0.152 A 
HETATM    2  N   UNL     1       5.336  27.197  52.426  1.00  0.00    -0.044 N 
HETATM    3  N   UNL     1       4.738  28.007  51.504  1.00  0.00    -0.150 NA
HETATM    4  C   UNL     1       4.600  27.228  50.423  1.00  0.00     0.099 A 
HETATM    5  C   UNL     1       5.098  25.924  50.647  1.00  0.00     0.086 A 
ENDROOT
BRANCH   1   6
HETATM    6  N   UNL     1       6.155  24.925  52.718  1.00  0.00    -0.309 N 
HETATM    7  C   UNL     1       7.514  24.642  52.677  1.00  0.00     0.252 C 
HETATM    8  O   UNL     1       8.319  25.240  51.966  1.00  0.00    -0.270 OA
HETATM    9  H   UNL     1       5.560  24.486  53.421  1.00  0.00     0.170 HD
BRANCH   7  10
HETATM   10  C   UNL     1       7.934  23.462  53.599  1.00  0.00     0.217 C 
HETATM   11  C   UNL     1       7.977  22.139  52.833  1.00  0.00     0.050 C 
BRANCH  10  12
HETATM   12  O   UNL     1       7.012  23.239  54.671  1.00  0.00    -0.337 OA
BRANCH  12  13
HETATM   13  C   UNL     1       7.184  24.023  55.777  1.00  0.00     0.070 A 
HETATM   14  C   UNL     1       8.484  24.108  56.276  1.00  0.00     0.037 A 
HETATM   15  C   UNL     1       8.765  24.929  57.367  1.00  0.00     0.003 A 
HETATM   16  C   UNL     1       7.747  25.684  57.949  1.00  0.00     0.000 A 
HETATM   17  C   UNL     1       6.452  25.619  57.433  1.00  0.00     0.003 A 
HETATM   18  C   UNL     1       6.170  24.797  56.340  1.00  0.00     0.037 A 
ENDBRANCH  12  13
ENDBRANCH  10  12
ENDBRANCH   7  10
ENDBRANCH   1   6
BRANCH   2  19
HETATM   19  C   UNL     1       5.694  27.723  53.684  1.00  0.00     0.732 A 
HETATM   20  N   UNL     1       6.923  27.862  54.075  1.00  0.00    -0.067 NA
HETATM   21  C   UNL     1       7.100  28.430  55.319  1.00  0.00     0.065 A 
HETATM   22  C   UNL     1       6.094  28.834  56.118  1.00  0.00     0.036 A 
HETATM   23  C   UNL     1       8.542  28.612  55.738  1.00  0.00     0.060 C 
HETATM   24  C   UNL     1       6.279  29.460  57.470  1.00  0.00     0.046 C 
HETATM   25  C   UNL     1       4.703  28.655  55.636  1.00  0.00     0.268 A 
HETATM   26  C   UNL     1       7.706  29.321  58.004  1.00  0.00     0.005 C 
HETATM   27  C   UNL     1       8.729  29.584  56.905  1.00  0.00     0.006 C 
HETATM   28  O   UNL     1       3.729  29.008  56.289  1.00  0.00    -0.267 OA
HETATM   29  N   UNL     1       4.593  28.078  54.411  1.00  0.00    -0.152 N 
HETATM   30  H   UNL     1       3.670  27.941  54.011  1.00  0.00     0.188 HD
ENDBRANCH   2  19
BRANCH   4  31
HETATM   31  C   UNL     1       3.984  27.739  49.153  1.00  0.00     0.035 A 
HETATM   32  S   UNL     1       4.172  29.332  48.560  1.00  0.00    -0.100 SA
HETATM   33  C   UNL     1       3.197  29.009  47.193  1.00  0.00     0.050 A 
HETATM   34  C   UNL     1       2.732  27.712  47.185  1.00  0.00     0.008 A 
HETATM   35  C   UNL     1       3.191  26.977  48.319  1.00  0.00     0.022 A 
ENDBRANCH   4  31
TORSDOF 6
ENDMDL
MODEL 2
REMARK VINA RESULT:      -9.4      2.680      8.004
REMARK  6 active torsions:
REMARK  status: ('A' for Active; 'I' for Inactive)
REMARK    1  A    between atoms: C_2  and  O_3 
REMARK    2  A    between atoms: C_2  and  C_10 
REMARK    3  A    between atoms: O_3  and  C_4 
REMARK       I    between atoms: C_10  and  N_11 
REMARK    4  A    between atoms: N_11  and  C_12 
REMARK    5  A    between atoms: N_13  and  C_14 
REMARK    6  A    between atoms: C_26  and  C_27 
ROOT
HETATM    1  C   UNL     1       6.673  27.422  54.861  1.00  0.00     0.152 A 
HETATM    2  N   UNL     1       7.440  26.565  55.638  1.00  0.00    -0.044 N 
HETATM    3  N   UNL     1       8.101  27.216  56.640  1.00  0.00    -0.150 NA
HETATM    4  C   UNL     1       7.757  28.501  56.479  1.00  0.00     0.099 A 
HETATM    5  C   UNL     1       6.876  28.677  55.389  1.00  0.00     0.086 A 
ENDROOT
BRANCH   1   6
HETATM    6  N   UNL     1       5.913  26.970  53.789  1.00  0.00    -0.309 N 
HETATM    7  C   UNL     1       5.860  27.625  52.565  1.00  0.00     0.252 C 
HETATM    8  O   UNL     1       6.482  28.655  52.310  1.00  0.00    -0.270 OA
HETATM    9  H   UNL     1       5.481  26.052  53.898  1.00  0.00     0.170 HD
BRANCH   7  10
HETATM   10  C   UNL     1       4.906  26.953  51.537  1.00  0.00     0.217 C 
HETATM   11  C   UNL     1       5.012  25.429  51.585  1.00  0.00     0.050 C 
BRANCH  10  12
HETATM   12  O   UNL     1       5.212  27.303  50.183  1.00  0.00    -0.337 OA
BRANCH  12  13
HETATM   13  C   UNL     1       4.193  27.154  49.285  1.00  0.00     0.070 A 
HETATM   14  C   UNL     1       3.102  28.009  49.444  1.00  0.00     0.037 A 
HETATM   15  C   UNL     1       2.041  27.968  48.541  1.00  0.00     0.003 A 
HETATM   16  C   UNL     1       2.078  27.084  47.464  1.00  0.00     0.000 A 
HETATM   17  C   UNL     1       3.182  26.247  47.290  1.00  0.00     0.003 A 
HETATM   18  C   UNL     1       4.245  26.288  48.194  1.00  0.00     0.037 A 
ENDBRANCH  12  13
ENDBRANCH  10  12
ENDBRANCH   7  10
ENDBRANCH   1   6
BRANCH   2  19
HETATM   19  C   UNL     1       7.630  25.179  55.468  1.00  0.00     0.732 A 
HETATM   20  N   UNL     1       7.550  24.585  54.317  1.00  0.00    -0.067 NA
HETATM   21  C   UNL     1       7.803  23.230  54.319  1.00  0.00     0.065 A 
HETATM   22  C   UNL     1       8.117  22.518  55.419  1.00  0.00     0.036 A 
HETATM   23  C   UNL     1       7.738  22.567  52.961  1.00  0.00     0.060 C 
HETATM   24  C   UNL     1       8.399  21.043  55.427  1.00  0.00     0.046 C 
HETATM   25  C   UNL     1       8.194  23.233  56.715  1.00  0.00     0.268 A 
HETATM   26  C   UNL     1       7.999  20.350  54.124  1.00  0.00     0.005 C 
HETATM   27  C   UNL     1       8.398  21.187  52.914  1.00  0.00     0.006 C 
HETATM   28  O   UNL     1       8.488  22.669  57.761  1.00  0.00    -0.267 OA
HETATM   29  N   UNL     1       7.923  24.563  56.651  1.00  0.00    -0.152 N 
HETATM   30  H   UNL     1       7.974  25.119  57.500  1.00  0.00     0.188 HD
ENDBRANCH   2  19
BRANCH   4  31
HETATM   31  C   UNL     1       8.282  29.578  57.383  1.00  0.00     0.035 A 
HETATM   32  S   UNL     1       7.300  30.621  58.317  1.00  0.00    -0.100 SA
HETATM   33  C   UNL     1       8.660  31.436  58.958  1.00  0.00     0.050 A 
HETATM   34  C   UNL     1       9.843  30.927  58.471  1.00  0.00     0.008 A 
HETATM   35  C   UNL     1       9.624  29.849  57.562  1.00  0.00     0.022 A 
ENDBRANCH   4  31
TORSDOF 6
ENDMDL
MODEL 3
REMARK VINA RESULT:      -9.3      1.724      3.239
REMARK  6 active torsions:
REMARK  status: ('A' for Active; 'I' for Inactive)
REMARK    1  A    between atoms: C_2  and  O_3 
REMARK    2  A    between atoms: C_2  and  C_10 
REMARK    3  A    between atoms: O_3  and  C_4 
REMARK       I    between atoms: C_10  and  N_11 
REMARK    4  A    between atoms: N_11  and  C_12 
REMARK    5  A    between atoms: N_13  and  C_14 
REMARK    6  A    between atoms: C_26  and  C_27 
ROOT
HETATM    1  C   UNL     1       6.738  26.380  53.692  1.00  0.00     0.152 A 
HETATM    2  N   UNL     1       6.548  27.720  53.999  1.00  0.00    -0.044 N 
HETATM    3  N   UNL     1       5.796  28.371  53.063  1.00  0.00    -0.150 NA
HETATM    4  C   UNL     1       5.525  27.430  52.148  1.00  0.00     0.099 A 
HETATM    5  C   UNL     1       6.090  26.182  52.494  1.00  0.00     0.086 A 
ENDROOT
BRANCH   1   6
HETATM    6  N   UNL     1       7.469  25.528  54.512  1.00  0.00    -0.309 N 
HETATM    7  C   UNL     1       6.948  24.945  55.660  1.00  0.00     0.252 C 
HETATM    8  O   UNL     1       5.797  25.118  56.056  1.00  0.00    -0.270 OA
HETATM    9  H   UNL     1       8.385  25.245  54.164  1.00  0.00     0.170 HD
BRANCH   7  10
HETATM   10  C   UNL     1       7.972  24.068  56.435  1.00  0.00     0.217 C 
HETATM   11  C   UNL     1       8.658  24.857  57.550  1.00  0.00     0.050 C 
BRANCH  10  12
HETATM   12  O   UNL     1       9.039  23.596  55.605  1.00  0.00    -0.337 OA
BRANCH  12  13
HETATM   13  C   UNL     1       8.846  22.374  55.025  1.00  0.00     0.070 A 
HETATM   14  C   UNL     1       8.631  22.374  53.647  1.00  0.00     0.037 A 
HETATM   15  C   UNL     1       8.480  21.171  52.959  1.00  0.00     0.003 A 
HETATM   16  C   UNL     1       8.563  19.962  53.649  1.00  0.00     0.000 A 
HETATM   17  C   UNL     1       8.805  19.961  55.023  1.00  0.00     0.003 A 
HETATM   18  C   UNL     1       8.956  21.166  55.712  1.00  0.00     0.037 A 
ENDBRANCH  12  13
ENDBRANCH  10  12
ENDBRANCH   7  10
ENDBRANCH   1   6
BRANCH   2  19
HETATM   19  C   UNL     1       7.070  28.440  55.092  1.00  0.00     0.732 A 
HETATM   20  N   UNL     1       8.341  28.599  55.299  1.00  0.00    -0.067 NA
HETATM   21  C   UNL     1       8.683  29.365  56.394  1.00  0.00     0.065 A 
HETATM   22  C   UNL     1       7.793  29.934  57.229  1.00  0.00     0.036 A 
HETATM   23  C   UNL     1      10.169  29.565  56.593  1.00  0.00     0.060 C 
HETATM   24  C   UNL     1       8.157  30.774  58.419  1.00  0.00     0.046 C 
HETATM   25  C   UNL     1       6.349  29.724  56.961  1.00  0.00     0.268 A 
HETATM   26  C   UNL     1       9.639  30.678  58.788  1.00  0.00     0.005 C 
HETATM   27  C   UNL     1      10.516  30.714  57.542  1.00  0.00     0.006 C 
HETATM   28  O   UNL     1       5.472  30.217  57.659  1.00  0.00    -0.267 OA
HETATM   29  N   UNL     1       6.076  28.952  55.877  1.00  0.00    -0.152 N 
HETATM   30  H   UNL     1       5.108  28.781  55.624  1.00  0.00     0.188 HD
ENDBRANCH   2  19
BRANCH   4  31
HETATM   31  C   UNL     1       4.714  27.732  50.922  1.00  0.00     0.035 A 
HETATM   32  S   UNL     1       3.729  29.116  50.730  1.00  0.00    -0.100 SA
HETATM   33  C   UNL     1       3.243  28.635  49.162  1.00  0.00     0.050 A 
HETATM   34  C   UNL     1       3.818  27.440  48.788  1.00  0.00     0.008 A 
HETATM   35  C   UNL     1       4.671  26.919  49.806  1.00  0.00     0.022 A 
ENDBRANCH   4  31
TORSDOF 6
ENDMDL
MODEL 4
REMARK VINA RESULT:      -9.3      2.120      5.682
REMARK  6 active torsions:
REMARK  status: ('A' for Active; 'I' for Inactive)
REMARK    1  A    between atoms: C_2  and  O_3 
REMARK    2  A    between atoms: C_2  and  C_10 
REMARK    3  A    between atoms: O_3  and  C_4 
REMARK       I    between atoms: C_10  and  N_11 
REMARK    4  A    between atoms: N_11  and  C_12 
REMARK    5  A    between atoms: N_13  and  C_14 
REMARK    6  A    between atoms: C_26  and  C_27 
ROOT
HETATM    1  C   UNL     1       6.413  26.512  53.861  1.00  0.00     0.152 A 
HETATM    2  N   UNL     1       6.596  25.286  53.236  1.00  0.00    -0.044 N 
HETATM    3  N   UNL     1       6.125  25.275  51.955  1.00  0.00    -0.150 NA
HETATM    4  C   UNL     1       5.622  26.504  51.779  1.00  0.00     0.099 A 
HETATM    5  C   UNL     1       5.776  27.305  52.933  1.00  0.00     0.086 A 
ENDROOT
BRANCH   1   6
HETATM    6  N   UNL     1       6.824  26.747  55.167  1.00  0.00    -0.309 N 
HETATM    7  C   UNL     1       7.733  27.741  55.511  1.00  0.00     0.252 C 
HETATM    8  O   UNL     1       8.250  28.508  54.701  1.00  0.00    -0.270 OA
HETATM    9  H   UNL     1       6.331  26.230  55.895  1.00  0.00     0.170 HD
BRANCH   7  10
HETATM   10  C   UNL     1       8.071  27.780  57.028  1.00  0.00     0.217 C 
HETATM   11  C   UNL     1       7.645  26.491  57.732  1.00  0.00     0.050 C 
BRANCH  10  12
HETATM   12  O   UNL     1       7.385  28.826  57.724  1.00  0.00    -0.337 OA
BRANCH  12  13
HETATM   13  C   UNL     1       8.173  29.820  58.230  1.00  0.00     0.070 A 
HETATM   14  C   UNL     1       9.456  29.924  57.693  1.00  0.00     0.037 A 
HETATM   15  C   UNL     1      10.311  30.944  58.107  1.00  0.00     0.003 A 
HETATM   16  C   UNL     1       9.875  31.876  59.049  1.00  0.00     0.000 A 
HETATM   17  C   UNL     1       8.582  31.788  59.567  1.00  0.00     0.003 A 
HETATM   18  C   UNL     1       7.726  30.767  59.151  1.00  0.00     0.037 A 
ENDBRANCH  12  13
ENDBRANCH  10  12
ENDBRANCH   7  10
ENDBRANCH   1   6
BRANCH   2  19
HETATM   19  C   UNL     1       7.144  24.109  53.784  1.00  0.00     0.732 A 
HETATM   20  N   UNL     1       7.440  23.979  55.040  1.00  0.00    -0.067 NA
HETATM   21  C   UNL     1       7.931  22.748  55.421  1.00  0.00     0.065 A 
HETATM   22  C   UNL     1       8.112  21.711  54.580  1.00  0.00     0.036 A 
HETATM   23  C   UNL     1       8.235  22.610  56.896  1.00  0.00     0.060 C 
HETATM   24  C   UNL     1       8.640  20.366  54.987  1.00  0.00     0.046 C 
HETATM   25  C   UNL     1       7.766  21.902  53.150  1.00  0.00     0.268 A 
HETATM   26  C   UNL     1       9.249  20.362  56.390  1.00  0.00     0.005 C 
HETATM   27  C   UNL     1       8.388  21.160  57.363  1.00  0.00     0.006 C 
HETATM   28  O   UNL     1       7.884  21.009  52.320  1.00  0.00    -0.267 OA
HETATM   29  N   UNL     1       7.300  23.138  52.836  1.00  0.00    -0.152 N 
HETATM   30  H   UNL     1       7.027  23.334  51.877  1.00  0.00     0.188 HD
ENDBRANCH   2  19
BRANCH   4  31
HETATM   31  C   UNL     1       4.983  26.919  50.486  1.00  0.00     0.035 A 
HETATM   32  S   UNL     1       4.610  28.534  50.066  1.00  0.00    -0.100 SA
HETATM   33  C   UNL     1       3.965  28.061  48.553  1.00  0.00     0.050 A 
HETATM   34  C   UNL     1       4.030  26.698  48.368  1.00  0.00     0.008 A 
HETATM   35  C   UNL     1       4.622  26.038  49.486  1.00  0.00     0.022 A 
ENDBRANCH   4  31
TORSDOF 6
ENDMDL
MODEL 5
REMARK VINA RESULT:      -9.0      3.704      6.773
REMARK  6 active torsions:
REMARK  status: ('A' for Active; 'I' for Inactive)
REMARK    1  A    between atoms: C_2  and  O_3 
REMARK    2  A    between atoms: C_2  and  C_10 
REMARK    3  A    between atoms: O_3  and  C_4 
REMARK       I    between atoms: C_10  and  N_11 
REMARK    4  A    between atoms: N_11  and  C_12 
REMARK    5  A    between atoms: N_13  and  C_14 
REMARK    6  A    between atoms: C_26  and  C_27 
ROOT
HETATM    1  C   UNL     1       7.648  26.791  56.464  1.00  0.00     0.152 A 
HETATM    2  N   UNL     1       6.537  26.819  55.633  1.00  0.00    -0.044 N 
HETATM    3  N   UNL     1       6.360  25.647  54.955  1.00  0.00    -0.150 NA
HETATM    4  C   UNL     1       7.384  24.880  55.352  1.00  0.00     0.099 A 
HETATM    5  C   UNL     1       8.210  25.547  56.284  1.00  0.00     0.086 A 
ENDROOT
BRANCH   1   6
HETATM    6  N   UNL     1       8.013  27.876  57.252  1.00  0.00    -0.309 N 
HETATM    7  C   UNL     1       8.676  28.990  56.752  1.00  0.00     0.252 C 
HETATM    8  O   UNL     1       8.995  29.127  55.572  1.00  0.00    -0.270 OA
HETATM    9  H   UNL     1       7.659  27.877  58.208  1.00  0.00     0.170 HD
BRANCH   7  10
HETATM   10  C   UNL     1       9.017  30.053  57.835  1.00  0.00     0.217 C 
HETATM   11  C   UNL     1      10.512  30.374  57.856  1.00  0.00     0.050 C 
BRANCH  10  12
HETATM   12  O   UNL     1       8.715  29.609  59.163  1.00  0.00    -0.337 OA
BRANCH  12  13
HETATM   13  C   UNL     1       8.450  30.594  60.073  1.00  0.00     0.070 A 
HETATM   14  C   UNL     1       7.426  31.481  59.740  1.00  0.00     0.037 A 
HETATM   15  C   UNL     1       7.047  32.483  60.632  1.00  0.00     0.003 A 
HETATM   16  C   UNL     1       7.681  32.587  61.870  1.00  0.00     0.000 A 
HETATM   17  C   UNL     1       8.687  31.682  62.214  1.00  0.00     0.003 A 
HETATM   18  C   UNL     1       9.066  30.678  61.320  1.00  0.00     0.037 A 
ENDBRANCH  12  13
ENDBRANCH  10  12
ENDBRANCH   7  10
ENDBRANCH   1   6
BRANCH   2  19
HETATM   19  C   UNL     1       5.658  27.895  55.401  1.00  0.00     0.732 A 
HETATM   20  N   UNL     1       5.102  28.580  56.352  1.00  0.00    -0.067 NA
HETATM   21  C   UNL     1       4.299  29.627  55.953  1.00  0.00     0.065 A 
HETATM   22  C   UNL     1       4.071  29.961  54.668  1.00  0.00     0.036 A 
HETATM   23  C   UNL     1       3.691  30.432  57.081  1.00  0.00     0.060 C 
HETATM   24  C   UNL     1       3.204  31.104  54.225  1.00  0.00     0.046 C 
HETATM   25  C   UNL     1       4.721  29.150  53.610  1.00  0.00     0.268 A 
HETATM   26  C   UNL     1       2.346  31.676  55.355  1.00  0.00     0.005 C 
HETATM   27  C   UNL     1       3.149  31.795  56.645  1.00  0.00     0.006 C 
HETATM   28  O   UNL     1       4.583  29.393  52.417  1.00  0.00    -0.267 OA
HETATM   29  N   UNL     1       5.489  28.127  54.065  1.00  0.00    -0.152 N 
HETATM   30  H   UNL     1       5.978  27.540  53.395  1.00  0.00     0.188 HD
ENDBRANCH   2  19
BRANCH   4  31
HETATM   31  C   UNL     1       7.576  23.486  54.828  1.00  0.00     0.035 A 
HETATM   32  S   UNL     1       7.878  22.118  55.808  1.00  0.00    -0.100 SA
HETATM   33  C   UNL     1       7.952  21.080  54.451  1.00  0.00     0.050 A 
HETATM   34  C   UNL     1       7.752  21.760  53.270  1.00  0.00     0.008 A 
HETATM   35  C   UNL     1       7.532  23.152  53.489  1.00  0.00     0.022 A 
ENDBRANCH   4  31
TORSDOF 6
ENDMDL
MODEL 6
REMARK VINA RESULT:      -8.9      3.064      6.875
REMARK  6 active torsions:
REMARK  status: ('A' for Active; 'I' for Inactive)
REMARK    1  A    between atoms: C_2  and  O_3 
REMARK    2  A    between atoms: C_2  and  C_10 
REMARK    3  A    between atoms: O_3  and  C_4 
REMARK       I    between atoms: C_10  and  N_11 
REMARK    4  A    between atoms: N_11  and  C_12 
REMARK    5  A    between atoms: N_13  and  C_14 
REMARK    6  A    between atoms: C_26  and  C_27 
ROOT
HETATM    1  C   UNL     1       6.308  25.582  55.408  1.00  0.00     0.152 A 
HETATM    2  N   UNL     1       5.970  25.471  54.067  1.00  0.00    -0.044 N 
HETATM    3  N   UNL     1       6.388  24.293  53.517  1.00  0.00    -0.150 NA
HETATM    4  C   UNL     1       7.011  23.664  54.522  1.00  0.00     0.099 A 
HETATM    5  C   UNL     1       6.989  24.425  55.713  1.00  0.00     0.086 A 
ENDROOT
BRANCH   1   6
HETATM    6  N   UNL     1       5.975  26.698  56.167  1.00  0.00    -0.309 N 
HETATM    7  C   UNL     1       6.901  27.659  56.552  1.00  0.00     0.252 C 
HETATM    8  O   UNL     1       8.094  27.622  56.255  1.00  0.00    -0.270 OA
HETATM    9  H   UNL     1       4.980  26.851  56.331  1.00  0.00     0.170 HD
BRANCH   7  10
HETATM   10  C   UNL     1       6.299  28.789  57.435  1.00  0.00     0.217 C 
HETATM   11  C   UNL     1       4.850  29.090  57.050  1.00  0.00     0.050 C 
BRANCH  10  12
HETATM   12  O   UNL     1       6.987  30.036  57.287  1.00  0.00    -0.337 OA
BRANCH  12  13
HETATM   13  C   UNL     1       7.458  30.596  58.442  1.00  0.00     0.070 A 
HETATM   14  C   UNL     1       6.738  31.683  58.937  1.00  0.00     0.037 A 
HETATM   15  C   UNL     1       7.110  32.284  60.139  1.00  0.00     0.003 A 
HETATM   16  C   UNL     1       8.194  31.782  60.859  1.00  0.00     0.000 A 
HETATM   17  C   UNL     1       8.898  30.677  60.377  1.00  0.00     0.003 A 
HETATM   18  C   UNL     1       8.525  30.076  59.173  1.00  0.00     0.037 A 
ENDBRANCH  12  13
ENDBRANCH  10  12
ENDBRANCH   7  10
ENDBRANCH   1   6
BRANCH   2  19
HETATM   19  C   UNL     1       5.321  26.424  53.256  1.00  0.00     0.732 A 
HETATM   20  N   UNL     1       4.729  27.477  53.730  1.00  0.00    -0.067 NA
HETATM   21  C   UNL     1       4.177  28.330  52.797  1.00  0.00     0.065 A 
HETATM   22  C   UNL     1       4.223  28.129  51.466  1.00  0.00     0.036 A 
HETATM   23  C   UNL     1       3.523  29.567  53.371  1.00  0.00     0.060 C 
HETATM   24  C   UNL     1       3.630  29.056  50.444  1.00  0.00     0.046 C 
HETATM   25  C   UNL     1       4.905  26.911  50.965  1.00  0.00     0.268 A 
HETATM   26  C   UNL     1       2.696  30.102  51.055  1.00  0.00     0.005 C 
HETATM   27  C   UNL     1       3.280  30.673  52.342  1.00  0.00     0.006 C 
HETATM   28  O   UNL     1       5.008  26.659  49.771  1.00  0.00    -0.267 OA
HETATM   29  N   UNL     1       5.417  26.106  51.932  1.00  0.00    -0.152 N 
HETATM   30  H   UNL     1       5.913  25.262  51.659  1.00  0.00     0.188 HD
ENDBRANCH   2  19
BRANCH   4  31
HETATM   31  C   UNL     1       7.640  22.314  54.340  1.00  0.00     0.035 A 
HETATM   32  S   UNL     1       8.099  21.279  55.621  1.00  0.00    -0.100 SA
HETATM   33  C   UNL     1       8.674  20.085  54.540  1.00  0.00     0.050 A 
HETATM   34  C   UNL     1       8.522  20.465  53.225  1.00  0.00     0.008 A 
HETATM   35  C   UNL     1       7.922  21.754  53.109  1.00  0.00     0.022 A 
ENDBRANCH   4  31
TORSDOF 6
ENDMDL
MODEL 7
REMARK VINA RESULT:      -8.9      2.270      3.442
REMARK  6 active torsions:
REMARK  status: ('A' for Active; 'I' for Inactive)
REMARK    1  A    between atoms: C_2  and  O_3 
REMARK    2  A    between atoms: C_2  and  C_10 
REMARK    3  A    between atoms: O_3  and  C_4 
REMARK       I    between atoms: C_10  and  N_11 
REMARK    4  A    between atoms: N_11  and  C_12 
REMARK    5  A    between atoms: N_13  and  C_14 
REMARK    6  A    between atoms: C_26  and  C_27 
ROOT
HETATM    1  C   UNL     1       4.676  27.731  54.354  1.00  0.00     0.152 A 
HETATM    2  N   UNL     1       4.913  29.038  54.755  1.00  0.00    -0.044 N 
HETATM    3  N   UNL     1       4.364  29.955  53.906  1.00  0.00    -0.150 NA
HETATM    4  C   UNL     1       3.790  29.214  52.949  1.00  0.00     0.099 A 
HETATM    5  C   UNL     1       3.959  27.831  53.183  1.00  0.00     0.086 A 
ENDROOT
BRANCH   1   6
HETATM    6  N   UNL     1       5.141  26.638  55.076  1.00  0.00    -0.309 N 
HETATM    7  C   UNL     1       6.313  25.962  54.761  1.00  0.00     0.252 C 
HETATM    8  O   UNL     1       7.053  26.267  53.828  1.00  0.00    -0.270 OA
HETATM    9  H   UNL     1       4.639  26.421  55.937  1.00  0.00     0.170 HD
BRANCH   7  10
HETATM   10  C   UNL     1       6.599  24.745  55.686  1.00  0.00     0.217 C 
HETATM   11  C   UNL     1       6.516  25.130  57.164  1.00  0.00     0.050 C 
BRANCH  10  12
HETATM   12  O   UNL     1       7.918  24.214  55.515  1.00  0.00    -0.337 OA
BRANCH  12  13
HETATM   13  C   UNL     1       7.995  22.998  54.898  1.00  0.00     0.070 A 
HETATM   14  C   UNL     1       7.894  21.880  55.727  1.00  0.00     0.037 A 
HETATM   15  C   UNL     1       7.906  20.597  55.180  1.00  0.00     0.003 A 
HETATM   16  C   UNL     1       7.998  20.432  53.799  1.00  0.00     0.000 A 
HETATM   17  C   UNL     1       8.071  21.551  52.968  1.00  0.00     0.003 A 
HETATM   18  C   UNL     1       8.060  22.836  53.515  1.00  0.00     0.037 A 
ENDBRANCH  12  13
ENDBRANCH  10  12
ENDBRANCH   7  10
ENDBRANCH   1   6
BRANCH   2  19
HETATM   19  C   UNL     1       5.666  29.480  55.862  1.00  0.00     0.732 A 
HETATM   20  N   UNL     1       6.919  29.192  56.032  1.00  0.00    -0.067 NA
HETATM   21  C   UNL     1       7.517  29.738  57.149  1.00  0.00     0.065 A 
HETATM   22  C   UNL     1       6.885  30.528  58.038  1.00  0.00     0.036 A 
HETATM   23  C   UNL     1       8.987  29.416  57.307  1.00  0.00     0.060 C 
HETATM   24  C   UNL     1       7.531  31.131  59.252  1.00  0.00     0.046 C 
HETATM   25  C   UNL     1       5.451  30.830  57.810  1.00  0.00     0.268 A 
HETATM   26  C   UNL     1       8.900  30.522  59.566  1.00  0.00     0.005 C 
HETATM   27  C   UNL     1       9.717  30.329  58.294  1.00  0.00     0.006 C 
HETATM   28  O   UNL     1       4.804  31.551  58.558  1.00  0.00    -0.267 OA
HETATM   29  N   UNL     1       4.916  30.254  56.702  1.00  0.00    -0.152 N 
HETATM   30  H   UNL     1       3.942  30.432  56.474  1.00  0.00     0.188 HD
ENDBRANCH   2  19
BRANCH   4  31
HETATM   31  C   UNL     1       3.068  29.840  51.791  1.00  0.00     0.035 A 
HETATM   32  S   UNL     1       2.975  31.522  51.504  1.00  0.00    -0.100 SA
HETATM   33  C   UNL     1       2.036  31.298  50.092  1.00  0.00     0.050 A 
HETATM   34  C   UNL     1       1.794  29.965  49.841  1.00  0.00     0.008 A 
HETATM   35  C   UNL     1       2.394  29.122  50.823  1.00  0.00     0.022 A 
ENDBRANCH   4  31
TORSDOF 6
ENDMDL
MODEL 8
REMARK VINA RESULT:      -8.5      2.865      7.095
REMARK  6 active torsions:
REMARK  status: ('A' for Active; 'I' for Inactive)
REMARK    1  A    between atoms: C_2  and  O_3 
REMARK    2  A    between atoms: C_2  and  C_10 
REMARK    3  A    between atoms: O_3  and  C_4 
REMARK       I    between atoms: C_10  and  N_11 
REMARK    4  A    between atoms: N_11  and  C_12 
REMARK    5  A    between atoms: N_13  and  C_14 
REMARK    6  A    between atoms: C_26  and  C_27 
ROOT
HETATM    1  C   UNL     1       7.103  25.554  53.253  1.00  0.00     0.152 A 
HETATM    2  N   UNL     1       7.205  25.810  54.613  1.00  0.00    -0.044 N 
HETATM    3  N   UNL     1       7.612  24.718  55.323  1.00  0.00    -0.150 NA
HETATM    4  C   UNL     1       7.750  23.758  54.398  1.00  0.00     0.099 A 
HETATM    5  C   UNL     1       7.443  24.229  53.102  1.00  0.00     0.086 A 
ENDROOT
BRANCH   1   6
HETATM    6  N   UNL     1       6.710  26.528  52.342  1.00  0.00    -0.309 N 
HETATM    7  C   UNL     1       5.399  26.680  51.910  1.00  0.00     0.252 C 
HETATM    8  O   UNL     1       4.464  25.979  52.292  1.00  0.00    -0.270 OA
HETATM    9  H   UNL     1       7.416  27.220  52.091  1.00  0.00     0.170 HD
BRANCH   7  10
HETATM   10  C   UNL     1       5.216  27.809  50.856  1.00  0.00     0.217 C 
HETATM   11  C   UNL     1       5.684  29.161  51.394  1.00  0.00     0.050 C 
BRANCH  10  12
HETATM   12  O   UNL     1       3.846  28.010  50.490  1.00  0.00    -0.337 OA
BRANCH  12  13
HETATM   13  C   UNL     1       3.429  27.358  49.364  1.00  0.00     0.070 A 
HETATM   14  C   UNL     1       2.218  27.783  48.819  1.00  0.00     0.037 A 
HETATM   15  C   UNL     1       1.740  27.214  47.639  1.00  0.00     0.003 A 
HETATM   16  C   UNL     1       2.486  26.230  46.991  1.00  0.00     0.000 A 
HETATM   17  C   UNL     1       3.711  25.823  47.522  1.00  0.00     0.003 A 
HETATM   18  C   UNL     1       4.189  26.393  48.704  1.00  0.00     0.037 A 
ENDBRANCH  12  13
ENDBRANCH  10  12
ENDBRANCH   7  10
ENDBRANCH   1   6
BRANCH   2  19
HETATM   19  C   UNL     1       6.898  27.005  55.294  1.00  0.00     0.732 A 
HETATM   20  N   UNL     1       6.022  27.862  54.869  1.00  0.00    -0.067 NA
HETATM   21  C   UNL     1       5.812  28.961  55.675  1.00  0.00     0.065 A 
HETATM   22  C   UNL     1       6.450  29.179  56.841  1.00  0.00     0.036 A 
HETATM   23  C   UNL     1       4.761  29.928  55.176  1.00  0.00     0.060 C 
HETATM   24  C   UNL     1       6.222  30.369  57.728  1.00  0.00     0.046 C 
HETATM   25  C   UNL     1       7.448  28.178  57.290  1.00  0.00     0.268 A 
HETATM   26  C   UNL     1       5.421  31.479  57.045  1.00  0.00     0.005 C 
HETATM   27  C   UNL     1       4.259  30.902  56.244  1.00  0.00     0.006 C 
HETATM   28  O   UNL     1       8.062  28.288  58.343  1.00  0.00    -0.267 OA
HETATM   29  N   UNL     1       7.619  27.126  56.448  1.00  0.00    -0.152 N 
HETATM   30  H   UNL     1       8.275  26.393  56.701  1.00  0.00     0.188 HD
ENDBRANCH   2  19
BRANCH   4  31
HETATM   31  C   UNL     1       8.181  22.367  54.762  1.00  0.00     0.035 A 
HETATM   32  S   UNL     1       8.218  21.050  53.672  1.00  0.00    -0.100 SA
HETATM   33  C   UNL     1       8.785  19.980  54.880  1.00  0.00     0.050 A 
HETATM   34  C   UNL     1       8.943  20.610  56.094  1.00  0.00     0.008 A 
HETATM   35  C   UNL     1       8.596  21.993  56.025  1.00  0.00     0.022 A 
ENDBRANCH   4  31
TORSDOF 6
ENDMDL
MODEL 9
REMARK VINA RESULT:      -8.4      2.834      6.653
REMARK  6 active torsions:
REMARK  status: ('A' for Active; 'I' for Inactive)
REMARK    1  A    between atoms: C_2  and  O_3 
REMARK    2  A    between atoms: C_2  and  C_10 
REMARK    3  A    between atoms: O_3  and  C_4 
REMARK       I    between atoms: C_10  and  N_11 
REMARK    4  A    between atoms: N_11  and  C_12 
REMARK    5  A    between atoms: N_13  and  C_14 
REMARK    6  A    between atoms: C_26  and  C_27 
ROOT
HETATM    1  C   UNL     1       7.005  25.987  53.669  1.00  0.00     0.152 A 
HETATM    2  N   UNL     1       7.510  25.979  54.961  1.00  0.00    -0.044 N 
HETATM    3  N   UNL     1       7.940  24.743  55.349  1.00  0.00    -0.150 NA
HETATM    4  C   UNL     1       7.685  23.960  54.291  1.00  0.00     0.099 A 
HETATM    5  C   UNL     1       7.103  24.687  53.228  1.00  0.00     0.086 A 
ENDROOT
BRANCH   1   6
HETATM    6  N   UNL     1       6.517  27.143  53.071  1.00  0.00    -0.309 N 
HETATM    7  C   UNL     1       5.161  27.406  52.918  1.00  0.00     0.252 C 
HETATM    8  O   UNL     1       4.268  26.652  53.302  1.00  0.00    -0.270 OA
HETATM    9  H   UNL     1       7.206  27.862  52.852  1.00  0.00     0.170 HD
BRANCH   7  10
HETATM   10  C   UNL     1       4.863  28.741  52.178  1.00  0.00     0.217 C 
HETATM   11  C   UNL     1       4.296  29.796  53.129  1.00  0.00     0.050 C 
BRANCH  10  12
HETATM   12  O   UNL     1       3.875  28.599  51.151  1.00  0.00    -0.337 OA
BRANCH  12  13
HETATM   13  C   UNL     1       4.348  28.270  49.912  1.00  0.00     0.070 A 
HETATM   14  C   UNL     1       4.144  26.951  49.506  1.00  0.00     0.037 A 
HETATM   15  C   UNL     1       4.541  26.539  48.234  1.00  0.00     0.003 A 
HETATM   16  C   UNL     1       5.128  27.453  47.360  1.00  0.00     0.000 A 
HETATM   17  C   UNL     1       5.308  28.778  47.757  1.00  0.00     0.003 A 
HETATM   18  C   UNL     1       4.909  29.191  49.030  1.00  0.00     0.037 A 
ENDBRANCH  12  13
ENDBRANCH  10  12
ENDBRANCH   7  10
ENDBRANCH   1   6
BRANCH   2  19
HETATM   19  C   UNL     1       7.570  27.052  55.873  1.00  0.00     0.732 A 
HETATM   20  N   UNL     1       8.679  27.628  56.224  1.00  0.00    -0.067 NA
HETATM   21  C   UNL     1       8.558  28.690  57.095  1.00  0.00     0.065 A 
HETATM   22  C   UNL     1       7.386  29.141  57.583  1.00  0.00     0.036 A 
HETATM   23  C   UNL     1       9.860  29.367  57.461  1.00  0.00     0.060 C 
HETATM   24  C   UNL     1       7.246  30.300  58.528  1.00  0.00     0.046 C 
HETATM   25  C   UNL     1       6.142  28.452  57.162  1.00  0.00     0.268 A 
HETATM   26  C   UNL     1       8.578  30.739  59.137  1.00  0.00     0.005 C 
HETATM   27  C   UNL     1       9.683  30.752  58.087  1.00  0.00     0.006 C 
HETATM   28  O   UNL     1       5.033  28.805  57.543  1.00  0.00    -0.267 OA
HETATM   29  N   UNL     1       6.327  27.407  56.314  1.00  0.00    -0.152 N 
HETATM   30  H   UNL     1       5.516  26.901  55.970  1.00  0.00     0.188 HD
ENDBRANCH   2  19
BRANCH   4  31
HETATM   31  C   UNL     1       8.001  22.493  54.299  1.00  0.00     0.035 A 
HETATM   32  S   UNL     1       8.416  21.601  55.697  1.00  0.00    -0.100 SA
HETATM   33  C   UNL     1       8.588  20.153  54.803  1.00  0.00     0.050 A 
HETATM   34  C   UNL     1       8.336  20.342  53.462  1.00  0.00     0.008 A 
HETATM   35  C   UNL     1       7.993  21.696  53.172  1.00  0.00     0.022 A 
ENDBRANCH   4  31
TORSDOF 6
ENDMDL
MODEL 10
REMARK VINA RESULT:      -8.3      3.248      8.209
REMARK  6 active torsions:
REMARK  status: ('A' for Active; 'I' for Inactive)
REMARK    1  A    between atoms: C_2  and  O_3 
REMARK    2  A    between atoms: C_2  and  C_10 
REMARK    3  A    between atoms: O_3  and  C_4 
REMARK       I    between atoms: C_10  and  N_11 
REMARK    4  A    between atoms: N_11  and  C_12 
REMARK    5  A    between atoms: N_13  and  C_14 
REMARK    6  A    between atoms: C_26  and  C_27 
ROOT
HETATM    1  C   UNL     1       6.754  29.008  55.585  1.00  0.00     0.152 A 
HETATM    2  N   UNL     1       7.223  28.006  56.422  1.00  0.00    -0.044 N 
HETATM    3  N   UNL     1       7.501  28.461  57.679  1.00  0.00    -0.150 NA
HETATM    4  C   UNL     1       7.220  29.769  57.625  1.00  0.00     0.099 A 
HETATM    5  C   UNL     1       6.755  30.155  56.347  1.00  0.00     0.086 A 
ENDROOT
BRANCH   1   6
HETATM    6  N   UNL     1       6.403  28.765  54.262  1.00  0.00    -0.309 N 
HETATM    7  C   UNL     1       5.098  28.846  53.794  1.00  0.00     0.252 C 
HETATM    8  O   UNL     1       4.134  29.145  54.497  1.00  0.00    -0.270 OA
HETATM    9  H   UNL     1       7.175  28.642  53.607  1.00  0.00     0.170 HD
BRANCH   7  10
HETATM   10  C   UNL     1       4.950  28.486  52.288  1.00  0.00     0.217 C 
HETATM   11  C   UNL     1       5.078  26.980  52.055  1.00  0.00     0.050 C 
BRANCH  10  12
HETATM   12  O   UNL     1       5.970  29.075  51.474  1.00  0.00    -0.337 OA
BRANCH  12  13
HETATM   13  C   UNL     1       5.533  29.752  50.371  1.00  0.00     0.070 A 
HETATM   14  C   UNL     1       5.507  31.143  50.473  1.00  0.00     0.037 A 
HETATM   15  C   UNL     1       5.129  31.921  49.379  1.00  0.00     0.003 A 
HETATM   16  C   UNL     1       4.796  31.306  48.172  1.00  0.00     0.000 A 
HETATM   17  C   UNL     1       4.849  29.916  48.062  1.00  0.00     0.003 A 
HETATM   18  C   UNL     1       5.227  29.137  49.158  1.00  0.00     0.037 A 
ENDBRANCH  12  13
ENDBRANCH  10  12
ENDBRANCH   7  10
ENDBRANCH   1   6
BRANCH   2  19
HETATM   19  C   UNL     1       7.472  26.657  56.101  1.00  0.00     0.732 A 
HETATM   20  N   UNL     1       7.145  26.122  54.966  1.00  0.00    -0.067 NA
HETATM   21  C   UNL     1       7.497  24.800  54.797  1.00  0.00     0.065 A 
HETATM   22  C   UNL     1       8.141  24.062  55.722  1.00  0.00     0.036 A 
HETATM   23  C   UNL     1       7.135  24.209  53.452  1.00  0.00     0.060 C 
HETATM   24  C   UNL     1       8.533  22.624  55.544  1.00  0.00     0.046 C 
HETATM   25  C   UNL     1       8.494  24.709  57.009  1.00  0.00     0.268 A 
HETATM   26  C   UNL     1       7.865  21.968  54.334  1.00  0.00     0.005 C 
HETATM   27  C   UNL     1       7.869  22.905  53.132  1.00  0.00     0.006 C 
HETATM   28  O   UNL     1       9.093  24.119  57.899  1.00  0.00    -0.267 OA
HETATM   29  N   UNL     1       8.110  26.007  57.120  1.00  0.00    -0.152 N 
HETATM   30  H   UNL     1       8.335  26.518  57.969  1.00  0.00     0.188 HD
ENDBRANCH   2  19
BRANCH   4  31
HETATM   31  C   UNL     1       7.399  30.666  58.815  1.00  0.00     0.035 A 
HETATM   32  S   UNL     1       8.670  30.525  59.949  1.00  0.00    -0.100 SA
HETATM   33  C   UNL     1       8.093  31.853  60.861  1.00  0.00     0.050 A 
HETATM   34  C   UNL     1       6.952  32.396  60.314  1.00  0.00     0.008 A 
HETATM   35  C   UNL     1       6.552  31.711  59.128  1.00  0.00     0.022 A 
ENDBRANCH   4  31
TORSDOF 6
ENDMDL
