MODEL 1
REMARK VINA RESULT:      -9.1      0.000      0.000
REMARK  7 active torsions:
REMARK  status: ('A' for Active; 'I' for Inactive)
REMARK    1  A    between atoms: C_4  and  C_5 
REMARK    2  A    between atoms: C_5  and  N_6 
REMARK       I    between atoms: N_6  and  C_7 
REMARK    3  A    between atoms: N_6  and  C_22 
REMARK    4  A    between atoms: C_7  and  C_8 
REMARK    5  A    between atoms: C_13  and  C_14 
REMARK    6  A    between atoms: C_15  and  O_16 
REMARK    7  A    between atoms: C_22  and  C_23 
ROOT
HETATM    1  N   UNL     1       6.573  27.862  55.582  1.00  0.00    -0.343 N 
HETATM    2  C   UNL     1       5.308  27.949  54.984  1.00  0.00     0.235 C 
HETATM    3  O   UNL     1       4.316  27.433  55.510  1.00  0.00    -0.272 OA
ENDROOT
BRANCH   2   4
HETATM    4  C   UNL     1       5.176  28.648  53.643  1.00  0.00     0.195 C 
HETATM    5  C   UNL     1       3.829  29.296  53.487  1.00  0.00     0.247 C 
HETATM    6  O   UNL     1       3.425  30.278  54.091  1.00  0.00    -0.271 OA
HETATM    7  N   UNL     1       3.118  28.601  52.531  1.00  0.00    -0.290 N 
HETATM    8  N   UNL     1       3.799  27.506  52.012  1.00  0.00    -0.228 NA
HETATM    9  H   UNL     1       2.133  28.793  52.370  1.00  0.00     0.183 HD
HETATM   10  C   UNL     1       5.213  27.704  52.427  1.00  0.00     0.134 C 
HETATM   11  H   UNL     1       3.753  27.502  50.990  1.00  0.00     0.147 HD
BRANCH  10  12
HETATM   12  C   UNL     1       5.973  26.405  52.574  1.00  0.00    -0.004 A 
HETATM   13  C   UNL     1       5.325  25.226  52.963  1.00  0.00     0.073 A 
HETATM   14  C   UNL     1       6.021  24.023  53.091  1.00  0.00     0.037 A 
HETATM   15  C   UNL     1       7.385  23.977  52.804  1.00  0.00     0.003 A 
HETATM   16  C   UNL     1       8.047  25.131  52.397  1.00  0.00     0.001 A 
HETATM   17  C   UNL     1       7.349  26.335  52.287  1.00  0.00     0.012 A 
BRANCH  13  18
HETATM   18  O   UNL     1       3.980  25.261  53.203  1.00  0.00    -0.360 OA
HETATM   19  H   UNL     1       3.513  25.317  52.352  1.00  0.00     0.217 HD
ENDBRANCH  13  18
ENDBRANCH  10  12
ENDBRANCH   2   4
BRANCH   1  20
HETATM   20  C   UNL     1       6.631  27.233  56.910  1.00  0.00     0.164 C 
BRANCH  20  21
HETATM   21  C   UNL     1       7.258  25.859  56.918  1.00  0.00    -0.040 A 
HETATM   22  C   UNL     1       6.542  24.736  56.475  1.00  0.00     0.009 A 
HETATM   23  C   UNL     1       7.141  23.477  56.451  1.00  0.00     0.001 A 
HETATM   24  C   UNL     1       8.463  23.322  56.866  1.00  0.00     0.000 A 
HETATM   25  C   UNL     1       9.186  24.428  57.304  1.00  0.00     0.001 A 
HETATM   26  C   UNL     1       8.589  25.690  57.326  1.00  0.00     0.009 A 
ENDBRANCH  20  21
ENDBRANCH   1  20
BRANCH   1  27
HETATM   27  C   UNL     1       7.710  28.680  55.138  1.00  0.00     0.164 C 
BRANCH  27  28
HETATM   28  C   UNL     1       8.559  29.321  56.209  1.00  0.00    -0.040 A 
HETATM   29  C   UNL     1       9.954  29.388  56.078  1.00  0.00     0.009 A 
HETATM   30  C   UNL     1      10.730  30.008  57.057  1.00  0.00     0.001 A 
HETATM   31  C   UNL     1      10.121  30.575  58.175  1.00  0.00     0.000 A 
HETATM   32  C   UNL     1       8.735  30.524  58.313  1.00  0.00     0.001 A 
HETATM   33  C   UNL     1       7.958  29.904  57.334  1.00  0.00     0.009 A 
ENDBRANCH  27  28
ENDBRANCH   1  27
TORSDOF 7
ENDMDL
MODEL 2
REMARK VINA RESULT:      -8.7      1.729      5.447
REMARK  7 active torsions:
REMARK  status: ('A' for Active; 'I' for Inactive)
REMARK    1  A    between atoms: C_4  and  C_5 
REMARK    2  A    between atoms: C_5  and  N_6 
REMARK       I    between atoms: N_6  and  C_7 
REMARK    3  A    between atoms: N_6  and  C_22 
REMARK    4  A    between atoms: C_7  and  C_8 
REMARK    5  A    between atoms: C_13  and  C_14 
REMARK    6  A    between atoms: C_15  and  O_16 
REMARK    7  A    between atoms: C_22  and  C_23 
ROOT
HETATM    1  N   UNL     1       7.161  27.674  54.319  1.00  0.00    -0.343 N 
HETATM    2  C   UNL     1       6.291  28.031  53.280  1.00  0.00     0.235 C 
HETATM    3  O   UNL     1       6.584  28.930  52.484  1.00  0.00    -0.272 OA
ENDROOT
BRANCH   2   4
HETATM    4  C   UNL     1       4.950  27.329  53.168  1.00  0.00     0.195 C 
HETATM    5  C   UNL     1       4.595  27.035  51.738  1.00  0.00     0.247 C 
HETATM    6  O   UNL     1       5.138  26.216  51.013  1.00  0.00    -0.271 OA
HETATM    7  N   UNL     1       3.539  27.844  51.376  1.00  0.00    -0.290 N 
HETATM    8  N   UNL     1       3.122  28.707  52.383  1.00  0.00    -0.228 NA
HETATM    9  H   UNL     1       3.231  27.899  50.409  1.00  0.00     0.183 HD
HETATM   10  C   UNL     1       3.748  28.177  53.623  1.00  0.00     0.134 C 
HETATM   11  H   UNL     1       2.105  28.676  52.489  1.00  0.00     0.147 HD
BRANCH  10  12
HETATM   12  C   UNL     1       4.001  29.247  54.661  1.00  0.00    -0.004 A 
HETATM   13  C   UNL     1       4.086  28.931  56.022  1.00  0.00     0.073 A 
HETATM   14  C   UNL     1       4.329  29.915  56.983  1.00  0.00     0.037 A 
HETATM   15  C   UNL     1       4.518  31.238  56.587  1.00  0.00     0.003 A 
HETATM   16  C   UNL     1       4.457  31.574  55.238  1.00  0.00     0.001 A 
HETATM   17  C   UNL     1       4.198  30.588  54.284  1.00  0.00     0.012 A 
BRANCH  13  18
HETATM   18  O   UNL     1       3.943  27.627  56.407  1.00  0.00    -0.360 OA
HETATM   19  H   UNL     1       3.099  27.291  56.062  1.00  0.00     0.217 HD
ENDBRANCH  13  18
ENDBRANCH  10  12
ENDBRANCH   2   4
BRANCH   1  20
HETATM   20  C   UNL     1       8.472  28.339  54.339  1.00  0.00     0.164 C 
BRANCH  20  21
HETATM   21  C   UNL     1       8.775  29.075  55.623  1.00  0.00    -0.040 A 
HETATM   22  C   UNL     1       7.773  29.300  56.580  1.00  0.00     0.009 A 
HETATM   23  C   UNL     1       8.070  29.948  57.779  1.00  0.00     0.001 A 
HETATM   24  C   UNL     1       9.371  30.376  58.040  1.00  0.00     0.000 A 
HETATM   25  C   UNL     1      10.375  30.156  57.101  1.00  0.00     0.001 A 
HETATM   26  C   UNL     1      10.081  29.505  55.902  1.00  0.00     0.009 A 
ENDBRANCH  20  21
ENDBRANCH   1  20
BRANCH   1  27
HETATM   27  C   UNL     1       6.980  26.448  55.108  1.00  0.00     0.164 C 
BRANCH  27  28
HETATM   28  C   UNL     1       7.368  25.143  54.456  1.00  0.00    -0.040 A 
HETATM   29  C   UNL     1       7.339  23.941  55.178  1.00  0.00     0.009 A 
HETATM   30  C   UNL     1       7.671  22.734  54.561  1.00  0.00     0.001 A 
HETATM   31  C   UNL     1       8.028  22.714  53.214  1.00  0.00     0.000 A 
HETATM   32  C   UNL     1       8.051  23.900  52.483  1.00  0.00     0.001 A 
HETATM   33  C   UNL     1       7.719  25.107  53.098  1.00  0.00     0.009 A 
ENDBRANCH  27  28
ENDBRANCH   1  27
TORSDOF 7
ENDMDL
MODEL 3
REMARK VINA RESULT:      -8.5      1.327      1.789
REMARK  7 active torsions:
REMARK  status: ('A' for Active; 'I' for Inactive)
REMARK    1  A    between atoms: C_4  and  C_5 
REMARK    2  A    between atoms: C_5  and  N_6 
REMARK       I    between atoms: N_6  and  C_7 
REMARK    3  A    between atoms: N_6  and  C_22 
REMARK    4  A    between atoms: C_7  and  C_8 
REMARK    5  A    between atoms: C_13  and  C_14 
REMARK    6  A    between atoms: C_15  and  O_16 
REMARK    7  A    between atoms: C_22  and  C_23 
ROOT
HETATM    1  N   UNL     1       7.200  27.568  56.553  1.00  0.00    -0.343 N 
HETATM    2  C   UNL     1       5.927  28.033  56.194  1.00  0.00     0.235 C 
HETATM    3  O   UNL     1       4.904  27.471  56.599  1.00  0.00    -0.272 OA
ENDROOT
BRANCH   2   4
HETATM    4  C   UNL     1       5.816  29.218  55.251  1.00  0.00     0.195 C 
HETATM    5  C   UNL     1       4.722  30.159  55.670  1.00  0.00     0.247 C 
HETATM    6  O   UNL     1       4.729  30.882  56.655  1.00  0.00    -0.271 OA
HETATM    7  N   UNL     1       3.701  30.080  54.747  1.00  0.00    -0.290 N 
HETATM    8  N   UNL     1       3.934  29.159  53.732  1.00  0.00    -0.228 NA
HETATM    9  H   UNL     1       2.809  30.536  54.915  1.00  0.00     0.183 HD
HETATM   10  C   UNL     1       5.386  28.854  53.819  1.00  0.00     0.134 C 
HETATM   11  H   UNL     1       3.739  29.572  52.816  1.00  0.00     0.147 HD
BRANCH  10  12
HETATM   12  C   UNL     1       5.730  27.469  53.317  1.00  0.00    -0.004 A 
HETATM   13  C   UNL     1       4.730  26.526  53.051  1.00  0.00     0.073 A 
HETATM   14  C   UNL     1       5.042  25.249  52.578  1.00  0.00     0.037 A 
HETATM   15  C   UNL     1       6.372  24.905  52.341  1.00  0.00     0.003 A 
HETATM   16  C   UNL     1       7.382  25.831  52.580  1.00  0.00     0.001 A 
HETATM   17  C   UNL     1       7.064  27.101  53.067  1.00  0.00     0.012 A 
BRANCH  13  18
HETATM   18  O   UNL     1       3.423  26.878  53.243  1.00  0.00    -0.360 OA
HETATM   19  H   UNL     1       3.119  27.380  52.469  1.00  0.00     0.217 HD
ENDBRANCH  13  18
ENDBRANCH  10  12
ENDBRANCH   2   4
BRANCH   1  20
HETATM   20  C   UNL     1       7.247  26.461  57.519  1.00  0.00     0.164 C 
BRANCH  20  21
HETATM   21  C   UNL     1       7.570  25.118  56.909  1.00  0.00    -0.040 A 
HETATM   22  C   UNL     1       6.667  24.482  56.043  1.00  0.00     0.009 A 
HETATM   23  C   UNL     1       6.989  23.260  55.454  1.00  0.00     0.001 A 
HETATM   24  C   UNL     1       8.218  22.657  55.719  1.00  0.00     0.000 A 
HETATM   25  C   UNL     1       9.126  23.278  56.572  1.00  0.00     0.001 A 
HETATM   26  C   UNL     1       8.806  24.504  57.160  1.00  0.00     0.009 A 
ENDBRANCH  20  21
ENDBRANCH   1  20
BRANCH   1  27
HETATM   27  C   UNL     1       8.418  28.355  56.322  1.00  0.00     0.164 C 
BRANCH  27  28
HETATM   28  C   UNL     1       8.772  29.399  57.353  1.00  0.00    -0.040 A 
HETATM   29  C   UNL     1       7.933  29.640  58.451  1.00  0.00     0.009 A 
HETATM   30  C   UNL     1       8.281  30.586  59.416  1.00  0.00     0.001 A 
HETATM   31  C   UNL     1       9.474  31.296  59.299  1.00  0.00     0.000 A 
HETATM   32  C   UNL     1      10.322  31.059  58.219  1.00  0.00     0.001 A 
HETATM   33  C   UNL     1       9.975  30.113  57.253  1.00  0.00     0.009 A 
ENDBRANCH  27  28
ENDBRANCH   1  27
TORSDOF 7
ENDMDL
MODEL 4
REMARK VINA RESULT:      -8.4      1.776      5.447
REMARK  7 active torsions:
REMARK  status: ('A' for Active; 'I' for Inactive)
REMARK    1  A    between atoms: C_4  and  C_5 
REMARK    2  A    between atoms: C_5  and  N_6 
REMARK       I    between atoms: N_6  and  C_7 
REMARK    3  A    between atoms: N_6  and  C_22 
REMARK    4  A    between atoms: C_7  and  C_8 
REMARK    5  A    between atoms: C_13  and  C_14 
REMARK    6  A    between atoms: C_15  and  O_16 
REMARK    7  A    between atoms: C_22  and  C_23 
ROOT
HETATM    1  N   UNL     1       6.971  27.189  54.563  1.00  0.00    -0.343 N 
HETATM    2  C   UNL     1       6.288  27.692  53.446  1.00  0.00     0.235 C 
HETATM    3  O   UNL     1       6.758  28.616  52.773  1.00  0.00    -0.272 OA
ENDROOT
BRANCH   2   4
HETATM    4  C   UNL     1       4.928  27.115  53.095  1.00  0.00     0.195 C 
HETATM    5  C   UNL     1       4.806  26.842  51.622  1.00  0.00     0.247 C 
HETATM    6  O   UNL     1       5.389  25.969  50.998  1.00  0.00    -0.271 OA
HETATM    7  N   UNL     1       3.910  27.741  51.085  1.00  0.00    -0.290 N 
HETATM    8  N   UNL     1       3.404  28.649  52.009  1.00  0.00    -0.228 NA
HETATM    9  H   UNL     1       3.784  27.816  50.079  1.00  0.00     0.183 HD
HETATM   10  C   UNL     1       3.749  28.075  53.336  1.00  0.00     0.134 C 
HETATM   11  H   UNL     1       2.386  28.713  51.933  1.00  0.00     0.147 HD
BRANCH  10  12
HETATM   12  C   UNL     1       3.913  29.127  54.410  1.00  0.00    -0.004 A 
HETATM   13  C   UNL     1       4.312  30.431  54.092  1.00  0.00     0.073 A 
HETATM   14  C   UNL     1       4.455  31.408  55.080  1.00  0.00     0.037 A 
HETATM   15  C   UNL     1       4.174  31.095  56.409  1.00  0.00     0.003 A 
HETATM   16  C   UNL     1       3.757  29.812  56.747  1.00  0.00     0.001 A 
HETATM   17  C   UNL     1       3.631  28.835  55.757  1.00  0.00     0.012 A 
BRANCH  13  18
HETATM   18  O   UNL     1       4.548  30.749  52.783  1.00  0.00    -0.360 OA
HETATM   19  H   UNL     1       4.579  29.927  52.264  1.00  0.00     0.217 HD
ENDBRANCH  13  18
ENDBRANCH  10  12
ENDBRANCH   2   4
BRANCH   1  20
HETATM   20  C   UNL     1       8.311  27.738  54.816  1.00  0.00     0.164 C 
BRANCH  20  21
HETATM   21  C   UNL     1       8.398  28.624  56.037  1.00  0.00    -0.040 A 
HETATM   22  C   UNL     1       7.256  28.920  56.797  1.00  0.00     0.009 A 
HETATM   23  C   UNL     1       7.352  29.708  57.944  1.00  0.00     0.001 A 
HETATM   24  C   UNL     1       8.589  30.207  58.349  1.00  0.00     0.000 A 
HETATM   25  C   UNL     1       9.731  29.918  57.607  1.00  0.00     0.001 A 
HETATM   26  C   UNL     1       9.637  29.126  56.461  1.00  0.00     0.009 A 
ENDBRANCH  20  21
ENDBRANCH   1  20
BRANCH   1  27
HETATM   27  C   UNL     1       6.587  25.932  55.217  1.00  0.00     0.164 C 
BRANCH  27  28
HETATM   28  C   UNL     1       7.279  24.673  54.753  1.00  0.00    -0.040 A 
HETATM   29  C   UNL     1       7.019  24.134  53.484  1.00  0.00     0.009 A 
HETATM   30  C   UNL     1       7.684  22.987  53.050  1.00  0.00     0.001 A 
HETATM   31  C   UNL     1       8.622  22.370  53.875  1.00  0.00     0.000 A 
HETATM   32  C   UNL     1       8.897  22.900  55.133  1.00  0.00     0.001 A 
HETATM   33  C   UNL     1       8.234  24.047  55.569  1.00  0.00     0.009 A 
ENDBRANCH  27  28
ENDBRANCH   1  27
TORSDOF 7
ENDMDL
MODEL 5
REMARK VINA RESULT:      -7.8      7.691     11.060
REMARK  7 active torsions:
REMARK  status: ('A' for Active; 'I' for Inactive)
REMARK    1  A    between atoms: C_4  and  C_5 
REMARK    2  A    between atoms: C_5  and  N_6 
REMARK       I    between atoms: N_6  and  C_7 
REMARK    3  A    between atoms: N_6  and  C_22 
REMARK    4  A    between atoms: C_7  and  C_8 
REMARK    5  A    between atoms: C_13  and  C_14 
REMARK    6  A    between atoms: C_15  and  O_16 
REMARK    7  A    between atoms: C_22  and  C_23 
ROOT
HETATM    1  N   UNL     1       3.527  34.797  61.562  1.00  0.00    -0.343 N 
HETATM    2  C   UNL     1       3.870  33.530  61.071  1.00  0.00     0.235 C 
HETATM    3  O   UNL     1       3.551  32.502  61.679  1.00  0.00    -0.272 OA
ENDROOT
BRANCH   2   4
HETATM    4  C   UNL     1       4.688  33.432  59.796  1.00  0.00     0.195 C 
HETATM    5  C   UNL     1       4.001  32.587  58.761  1.00  0.00     0.247 C 
HETATM    6  O   UNL     1       2.988  32.881  58.144  1.00  0.00    -0.271 OA
HETATM    7  N   UNL     1       4.713  31.417  58.610  1.00  0.00    -0.290 N 
HETATM    8  N   UNL     1       5.817  31.320  59.450  1.00  0.00    -0.228 NA
HETATM    9  H   UNL     1       4.346  30.649  58.055  1.00  0.00     0.183 HD
HETATM   10  C   UNL     1       6.033  32.700  59.957  1.00  0.00     0.134 C 
HETATM   11  H   UNL     1       6.646  31.028  58.927  1.00  0.00     0.147 HD
BRANCH  10  12
HETATM   12  C   UNL     1       6.687  32.733  61.321  1.00  0.00    -0.004 A 
HETATM   13  C   UNL     1       7.513  31.690  61.753  1.00  0.00     0.073 A 
HETATM   14  C   UNL     1       8.127  31.721  63.007  1.00  0.00     0.037 A 
HETATM   15  C   UNL     1       7.939  32.820  63.843  1.00  0.00     0.003 A 
HETATM   16  C   UNL     1       7.136  33.879  63.428  1.00  0.00     0.001 A 
HETATM   17  C   UNL     1       6.513  33.834  62.179  1.00  0.00     0.012 A 
BRANCH  13  18
HETATM   18  O   UNL     1       7.732  30.631  60.917  1.00  0.00    -0.360 OA
HETATM   19  H   UNL     1       7.046  29.961  61.076  1.00  0.00     0.217 HD
ENDBRANCH  13  18
ENDBRANCH  10  12
ENDBRANCH   2   4
BRANCH   1  20
HETATM   20  C   UNL     1       2.679  34.830  62.762  1.00  0.00     0.164 C 
BRANCH  20  21
HETATM   21  C   UNL     1       3.444  34.950  64.060  1.00  0.00    -0.040 A 
HETATM   22  C   UNL     1       3.834  33.809  64.776  1.00  0.00     0.009 A 
HETATM   23  C   UNL     1       4.572  33.928  65.954  1.00  0.00     0.001 A 
HETATM   24  C   UNL     1       4.934  35.187  66.429  1.00  0.00     0.000 A 
HETATM   25  C   UNL     1       4.558  36.329  65.726  1.00  0.00     0.001 A 
HETATM   26  C   UNL     1       3.822  36.211  64.546  1.00  0.00     0.009 A 
ENDBRANCH  20  21
ENDBRANCH   1  20
BRANCH   1  27
HETATM   27  C   UNL     1       3.644  36.014  60.747  1.00  0.00     0.164 C 
BRANCH  27  28
HETATM   28  C   UNL     1       4.354  37.193  61.366  1.00  0.00    -0.040 A 
HETATM   29  C   UNL     1       5.668  37.074  61.845  1.00  0.00     0.009 A 
HETATM   30  C   UNL     1       6.328  38.175  62.389  1.00  0.00     0.001 A 
HETATM   31  C   UNL     1       5.687  39.411  62.455  1.00  0.00     0.000 A 
HETATM   32  C   UNL     1       4.387  39.546  61.974  1.00  0.00     0.001 A 
HETATM   33  C   UNL     1       3.725  38.445  61.429  1.00  0.00     0.009 A 
ENDBRANCH  27  28
ENDBRANCH   1  27
TORSDOF 7
ENDMDL
MODEL 6
REMARK VINA RESULT:      -7.8      2.198      3.641
REMARK  7 active torsions:
REMARK  status: ('A' for Active; 'I' for Inactive)
REMARK    1  A    between atoms: C_4  and  C_5 
REMARK    2  A    between atoms: C_5  and  N_6 
REMARK       I    between atoms: N_6  and  C_7 
REMARK    3  A    between atoms: N_6  and  C_22 
REMARK    4  A    between atoms: C_7  and  C_8 
REMARK    5  A    between atoms: C_13  and  C_14 
REMARK    6  A    between atoms: C_15  and  O_16 
REMARK    7  A    between atoms: C_22  and  C_23 
ROOT
HETATM    1  N   UNL     1       5.315  27.311  53.357  1.00  0.00    -0.343 N 
HETATM    2  C   UNL     1       4.237  28.203  53.290  1.00  0.00     0.235 C 
HETATM    3  O   UNL     1       3.070  27.796  53.286  1.00  0.00    -0.272 OA
ENDROOT
BRANCH   2   4
HETATM    4  C   UNL     1       4.519  29.690  53.174  1.00  0.00     0.195 C 
HETATM    5  C   UNL     1       3.689  30.489  54.138  1.00  0.00     0.247 C 
HETATM    6  O   UNL     1       3.814  30.513  55.353  1.00  0.00    -0.271 OA
HETATM    7  N   UNL     1       2.757  31.208  53.419  1.00  0.00    -0.290 N 
HETATM    8  N   UNL     1       2.811  30.983  52.048  1.00  0.00    -0.228 NA
HETATM    9  H   UNL     1       2.009  31.711  53.889  1.00  0.00     0.183 HD
HETATM   10  C   UNL     1       4.117  30.310  51.823  1.00  0.00     0.134 C 
HETATM   11  H   UNL     1       2.803  31.868  51.535  1.00  0.00     0.147 HD
BRANCH  10  12
HETATM   12  C   UNL     1       4.114  29.404  50.612  1.00  0.00    -0.004 A 
HETATM   13  C   UNL     1       2.950  28.741  50.206  1.00  0.00     0.073 A 
HETATM   14  C   UNL     1       2.940  27.912  49.083  1.00  0.00     0.037 A 
HETATM   15  C   UNL     1       4.102  27.753  48.329  1.00  0.00     0.003 A 
HETATM   16  C   UNL     1       5.267  28.416  48.701  1.00  0.00     0.001 A 
HETATM   17  C   UNL     1       5.274  29.232  49.835  1.00  0.00     0.012 A 
BRANCH  13  18
HETATM   18  O   UNL     1       1.799  28.930  50.920  1.00  0.00    -0.360 OA
HETATM   19  H   UNL     1       2.033  29.245  51.810  1.00  0.00     0.217 HD
ENDBRANCH  13  18
ENDBRANCH  10  12
ENDBRANCH   2   4
BRANCH   1  20
HETATM   20  C   UNL     1       4.983  25.890  53.536  1.00  0.00     0.164 C 
BRANCH  20  21
HETATM   21  C   UNL     1       6.185  24.981  53.648  1.00  0.00    -0.040 A 
HETATM   22  C   UNL     1       6.568  24.440  54.885  1.00  0.00     0.009 A 
HETATM   23  C   UNL     1       7.657  23.572  54.973  1.00  0.00     0.001 A 
HETATM   24  C   UNL     1       8.374  23.230  53.828  1.00  0.00     0.000 A 
HETATM   25  C   UNL     1       8.003  23.756  52.594  1.00  0.00     0.001 A 
HETATM   26  C   UNL     1       6.912  24.622  52.503  1.00  0.00     0.009 A 
ENDBRANCH  20  21
ENDBRANCH   1  20
BRANCH   1  27
HETATM   27  C   UNL     1       6.687  27.755  53.637  1.00  0.00     0.164 C 
BRANCH  27  28
HETATM   28  C   UNL     1       7.028  28.084  55.070  1.00  0.00    -0.040 A 
HETATM   29  C   UNL     1       8.279  28.620  55.408  1.00  0.00     0.009 A 
HETATM   30  C   UNL     1       8.576  28.949  56.731  1.00  0.00     0.001 A 
HETATM   31  C   UNL     1       7.625  28.752  57.730  1.00  0.00     0.000 A 
HETATM   32  C   UNL     1       6.375  28.228  57.407  1.00  0.00     0.001 A 
HETATM   33  C   UNL     1       6.076  27.900  56.084  1.00  0.00     0.009 A 
ENDBRANCH  27  28
ENDBRANCH   1  27
TORSDOF 7
ENDMDL
MODEL 7
REMARK VINA RESULT:      -7.7      7.505     10.950
REMARK  7 active torsions:
REMARK  status: ('A' for Active; 'I' for Inactive)
REMARK    1  A    between atoms: C_4  and  C_5 
REMARK    2  A    between atoms: C_5  and  N_6 
REMARK       I    between atoms: N_6  and  C_7 
REMARK    3  A    between atoms: N_6  and  C_22 
REMARK    4  A    between atoms: C_7  and  C_8 
REMARK    5  A    between atoms: C_13  and  C_14 
REMARK    6  A    between atoms: C_15  and  O_16 
REMARK    7  A    between atoms: C_22  and  C_23 
ROOT
HETATM    1  N   UNL     1       5.179  33.293  61.657  1.00  0.00    -0.343 N 
HETATM    2  C   UNL     1       4.377  33.552  62.777  1.00  0.00     0.235 C 
HETATM    3  O   UNL     1       3.268  33.022  62.905  1.00  0.00    -0.272 OA
ENDROOT
BRANCH   2   4
HETATM    4  C   UNL     1       4.868  34.541  63.820  1.00  0.00     0.195 C 
HETATM    5  C   UNL     1       4.339  34.212  65.187  1.00  0.00     0.247 C 
HETATM    6  O   UNL     1       4.659  33.254  65.876  1.00  0.00    -0.271 OA
HETATM    7  N   UNL     1       3.429  35.183  65.549  1.00  0.00    -0.290 N 
HETATM    8  N   UNL     1       3.227  36.152  64.572  1.00  0.00    -0.228 NA
HETATM    9  H   UNL     1       2.854  35.077  66.380  1.00  0.00     0.183 HD
HETATM   10  C   UNL     1       4.358  35.980  63.624  1.00  0.00     0.134 C 
HETATM   11  H   UNL     1       3.277  37.090  64.978  1.00  0.00     0.147 HD
BRANCH  10  12
HETATM   12  C   UNL     1       4.018  36.414  62.215  1.00  0.00    -0.004 A 
HETATM   13  C   UNL     1       2.767  36.135  61.652  1.00  0.00     0.073 A 
HETATM   14  C   UNL     1       2.446  36.542  60.356  1.00  0.00     0.037 A 
HETATM   15  C   UNL     1       3.375  37.264  59.607  1.00  0.00     0.003 A 
HETATM   16  C   UNL     1       4.618  37.569  60.151  1.00  0.00     0.001 A 
HETATM   17  C   UNL     1       4.939  37.145  61.442  1.00  0.00     0.012 A 
BRANCH  13  18
HETATM   18  O   UNL     1       1.841  35.464  62.402  1.00  0.00    -0.360 OA
HETATM   19  H   UNL     1       1.035  36.005  62.457  1.00  0.00     0.217 HD
ENDBRANCH  13  18
ENDBRANCH  10  12
ENDBRANCH   2   4
BRANCH   1  20
HETATM   20  C   UNL     1       4.684  32.280  60.715  1.00  0.00     0.164 C 
BRANCH  20  21
HETATM   21  C   UNL     1       4.790  32.679  59.261  1.00  0.00    -0.040 A 
HETATM   22  C   UNL     1       5.287  31.786  58.301  1.00  0.00     0.009 A 
HETATM   23  C   UNL     1       5.347  32.150  56.956  1.00  0.00     0.001 A 
HETATM   24  C   UNL     1       4.907  33.410  56.552  1.00  0.00     0.000 A 
HETATM   25  C   UNL     1       4.408  34.305  57.493  1.00  0.00     0.001 A 
HETATM   26  C   UNL     1       4.344  33.941  58.839  1.00  0.00     0.009 A 
ENDBRANCH  20  21
ENDBRANCH   1  20
BRANCH   1  27
HETATM   27  C   UNL     1       6.594  33.681  61.598  1.00  0.00     0.164 C 
BRANCH  27  28
HETATM   28  C   UNL     1       7.614  32.569  61.561  1.00  0.00    -0.040 A 
HETATM   29  C   UNL     1       8.508  32.446  60.488  1.00  0.00     0.009 A 
HETATM   30  C   UNL     1       9.468  31.433  60.475  1.00  0.00     0.001 A 
HETATM   31  C   UNL     1       9.550  30.537  61.538  1.00  0.00     0.000 A 
HETATM   32  C   UNL     1       8.675  30.653  62.616  1.00  0.00     0.001 A 
HETATM   33  C   UNL     1       7.715  31.666  62.630  1.00  0.00     0.009 A 
ENDBRANCH  27  28
ENDBRANCH   1  27
TORSDOF 7
ENDMDL
MODEL 8
REMARK VINA RESULT:      -7.6      7.447     10.117
REMARK  7 active torsions:
REMARK  status: ('A' for Active; 'I' for Inactive)
REMARK    1  A    between atoms: C_4  and  C_5 
REMARK    2  A    between atoms: C_5  and  N_6 
REMARK       I    between atoms: N_6  and  C_7 
REMARK    3  A    between atoms: N_6  and  C_22 
REMARK    4  A    between atoms: C_7  and  C_8 
REMARK    5  A    between atoms: C_13  and  C_14 
REMARK    6  A    between atoms: C_15  and  O_16 
REMARK    7  A    between atoms: C_22  and  C_23 
ROOT
HETATM    1  N   UNL     1       5.479  33.222  62.798  1.00  0.00    -0.343 N 
HETATM    2  C   UNL     1       4.125  33.052  62.479  1.00  0.00     0.235 C 
HETATM    3  O   UNL     1       3.654  31.929  62.269  1.00  0.00    -0.272 OA
ENDROOT
BRANCH   2   4
HETATM    4  C   UNL     1       3.241  34.280  62.345  1.00  0.00     0.195 C 
HETATM    5  C   UNL     1       1.998  34.161  63.180  1.00  0.00     0.247 C 
HETATM    6  O   UNL     1       1.940  34.195  64.399  1.00  0.00    -0.271 OA
HETATM    7  N   UNL     1       0.917  34.016  62.335  1.00  0.00    -0.290 N 
HETATM    8  N   UNL     1       1.259  33.985  60.988  1.00  0.00    -0.228 NA
HETATM    9  H   UNL     1      -0.003  33.785  62.699  1.00  0.00     0.183 HD
HETATM   10  C   UNL     1       2.656  34.492  60.937  1.00  0.00     0.134 C 
HETATM   11  H   UNL     1       0.661  34.614  60.448  1.00  0.00     0.147 HD
BRANCH  10  12
HETATM   12  C   UNL     1       3.440  33.945  59.765  1.00  0.00    -0.004 A 
HETATM   13  C   UNL     1       3.272  32.624  59.333  1.00  0.00     0.073 A 
HETATM   14  C   UNL     1       3.986  32.118  58.245  1.00  0.00     0.037 A 
HETATM   15  C   UNL     1       4.870  32.944  57.553  1.00  0.00     0.003 A 
HETATM   16  C   UNL     1       5.041  34.267  57.951  1.00  0.00     0.001 A 
HETATM   17  C   UNL     1       4.335  34.762  59.049  1.00  0.00     0.012 A 
BRANCH  13  18
HETATM   18  O   UNL     1       2.373  31.826  59.985  1.00  0.00    -0.360 OA
HETATM   19  H   UNL     1       1.538  32.313  60.083  1.00  0.00     0.217 HD
ENDBRANCH  13  18
ENDBRANCH  10  12
ENDBRANCH   2   4
BRANCH   1  20
HETATM   20  C   UNL     1       6.271  31.997  62.980  1.00  0.00     0.164 C 
BRANCH  20  21
HETATM   21  C   UNL     1       7.383  31.822  61.973  1.00  0.00    -0.040 A 
HETATM   22  C   UNL     1       8.608  31.247  62.343  1.00  0.00     0.009 A 
HETATM   23  C   UNL     1       9.617  31.055  61.398  1.00  0.00     0.001 A 
HETATM   24  C   UNL     1       9.414  31.431  60.072  1.00  0.00     0.000 A 
HETATM   25  C   UNL     1       8.202  31.999  59.689  1.00  0.00     0.001 A 
HETATM   26  C   UNL     1       7.191  32.189  60.633  1.00  0.00     0.009 A 
ENDBRANCH  20  21
ENDBRANCH   1  20
BRANCH   1  27
HETATM   27  C   UNL     1       6.011  34.489  63.315  1.00  0.00     0.164 C 
BRANCH  27  28
HETATM   28  C   UNL     1       5.735  34.814  64.763  1.00  0.00    -0.040 A 
HETATM   29  C   UNL     1       4.865  35.856  65.114  1.00  0.00     0.009 A 
HETATM   30  C   UNL     1       4.591  36.132  66.454  1.00  0.00     0.001 A 
HETATM   31  C   UNL     1       5.179  35.365  67.459  1.00  0.00     0.000 A 
HETATM   32  C   UNL     1       6.038  34.321  67.124  1.00  0.00     0.001 A 
HETATM   33  C   UNL     1       6.312  34.043  65.784  1.00  0.00     0.009 A 
ENDBRANCH  27  28
ENDBRANCH   1  27
TORSDOF 7
ENDMDL
MODEL 9
REMARK VINA RESULT:      -7.5      2.758      6.495
REMARK  7 active torsions:
REMARK  status: ('A' for Active; 'I' for Inactive)
REMARK    1  A    between atoms: C_4  and  C_5 
REMARK    2  A    between atoms: C_5  and  N_6 
REMARK       I    between atoms: N_6  and  C_7 
REMARK    3  A    between atoms: N_6  and  C_22 
REMARK    4  A    between atoms: C_7  and  C_8 
REMARK    5  A    between atoms: C_13  and  C_14 
REMARK    6  A    between atoms: C_15  and  O_16 
REMARK    7  A    between atoms: C_22  and  C_23 
ROOT
HETATM    1  N   UNL     1       4.863  28.528  52.634  1.00  0.00    -0.343 N 
HETATM    2  C   UNL     1       5.594  28.312  53.810  1.00  0.00     0.235 C 
HETATM    3  O   UNL     1       6.818  28.478  53.840  1.00  0.00    -0.272 OA
ENDROOT
BRANCH   2   4
HETATM    4  C   UNL     1       4.866  27.822  55.049  1.00  0.00     0.195 C 
HETATM    5  C   UNL     1       5.058  28.756  56.210  1.00  0.00     0.247 C 
HETATM    6  O   UNL     1       4.588  29.878  56.321  1.00  0.00    -0.271 OA
HETATM    7  N   UNL     1       5.853  28.130  57.147  1.00  0.00    -0.290 N 
HETATM    8  N   UNL     1       6.276  26.862  56.765  1.00  0.00    -0.228 NA
HETATM    9  H   UNL     1       6.215  28.638  57.949  1.00  0.00     0.183 HD
HETATM   10  C   UNL     1       5.403  26.497  55.619  1.00  0.00     0.134 C 
HETATM   11  H   UNL     1       6.128  26.188  57.520  1.00  0.00     0.147 HD
BRANCH  10  12
HETATM   12  C   UNL     1       6.064  25.538  54.654  1.00  0.00    -0.004 A 
HETATM   13  C   UNL     1       5.345  24.955  53.605  1.00  0.00     0.073 A 
HETATM   14  C   UNL     1       5.954  24.077  52.706  1.00  0.00     0.037 A 
HETATM   15  C   UNL     1       7.312  23.788  52.832  1.00  0.00     0.003 A 
HETATM   16  C   UNL     1       8.053  24.369  53.857  1.00  0.00     0.001 A 
HETATM   17  C   UNL     1       7.434  25.234  54.761  1.00  0.00     0.012 A 
BRANCH  13  18
HETATM   18  O   UNL     1       4.023  25.272  53.454  1.00  0.00    -0.360 OA
HETATM   19  H   UNL     1       3.957  26.105  52.958  1.00  0.00     0.217 HD
ENDBRANCH  13  18
ENDBRANCH  10  12
ENDBRANCH   2   4
BRANCH   1  20
HETATM   20  C   UNL     1       5.607  29.065  51.485  1.00  0.00     0.164 C 
BRANCH  20  21
HETATM   21  C   UNL     1       5.346  28.343  50.184  1.00  0.00    -0.040 A 
HETATM   22  C   UNL     1       4.986  26.987  50.170  1.00  0.00     0.009 A 
HETATM   23  C   UNL     1       4.710  26.338  48.967  1.00  0.00     0.001 A 
HETATM   24  C   UNL     1       4.787  27.035  47.762  1.00  0.00     0.000 A 
HETATM   25  C   UNL     1       5.140  28.382  47.761  1.00  0.00     0.001 A 
HETATM   26  C   UNL     1       5.412  29.034  48.965  1.00  0.00     0.009 A 
ENDBRANCH  20  21
ENDBRANCH   1  20
BRANCH   1  27
HETATM   27  C   UNL     1       3.396  28.607  52.624  1.00  0.00     0.164 C 
BRANCH  27  28
HETATM   28  C   UNL     1       2.765  29.608  51.687  1.00  0.00    -0.040 A 
HETATM   29  C   UNL     1       1.949  29.188  50.626  1.00  0.00     0.009 A 
HETATM   30  C   UNL     1       1.346  30.120  49.782  1.00  0.00     0.001 A 
HETATM   31  C   UNL     1       1.545  31.483  49.992  1.00  0.00     0.000 A 
HETATM   32  C   UNL     1       2.345  31.915  51.047  1.00  0.00     0.001 A 
HETATM   33  C   UNL     1       2.949  30.984  51.893  1.00  0.00     0.009 A 
ENDBRANCH  27  28
ENDBRANCH   1  27
TORSDOF 7
ENDMDL
MODEL 10
REMARK VINA RESULT:      -7.5      2.187      5.329
REMARK  7 active torsions:
REMARK  status: ('A' for Active; 'I' for Inactive)
REMARK    1  A    between atoms: C_4  and  C_5 
REMARK    2  A    between atoms: C_5  and  N_6 
REMARK       I    between atoms: N_6  and  C_7 
REMARK    3  A    between atoms: N_6  and  C_22 
REMARK    4  A    between atoms: C_7  and  C_8 
REMARK    5  A    between atoms: C_13  and  C_14 
REMARK    6  A    between atoms: C_15  and  O_16 
REMARK    7  A    between atoms: C_22  and  C_23 
ROOT
HETATM    1  N   UNL     1       5.680  28.706  54.608  1.00  0.00    -0.343 N 
HETATM    2  C   UNL     1       6.602  29.026  55.614  1.00  0.00     0.235 C 
HETATM    3  O   UNL     1       7.805  29.150  55.362  1.00  0.00    -0.272 OA
ENDROOT
BRANCH   2   4
HETATM    4  C   UNL     1       6.109  29.172  57.043  1.00  0.00     0.195 C 
HETATM    5  C   UNL     1       6.676  30.398  57.701  1.00  0.00     0.247 C 
HETATM    6  O   UNL     1       6.393  31.557  57.436  1.00  0.00    -0.271 OA
HETATM    7  N   UNL     1       7.569  29.999  58.673  1.00  0.00    -0.290 N 
HETATM    8  N   UNL     1       7.726  28.620  58.757  1.00  0.00    -0.228 NA
HETATM    9  H   UNL     1       8.163  30.674  59.145  1.00  0.00     0.183 HD
HETATM   10  C   UNL     1       6.580  28.058  57.996  1.00  0.00     0.134 C 
HETATM   11  H   UNL     1       7.662  28.307  59.728  1.00  0.00     0.147 HD
BRANCH  10  12
HETATM   12  C   UNL     1       6.879  26.704  57.393  1.00  0.00    -0.004 A 
HETATM   13  C   UNL     1       5.849  25.864  56.951  1.00  0.00     0.073 A 
HETATM   14  C   UNL     1       6.121  24.617  56.385  1.00  0.00     0.037 A 
HETATM   15  C   UNL     1       7.442  24.200  56.229  1.00  0.00     0.003 A 
HETATM   16  C   UNL     1       8.484  25.025  56.643  1.00  0.00     0.001 A 
HETATM   17  C   UNL     1       8.204  26.264  57.223  1.00  0.00     0.012 A 
BRANCH  13  18
HETATM   18  O   UNL     1       4.555  26.290  57.065  1.00  0.00    -0.360 OA
HETATM   19  H   UNL     1       4.022  25.853  56.380  1.00  0.00     0.217 HD
ENDBRANCH  13  18
ENDBRANCH  10  12
ENDBRANCH   2   4
BRANCH   1  20
HETATM   20  C   UNL     1       6.201  28.642  53.235  1.00  0.00     0.164 C 
BRANCH  20  21
HETATM   21  C   UNL     1       6.522  27.245  52.757  1.00  0.00    -0.040 A 
HETATM   22  C   UNL     1       5.712  26.602  51.810  1.00  0.00     0.009 A 
HETATM   23  C   UNL     1       6.037  25.326  51.347  1.00  0.00     0.001 A 
HETATM   24  C   UNL     1       7.177  24.679  51.821  1.00  0.00     0.000 A 
HETATM   25  C   UNL     1       7.992  25.307  52.758  1.00  0.00     0.001 A 
HETATM   26  C   UNL     1       7.670  26.584  53.220  1.00  0.00     0.009 A 
ENDBRANCH  20  21
ENDBRANCH   1  20
BRANCH   1  27
HETATM   27  C   UNL     1       4.229  28.815  54.808  1.00  0.00     0.164 C 
BRANCH  27  28
HETATM   28  C   UNL     1       3.604  30.174  54.600  1.00  0.00    -0.040 A 
HETATM   29  C   UNL     1       3.456  30.709  53.312  1.00  0.00     0.009 A 
HETATM   30  C   UNL     1       2.851  31.952  53.125  1.00  0.00     0.001 A 
HETATM   31  C   UNL     1       2.381  32.671  54.222  1.00  0.00     0.000 A 
HETATM   32  C   UNL     1       2.513  32.147  55.506  1.00  0.00     0.001 A 
HETATM   33  C   UNL     1       3.117  30.904  55.694  1.00  0.00     0.009 A 
ENDBRANCH  27  28
ENDBRANCH   1  27
TORSDOF 7
ENDMDL
