MODEL 1
REMARK VINA RESULT:     -10.2      0.000      0.000
REMARK  5 active torsions:
REMARK  status: ('A' for Active; 'I' for Inactive)
REMARK    1  A    between atoms: C_2  and  C_3 
REMARK    2  A    between atoms: C_8  and  C_9 
REMARK       I    between atoms: C_9  and  N_10 
REMARK    3  A    between atoms: N_10  and  C_11 
REMARK    4  A    between atoms: C_11  and  C_12 
REMARK    5  A    between atoms: C_19  and  C_20 
ROOT
HETATM    1  C   UNL     1       6.957  25.140  56.817  1.00  0.00     0.118 C 
HETATM    2  N   UNL     1       7.886  26.266  56.686  1.00  0.00    -0.366 N 
HETATM    3  C   UNL     1       7.509  27.466  57.174  1.00  0.00     0.123 A 
HETATM    4  N   UNL     1       6.205  27.849  57.091  1.00  0.00    -0.240 N 
HETATM    5  N   UNL     1       5.937  29.030  57.671  1.00  0.00    -0.165 NA
HETATM    6  C   UNL     1       7.158  29.465  58.065  1.00  0.00     0.148 A 
HETATM    7  C   UNL     1       8.172  28.511  57.755  1.00  0.00     0.088 A 
HETATM    8  C   UNL     1       5.194  27.037  56.453  1.00  0.00     0.221 C 
HETATM    9  C   UNL     1       5.468  25.540  56.688  1.00  0.00     0.066 C 
HETATM   10  H   UNL     1       8.860  25.985  56.810  1.00  0.00     0.161 HD
ENDROOT
BRANCH   6  11
HETATM   11  C   UNL     1       7.356  30.767  58.720  1.00  0.00     0.272 C 
HETATM   12  N   UNL     1       7.698  30.671  60.049  1.00  0.00    -0.353 N 
HETATM   13  H   UNL     1       7.603  29.742  60.456  1.00  0.00     0.162 HD
HETATM   14  O   UNL     1       7.211  31.835  58.132  1.00  0.00    -0.266 OA
BRANCH  12  15
HETATM   15  C   UNL     1       7.678  31.821  60.928  1.00  0.00     0.155 C 
BRANCH  15  16
HETATM   16  C   UNL     1       7.446  31.408  62.387  1.00  0.00     0.139 C 
HETATM   17  O   UNL     1       6.028  31.445  62.662  1.00  0.00    -0.384 OA
HETATM   18  C   UNL     1       5.759  32.525  63.568  1.00  0.00     0.168 C 
HETATM   19  C   UNL     1       7.005  33.382  63.614  1.00  0.00     0.029 C 
HETATM   20  C   UNL     1       8.094  32.367  63.375  1.00  0.00     0.035 C 
ENDBRANCH  15  16
ENDBRANCH  12  15
ENDBRANCH   6  11
BRANCH   8  21
HETATM   21  C   UNL     1       5.106  27.384  54.984  1.00  0.00     0.409 C 
HETATM   22  F   UNL     1       4.015  28.127  54.694  1.00  0.00    -0.169 F 
HETATM   23  F   UNL     1       6.184  28.041  54.511  1.00  0.00    -0.169 F 
HETATM   24  F   UNL     1       4.994  26.244  54.250  1.00  0.00    -0.169 F 
ENDBRANCH   8  21
BRANCH   1  25
HETATM   25  C   UNL     1       7.345  24.028  55.858  1.00  0.00    -0.035 A 
HETATM   26  C   UNL     1       7.527  22.721  56.343  1.00  0.00     0.010 A 
HETATM   27  C   UNL     1       7.885  21.681  55.480  1.00  0.00     0.019 A 
HETATM   28  C   UNL     1       8.057  21.938  54.122  1.00  0.00     0.011 A 
HETATM   29  C   UNL     1       7.873  23.223  53.620  1.00  0.00     0.019 A 
HETATM   30 BR   UNL     1       8.545  20.534  52.956  1.00  0.00    -0.051 Br
HETATM   31  C   UNL     1       7.520  24.263  54.485  1.00  0.00     0.010 A 
ENDBRANCH   1  25
TORSDOF 5
ENDMDL
MODEL 2
REMARK VINA RESULT:      -9.7      1.595      2.202
REMARK  5 active torsions:
REMARK  status: ('A' for Active; 'I' for Inactive)
REMARK    1  A    between atoms: C_2  and  C_3 
REMARK    2  A    between atoms: C_8  and  C_9 
REMARK       I    between atoms: C_9  and  N_10 
REMARK    3  A    between atoms: N_10  and  C_11 
REMARK    4  A    between atoms: C_11  and  C_12 
REMARK    5  A    between atoms: C_19  and  C_20 
ROOT
HETATM    1  C   UNL     1       6.153  25.493  55.610  1.00  0.00     0.118 C 
HETATM    2  N   UNL     1       7.174  26.333  56.243  1.00  0.00    -0.366 N 
HETATM    3  C   UNL     1       6.876  27.626  56.487  1.00  0.00     0.123 A 
HETATM    4  N   UNL     1       6.099  28.318  55.609  1.00  0.00    -0.240 N 
HETATM    5  N   UNL     1       5.813  29.573  55.991  1.00  0.00    -0.165 NA
HETATM    6  C   UNL     1       6.527  29.717  57.134  1.00  0.00     0.148 A 
HETATM    7  C   UNL     1       7.218  28.516  57.467  1.00  0.00     0.088 A 
HETATM    8  C   UNL     1       5.604  27.736  54.382  1.00  0.00     0.221 C 
HETATM    9  C   UNL     1       5.279  26.244  54.578  1.00  0.00     0.066 C 
HETATM   10  H   UNL     1       7.715  25.827  56.946  1.00  0.00     0.161 HD
ENDROOT
BRANCH   6  11
HETATM   11  C   UNL     1       6.552  30.978  57.891  1.00  0.00     0.272 C 
HETATM   12  N   UNL     1       7.072  30.850  59.159  1.00  0.00    -0.353 N 
HETATM   13  H   UNL     1       7.209  29.893  59.478  1.00  0.00     0.162 HD
HETATM   14  O   UNL     1       6.132  32.037  57.433  1.00  0.00    -0.266 OA
BRANCH  12  15
HETATM   15  C   UNL     1       6.943  31.901  60.146  1.00  0.00     0.155 C 
BRANCH  15  16
HETATM   16  C   UNL     1       8.285  32.198  60.828  1.00  0.00     0.139 C 
HETATM   17  O   UNL     1       9.193  31.106  60.565  1.00  0.00    -0.384 OA
HETATM   18  C   UNL     1       9.428  30.394  61.788  1.00  0.00     0.168 C 
HETATM   19  C   UNL     1       8.391  30.869  62.781  1.00  0.00     0.029 C 
HETATM   20  C   UNL     1       8.163  32.293  62.341  1.00  0.00     0.035 C 
ENDBRANCH  15  16
ENDBRANCH  12  15
ENDBRANCH   6  11
BRANCH   8  21
HETATM   21  C   UNL     1       6.597  27.968  53.265  1.00  0.00     0.409 C 
HETATM   22  F   UNL     1       7.801  28.380  53.724  1.00  0.00    -0.169 F 
HETATM   23  F   UNL     1       6.806  26.889  52.484  1.00  0.00    -0.169 F 
HETATM   24  F   UNL     1       6.145  28.956  52.447  1.00  0.00    -0.169 F 
ENDBRANCH   8  21
BRANCH   1  25
HETATM   25  C   UNL     1       6.790  24.242  55.032  1.00  0.00    -0.035 A 
HETATM   26  C   UNL     1       6.876  24.084  53.637  1.00  0.00     0.010 A 
HETATM   27  C   UNL     1       7.458  22.941  53.082  1.00  0.00     0.019 A 
HETATM   28  C   UNL     1       7.966  21.948  53.916  1.00  0.00     0.011 A 
HETATM   29  C   UNL     1       7.898  22.088  55.299  1.00  0.00     0.019 A 
HETATM   30 BR   UNL     1       8.747  20.401  53.165  1.00  0.00    -0.051 Br
HETATM   31  C   UNL     1       7.312  23.230  55.854  1.00  0.00     0.010 A 
ENDBRANCH   1  25
TORSDOF 5
ENDMDL
MODEL 3
REMARK VINA RESULT:      -9.5      2.492      3.233
REMARK  5 active torsions:
REMARK  status: ('A' for Active; 'I' for Inactive)
REMARK    1  A    between atoms: C_2  and  C_3 
REMARK    2  A    between atoms: C_8  and  C_9 
REMARK       I    between atoms: C_9  and  N_10 
REMARK    3  A    between atoms: N_10  and  C_11 
REMARK    4  A    between atoms: C_11  and  C_12 
REMARK    5  A    between atoms: C_19  and  C_20 
ROOT
HETATM    1  C   UNL     1       6.575  26.865  54.287  1.00  0.00     0.118 C 
HETATM    2  N   UNL     1       5.567  26.890  55.350  1.00  0.00    -0.366 N 
HETATM    3  C   UNL     1       5.338  28.059  55.986  1.00  0.00     0.123 A 
HETATM    4  N   UNL     1       6.371  28.912  56.224  1.00  0.00    -0.240 N 
HETATM    5  N   UNL     1       6.012  30.070  56.800  1.00  0.00    -0.165 NA
HETATM    6  C   UNL     1       4.687  29.904  57.025  1.00  0.00     0.148 A 
HETATM    7  C   UNL     1       4.233  28.644  56.538  1.00  0.00     0.088 A 
HETATM    8  C   UNL     1       7.736  28.602  55.861  1.00  0.00     0.221 C 
HETATM    9  C   UNL     1       7.782  27.797  54.549  1.00  0.00     0.066 C 
HETATM   10  H   UNL     1       4.763  26.296  55.140  1.00  0.00     0.161 HD
ENDROOT
BRANCH   6  11
HETATM   11  C   UNL     1       3.869  30.926  57.697  1.00  0.00     0.272 C 
HETATM   12  N   UNL     1       4.248  31.169  58.998  1.00  0.00    -0.353 N 
HETATM   13  H   UNL     1       4.916  30.506  59.387  1.00  0.00     0.162 HD
HETATM   14  O   UNL     1       2.929  31.492  57.147  1.00  0.00    -0.266 OA
BRANCH  12  15
HETATM   15  C   UNL     1       3.419  31.935  59.904  1.00  0.00     0.155 C 
BRANCH  15  16
HETATM   16  C   UNL     1       4.236  32.997  60.650  1.00  0.00     0.139 C 
HETATM   17  O   UNL     1       5.641  32.701  60.492  1.00  0.00    -0.384 OA
HETATM   18  C   UNL     1       6.173  32.285  61.758  1.00  0.00     0.168 C 
HETATM   19  C   UNL     1       4.992  32.015  62.665  1.00  0.00     0.029 C 
HETATM   20  C   UNL     1       3.969  32.994  62.148  1.00  0.00     0.035 C 
ENDBRANCH  15  16
ENDBRANCH  12  15
ENDBRANCH   6  11
BRANCH   8  21
HETATM   21  C   UNL     1       8.423  27.885  57.002  1.00  0.00     0.409 C 
HETATM   22  F   UNL     1       7.818  28.112  58.190  1.00  0.00    -0.169 F 
HETATM   23  F   UNL     1       8.509  26.550  56.836  1.00  0.00    -0.169 F 
HETATM   24  F   UNL     1       9.696  28.344  57.130  1.00  0.00    -0.169 F 
ENDBRANCH   8  21
BRANCH   1  25
HETATM   25  C   UNL     1       6.997  25.434  54.001  1.00  0.00    -0.035 A 
HETATM   26  C   UNL     1       6.810  24.443  54.980  1.00  0.00     0.010 A 
HETATM   27  C   UNL     1       7.191  23.120  54.739  1.00  0.00     0.019 A 
HETATM   28  C   UNL     1       7.757  22.775  53.515  1.00  0.00     0.011 A 
HETATM   29  C   UNL     1       7.944  23.739  52.529  1.00  0.00     0.019 A 
HETATM   30 BR   UNL     1       8.277  20.987  53.192  1.00  0.00    -0.051 Br
HETATM   31  C   UNL     1       7.567  25.063  52.772  1.00  0.00     0.010 A 
ENDBRANCH   1  25
TORSDOF 5
ENDMDL
MODEL 4
REMARK VINA RESULT:      -9.2      6.126      9.525
REMARK  5 active torsions:
REMARK  status: ('A' for Active; 'I' for Inactive)
REMARK    1  A    between atoms: C_2  and  C_3 
REMARK    2  A    between atoms: C_8  and  C_9 
REMARK       I    between atoms: C_9  and  N_10 
REMARK    3  A    between atoms: N_10  and  C_11 
REMARK    4  A    between atoms: C_11  and  C_12 
REMARK    5  A    between atoms: C_19  and  C_20 
ROOT
HETATM    1  C   UNL     1       7.583  25.271  52.590  1.00  0.00     0.118 C 
HETATM    2  N   UNL     1       6.325  25.071  51.866  1.00  0.00    -0.366 N 
HETATM    3  C   UNL     1       5.707  26.152  51.346  1.00  0.00     0.123 A 
HETATM    4  N   UNL     1       5.744  27.337  52.015  1.00  0.00    -0.240 N 
HETATM    5  N   UNL     1       5.155  28.356  51.368  1.00  0.00    -0.165 NA
HETATM    6  C   UNL     1       4.634  27.763  50.268  1.00  0.00     0.148 A 
HETATM    7  C   UNL     1       4.950  26.374  50.229  1.00  0.00     0.088 A 
HETATM    8  C   UNL     1       6.387  27.486  53.301  1.00  0.00     0.221 C 
HETATM    9  C   UNL     1       7.638  26.594  53.392  1.00  0.00     0.066 C 
HETATM   10  H   UNL     1       6.324  24.210  51.316  1.00  0.00     0.161 HD
ENDROOT
BRANCH   6  11
HETATM   11  C   UNL     1       3.844  28.507  49.273  1.00  0.00     0.272 C 
HETATM   12  N   UNL     1       2.965  27.720  48.566  1.00  0.00    -0.353 N 
HETATM   13  H   UNL     1       3.087  26.716  48.687  1.00  0.00     0.162 HD
HETATM   14  O   UNL     1       3.977  29.713  49.088  1.00  0.00    -0.266 OA
BRANCH  12  15
HETATM   15  C   UNL     1       2.296  28.202  47.377  1.00  0.00     0.155 C 
BRANCH  15  16
HETATM   16  C   UNL     1       0.798  28.423  47.626  1.00  0.00     0.139 C 
HETATM   17  O   UNL     1       0.063  27.318  47.055  1.00  0.00    -0.384 OA
HETATM   18  C   UNL     1      -0.682  27.791  45.924  1.00  0.00     0.168 C 
HETATM   19  C   UNL     1      -0.151  29.168  45.591  1.00  0.00     0.029 C 
HETATM   20  C   UNL     1       0.272  29.678  46.945  1.00  0.00     0.035 C 
ENDBRANCH  15  16
ENDBRANCH  12  15
ENDBRANCH   6  11
BRANCH   8  21
HETATM   21  C   UNL     1       5.395  27.203  54.408  1.00  0.00     0.409 C 
HETATM   22  F   UNL     1       4.211  27.826  54.210  1.00  0.00    -0.169 F 
HETATM   23  F   UNL     1       5.140  25.893  54.594  1.00  0.00    -0.169 F 
HETATM   24  F   UNL     1       5.880  27.676  55.588  1.00  0.00    -0.169 F 
ENDBRANCH   8  21
BRANCH   1  25
HETATM   25  C   UNL     1       7.890  24.057  53.450  1.00  0.00    -0.035 A 
HETATM   26  C   UNL     1       8.055  24.209  54.838  1.00  0.00     0.010 A 
HETATM   27  C   UNL     1       8.339  23.107  55.649  1.00  0.00     0.019 A 
HETATM   28  C   UNL     1       8.454  21.841  55.080  1.00  0.00     0.011 A 
HETATM   29  C   UNL     1       8.286  21.668  53.709  1.00  0.00     0.019 A 
HETATM   30 BR   UNL     1       8.843  20.352  56.176  1.00  0.00    -0.051 Br
HETATM   31  C   UNL     1       8.007  22.771  52.898  1.00  0.00     0.010 A 
ENDBRANCH   1  25
TORSDOF 5
ENDMDL
MODEL 5
REMARK VINA RESULT:      -9.0      4.368      9.001
REMARK  5 active torsions:
REMARK  status: ('A' for Active; 'I' for Inactive)
REMARK    1  A    between atoms: C_2  and  C_3 
REMARK    2  A    between atoms: C_8  and  C_9 
REMARK       I    between atoms: C_9  and  N_10 
REMARK    3  A    between atoms: N_10  and  C_11 
REMARK    4  A    between atoms: C_11  and  C_12 
REMARK    5  A    between atoms: C_19  and  C_20 
ROOT
HETATM    1  C   UNL     1       8.063  30.432  58.600  1.00  0.00     0.118 C 
HETATM    2  N   UNL     1       7.865  28.985  58.729  1.00  0.00    -0.366 N 
HETATM    3  C   UNL     1       7.592  28.276  57.614  1.00  0.00     0.123 A 
HETATM    4  N   UNL     1       6.821  28.825  56.636  1.00  0.00    -0.240 N 
HETATM    5  N   UNL     1       6.674  28.053  55.547  1.00  0.00    -0.165 NA
HETATM    6  C   UNL     1       7.313  26.910  55.891  1.00  0.00     0.148 A 
HETATM    7  C   UNL     1       7.890  27.010  57.191  1.00  0.00     0.088 A 
HETATM    8  C   UNL     1       6.232  30.140  56.754  1.00  0.00     0.221 C 
HETATM    9  C   UNL     1       7.171  31.090  57.521  1.00  0.00     0.066 C 
HETATM   10  H   UNL     1       8.488  28.566  59.420  1.00  0.00     0.161 HD
ENDROOT
BRANCH   6  11
HETATM   11  C   UNL     1       7.369  25.741  54.999  1.00  0.00     0.272 C 
HETATM   12  N   UNL     1       7.035  24.558  55.618  1.00  0.00    -0.353 N 
HETATM   13  H   UNL     1       6.962  24.604  56.633  1.00  0.00     0.162 HD
HETATM   14  O   UNL     1       7.700  25.820  53.820  1.00  0.00    -0.266 OA
BRANCH  12  15
HETATM   15  C   UNL     1       7.279  23.275  54.995  1.00  0.00     0.155 C 
BRANCH  15  16
HETATM   16  C   UNL     1       8.559  22.624  55.533  1.00  0.00     0.139 C 
HETATM   17  O   UNL     1       9.074  21.713  54.537  1.00  0.00    -0.384 OA
HETATM   18  C   UNL     1       8.922  20.369  55.014  1.00  0.00     0.168 C 
HETATM   19  C   UNL     1       8.000  20.428  56.212  1.00  0.00     0.029 C 
HETATM   20  C   UNL     1       8.310  21.789  56.780  1.00  0.00     0.035 C 
ENDBRANCH  15  16
ENDBRANCH  12  15
ENDBRANCH   6  11
BRANCH   8  21
HETATM   21  C   UNL     1       4.866  30.037  57.396  1.00  0.00     0.409 C 
HETATM   22  F   UNL     1       4.722  30.888  58.437  1.00  0.00    -0.169 F 
HETATM   23  F   UNL     1       3.844  30.256  56.545  1.00  0.00    -0.169 F 
HETATM   24  F   UNL     1       4.691  28.787  57.901  1.00  0.00    -0.169 F 
ENDBRANCH   8  21
BRANCH   1  25
HETATM   25  C   UNL     1       7.925  31.101  59.956  1.00  0.00    -0.035 A 
HETATM   26  C   UNL     1       8.722  30.670  61.031  1.00  0.00     0.010 A 
HETATM   27  C   UNL     1       8.613  31.271  62.288  1.00  0.00     0.019 A 
HETATM   28  C   UNL     1       7.710  32.313  62.480  1.00  0.00     0.011 A 
HETATM   29  C   UNL     1       6.917  32.761  61.427  1.00  0.00     0.019 A 
HETATM   30 BR   UNL     1       7.558  33.122  64.181  1.00  0.00    -0.051 Br
HETATM   31  C   UNL     1       7.024  32.156  60.171  1.00  0.00     0.010 A 
ENDBRANCH   1  25
TORSDOF 5
ENDMDL
MODEL 6
REMARK VINA RESULT:      -8.8      6.114      8.364
REMARK  5 active torsions:
REMARK  status: ('A' for Active; 'I' for Inactive)
REMARK    1  A    between atoms: C_2  and  C_3 
REMARK    2  A    between atoms: C_8  and  C_9 
REMARK       I    between atoms: C_9  and  N_10 
REMARK    3  A    between atoms: N_10  and  C_11 
REMARK    4  A    between atoms: C_11  and  C_12 
REMARK    5  A    between atoms: C_19  and  C_20 
ROOT
HETATM    1  C   UNL     1       7.496  25.447  52.598  1.00  0.00     0.118 C 
HETATM    2  N   UNL     1       6.267  25.380  51.803  1.00  0.00    -0.366 N 
HETATM    3  C   UNL     1       5.762  26.530  51.308  1.00  0.00     0.123 A 
HETATM    4  N   UNL     1       5.853  27.676  52.037  1.00  0.00    -0.240 N 
HETATM    5  N   UNL     1       5.379  28.767  51.415  1.00  0.00    -0.165 NA
HETATM    6  C   UNL     1       4.874  28.269  50.261  1.00  0.00     0.148 A 
HETATM    7  C   UNL     1       5.086  26.863  50.168  1.00  0.00     0.088 A 
HETATM    8  C   UNL     1       6.435  27.713  53.360  1.00  0.00     0.221 C 
HETATM    9  C   UNL     1       7.608  26.722  53.468  1.00  0.00     0.066 C 
HETATM   10  H   UNL     1       6.230  24.549  51.210  1.00  0.00     0.161 HD
ENDROOT
BRANCH   6  11
HETATM   11  C   UNL     1       4.198  29.119  49.268  1.00  0.00     0.272 C 
HETATM   12  N   UNL     1       5.058  29.915  48.546  1.00  0.00    -0.353 N 
HETATM   13  H   UNL     1       6.013  29.952  48.896  1.00  0.00     0.162 HD
HETATM   14  O   UNL     1       2.980  29.122  49.116  1.00  0.00    -0.266 OA
BRANCH  12  15
HETATM   15  C   UNL     1       4.578  30.999  47.716  1.00  0.00     0.155 C 
BRANCH  15  16
HETATM   16  C   UNL     1       4.622  32.339  48.462  1.00  0.00     0.139 C 
HETATM   17  O   UNL     1       4.579  33.412  47.496  1.00  0.00    -0.384 OA
HETATM   18  C   UNL     1       5.849  34.078  47.484  1.00  0.00     0.168 C 
HETATM   19  C   UNL     1       6.816  33.195  48.243  1.00  0.00     0.029 C 
HETATM   20  C   UNL     1       5.911  32.528  49.248  1.00  0.00     0.035 C 
ENDBRANCH  15  16
ENDBRANCH  12  15
ENDBRANCH   6  11
BRANCH   8  21
HETATM   21  C   UNL     1       5.367  27.458  54.400  1.00  0.00     0.409 C 
HETATM   22  F   UNL     1       4.200  28.073  54.102  1.00  0.00    -0.169 F 
HETATM   23  F   UNL     1       5.100  26.152  54.602  1.00  0.00    -0.169 F 
HETATM   24  F   UNL     1       5.765  27.962  55.599  1.00  0.00    -0.169 F 
ENDBRANCH   8  21
BRANCH   1  25
HETATM   25  C   UNL     1       7.664  24.174  53.409  1.00  0.00    -0.035 A 
HETATM   26  C   UNL     1       7.734  24.244  54.811  1.00  0.00     0.010 A 
HETATM   27  C   UNL     1       7.888  23.086  55.579  1.00  0.00     0.019 A 
HETATM   28  C   UNL     1       7.967  21.846  54.950  1.00  0.00     0.011 A 
HETATM   29  C   UNL     1       7.892  21.753  53.564  1.00  0.00     0.019 A 
HETATM   30 BR   UNL     1       8.182  20.281  55.987  1.00  0.00    -0.051 Br
HETATM   31  C   UNL     1       7.742  22.912  52.797  1.00  0.00     0.010 A 
ENDBRANCH   1  25
TORSDOF 5
ENDMDL
MODEL 7
REMARK VINA RESULT:      -8.7      4.373      8.953
REMARK  5 active torsions:
REMARK  status: ('A' for Active; 'I' for Inactive)
REMARK    1  A    between atoms: C_2  and  C_3 
REMARK    2  A    between atoms: C_8  and  C_9 
REMARK       I    between atoms: C_9  and  N_10 
REMARK    3  A    between atoms: N_10  and  C_11 
REMARK    4  A    between atoms: C_11  and  C_12 
REMARK    5  A    between atoms: C_19  and  C_20 
ROOT
HETATM    1  C   UNL     1       7.488  31.688  59.272  1.00  0.00     0.118 C 
HETATM    2  N   UNL     1       7.450  30.224  59.225  1.00  0.00    -0.366 N 
HETATM    3  C   UNL     1       7.187  29.629  58.042  1.00  0.00     0.123 A 
HETATM    4  N   UNL     1       6.307  30.204  57.178  1.00  0.00    -0.240 N 
HETATM    5  N   UNL     1       6.178  29.559  56.007  1.00  0.00    -0.165 NA
HETATM    6  C   UNL     1       6.952  28.460  56.175  1.00  0.00     0.148 A 
HETATM    7  C   UNL     1       7.590  28.465  57.449  1.00  0.00     0.088 A 
HETATM    8  C   UNL     1       5.592  31.422  57.489  1.00  0.00     0.221 C 
HETATM    9  C   UNL     1       6.470  32.370  58.327  1.00  0.00     0.066 C 
HETATM   10  H   UNL     1       8.153  29.795  59.829  1.00  0.00     0.161 HD
ENDROOT
BRANCH   6  11
HETATM   11  C   UNL     1       7.077  27.422  55.140  1.00  0.00     0.272 C 
HETATM   12  N   UNL     1       6.338  26.291  55.401  1.00  0.00    -0.353 N 
HETATM   13  H   UNL     1       5.942  26.236  56.337  1.00  0.00     0.162 HD
HETATM   14  O   UNL     1       7.790  27.554  54.149  1.00  0.00    -0.266 OA
BRANCH  12  15
HETATM   15  C   UNL     1       6.526  25.066  54.652  1.00  0.00     0.155 C 
BRANCH  15  16
HETATM   16  C   UNL     1       6.720  23.863  55.584  1.00  0.00     0.139 C 
HETATM   17  O   UNL     1       7.273  24.327  56.836  1.00  0.00    -0.384 OA
HETATM   18  C   UNL     1       8.623  23.854  56.950  1.00  0.00     0.168 C 
HETATM   19  C   UNL     1       9.027  23.339  55.586  1.00  0.00     0.029 C 
HETATM   20  C   UNL     1       7.712  22.851  55.032  1.00  0.00     0.035 C 
ENDBRANCH  15  16
ENDBRANCH  12  15
ENDBRANCH   6  11
BRANCH   8  21
HETATM   21  C   UNL     1       4.285  31.091  58.174  1.00  0.00     0.409 C 
HETATM   22  F   UNL     1       4.078  29.759  58.272  1.00  0.00    -0.169 F 
HETATM   23  F   UNL     1       4.165  31.615  59.410  1.00  0.00    -0.169 F 
HETATM   24  F   UNL     1       3.248  31.582  57.442  1.00  0.00    -0.169 F 
ENDBRANCH   8  21
BRANCH   1  25
HETATM   25  C   UNL     1       7.361  32.169  60.707  1.00  0.00    -0.035 A 
HETATM   26  C   UNL     1       8.269  31.713  61.678  1.00  0.00     0.010 A 
HETATM   27  C   UNL     1       8.172  32.141  63.005  1.00  0.00     0.019 A 
HETATM   28  C   UNL     1       7.168  33.034  63.372  1.00  0.00     0.011 A 
HETATM   29  C   UNL     1       6.263  33.504  62.424  1.00  0.00     0.019 A 
HETATM   30 BR   UNL     1       7.033  33.608  65.167  1.00  0.00    -0.051 Br
HETATM   31  C   UNL     1       6.359  33.072  61.098  1.00  0.00     0.010 A 
ENDBRANCH   1  25
TORSDOF 5
ENDMDL
MODEL 8
REMARK VINA RESULT:      -8.7      2.307      2.751
REMARK  5 active torsions:
REMARK  status: ('A' for Active; 'I' for Inactive)
REMARK    1  A    between atoms: C_2  and  C_3 
REMARK    2  A    between atoms: C_8  and  C_9 
REMARK       I    between atoms: C_9  and  N_10 
REMARK    3  A    between atoms: N_10  and  C_11 
REMARK    4  A    between atoms: C_11  and  C_12 
REMARK    5  A    between atoms: C_19  and  C_20 
ROOT
HETATM    1  C   UNL     1       6.617  25.850  57.117  1.00  0.00     0.118 C 
HETATM    2  N   UNL     1       7.573  26.962  57.132  1.00  0.00    -0.366 N 
HETATM    3  C   UNL     1       7.132  28.179  57.514  1.00  0.00     0.123 A 
HETATM    4  N   UNL     1       5.872  28.575  57.183  1.00  0.00    -0.240 N 
HETATM    5  N   UNL     1       5.522  29.774  57.675  1.00  0.00    -0.165 NA
HETATM    6  C   UNL     1       6.657  30.204  58.276  1.00  0.00     0.148 A 
HETATM    7  C   UNL     1       7.694  29.231  58.181  1.00  0.00     0.088 A 
HETATM    8  C   UNL     1       4.982  27.758  56.390  1.00  0.00     0.221 C 
HETATM    9  C   UNL     1       5.184  26.265  56.707  1.00  0.00     0.066 C 
HETATM   10  H   UNL     1       8.503  26.673  57.440  1.00  0.00     0.161 HD
ENDROOT
BRANCH   6  11
HETATM   11  C   UNL     1       6.752  31.522  58.924  1.00  0.00     0.272 C 
HETATM   12  N   UNL     1       5.621  31.877  59.622  1.00  0.00    -0.353 N 
HETATM   13  H   UNL     1       4.809  31.282  59.466  1.00  0.00     0.162 HD
HETATM   14  O   UNL     1       7.746  32.237  58.832  1.00  0.00    -0.266 OA
BRANCH  12  15
HETATM   15  C   UNL     1       5.413  33.226  60.104  1.00  0.00     0.155 C 
BRANCH  15  16
HETATM   16  C   UNL     1       3.937  33.634  60.011  1.00  0.00     0.139 C 
HETATM   17  O   UNL     1       3.399  33.158  58.758  1.00  0.00    -0.384 OA
HETATM   18  C   UNL     1       3.128  34.284  57.911  1.00  0.00     0.168 C 
HETATM   19  C   UNL     1       3.809  35.481  58.539  1.00  0.00     0.029 C 
HETATM   20  C   UNL     1       3.748  35.143  60.007  1.00  0.00     0.035 C 
ENDBRANCH  15  16
ENDBRANCH  12  15
ENDBRANCH   6  11
BRANCH   8  21
HETATM   21  C   UNL     1       5.171  28.066  54.921  1.00  0.00     0.409 C 
HETATM   22  F   UNL     1       4.693  29.285  54.585  1.00  0.00    -0.169 F 
HETATM   23  F   UNL     1       6.453  28.003  54.509  1.00  0.00    -0.169 F 
HETATM   24  F   UNL     1       4.478  27.167  54.172  1.00  0.00    -0.169 F 
ENDBRANCH   8  21
BRANCH   1  25
HETATM   25  C   UNL     1       7.156  24.708  56.273  1.00  0.00    -0.035 A 
HETATM   26  C   UNL     1       6.655  24.504  54.976  1.00  0.00     0.010 A 
HETATM   27  C   UNL     1       7.135  23.459  54.181  1.00  0.00     0.019 A 
HETATM   28  C   UNL     1       8.127  22.614  54.674  1.00  0.00     0.011 A 
HETATM   29  C   UNL     1       8.642  22.805  55.953  1.00  0.00     0.019 A 
HETATM   30 BR   UNL     1       8.772  21.199  53.601  1.00  0.00    -0.051 Br
HETATM   31  C   UNL     1       8.158  23.847  56.749  1.00  0.00     0.010 A 
ENDBRANCH   1  25
TORSDOF 5
ENDMDL
MODEL 9
REMARK VINA RESULT:      -8.6      3.296      4.066
REMARK  5 active torsions:
REMARK  status: ('A' for Active; 'I' for Inactive)
REMARK    1  A    between atoms: C_2  and  C_3 
REMARK    2  A    between atoms: C_8  and  C_9 
REMARK       I    between atoms: C_9  and  N_10 
REMARK    3  A    between atoms: N_10  and  C_11 
REMARK    4  A    between atoms: C_11  and  C_12 
REMARK    5  A    between atoms: C_19  and  C_20 
ROOT
HETATM    1  C   UNL     1       6.663  27.146  54.212  1.00  0.00     0.118 C 
HETATM    2  N   UNL     1       5.572  27.225  55.188  1.00  0.00    -0.366 N 
HETATM    3  C   UNL     1       5.333  28.411  55.786  1.00  0.00     0.123 A 
HETATM    4  N   UNL     1       6.374  29.232  56.097  1.00  0.00    -0.240 N 
HETATM    5  N   UNL     1       6.010  30.411  56.625  1.00  0.00    -0.165 NA
HETATM    6  C   UNL     1       4.665  30.295  56.742  1.00  0.00     0.148 A 
HETATM    7  C   UNL     1       4.208  29.043  56.237  1.00  0.00     0.088 A 
HETATM    8  C   UNL     1       7.752  28.869  55.853  1.00  0.00     0.221 C 
HETATM    9  C   UNL     1       7.876  28.041  54.561  1.00  0.00     0.066 C 
HETATM   10  H   UNL     1       4.767  26.655  54.920  1.00  0.00     0.161 HD
ENDROOT
BRANCH   6  11
HETATM   11  C   UNL     1       3.832  31.357  57.329  1.00  0.00     0.272 C 
HETATM   12  N   UNL     1       3.904  32.552  56.652  1.00  0.00    -0.353 N 
HETATM   13  H   UNL     1       4.640  32.611  55.950  1.00  0.00     0.162 HD
HETATM   14  O   UNL     1       3.154  31.187  58.338  1.00  0.00    -0.266 OA
BRANCH  12  15
HETATM   15  C   UNL     1       3.376  33.779  57.212  1.00  0.00     0.155 C 
BRANCH  15  16
HETATM   16  C   UNL     1       4.464  34.578  57.940  1.00  0.00     0.139 C 
HETATM   17  O   UNL     1       4.436  34.233  59.343  1.00  0.00    -0.384 OA
HETATM   18  C   UNL     1       3.967  35.364  60.090  1.00  0.00     0.168 C 
HETATM   19  C   UNL     1       3.389  36.343  59.091  1.00  0.00     0.029 C 
HETATM   20  C   UNL     1       4.233  36.079  57.869  1.00  0.00     0.035 C 
ENDBRANCH  15  16
ENDBRANCH  12  15
ENDBRANCH   6  11
BRANCH   8  21
HETATM   21  C   UNL     1       8.316  28.148  57.057  1.00  0.00     0.409 C 
HETATM   22  F   UNL     1       8.673  26.875  56.773  1.00  0.00    -0.169 F 
HETATM   23  F   UNL     1       9.383  28.757  57.610  1.00  0.00    -0.169 F 
HETATM   24  F   UNL     1       7.367  28.068  58.028  1.00  0.00    -0.169 F 
ENDBRANCH   8  21
BRANCH   1  25
HETATM   25  C   UNL     1       7.055  25.697  53.983  1.00  0.00    -0.035 A 
HETATM   26  C   UNL     1       6.860  24.752  55.004  1.00  0.00     0.010 A 
HETATM   27  C   UNL     1       7.214  23.413  54.816  1.00  0.00     0.019 A 
HETATM   28  C   UNL     1       7.760  23.006  53.601  1.00  0.00     0.011 A 
HETATM   29  C   UNL     1       7.955  23.925  52.574  1.00  0.00     0.019 A 
HETATM   30 BR   UNL     1       8.244  21.197  53.349  1.00  0.00    -0.051 Br
HETATM   31  C   UNL     1       7.604  25.265  52.765  1.00  0.00     0.010 A 
ENDBRANCH   1  25
TORSDOF 5
ENDMDL
MODEL 10
REMARK VINA RESULT:      -8.5      5.280      9.396
REMARK  5 active torsions:
REMARK  status: ('A' for Active; 'I' for Inactive)
REMARK    1  A    between atoms: C_2  and  C_3 
REMARK    2  A    between atoms: C_8  and  C_9 
REMARK       I    between atoms: C_9  and  N_10 
REMARK    3  A    between atoms: N_10  and  C_11 
REMARK    4  A    between atoms: C_11  and  C_12 
REMARK    5  A    between atoms: C_19  and  C_20 
ROOT
HETATM    1  C   UNL     1       5.806  29.221  56.183  1.00  0.00     0.118 C 
HETATM    2  N   UNL     1       6.544  29.120  54.921  1.00  0.00    -0.366 N 
HETATM    3  C   UNL     1       6.088  28.265  53.980  1.00  0.00     0.123 A 
HETATM    4  N   UNL     1       5.529  27.083  54.357  1.00  0.00    -0.240 N 
HETATM    5  N   UNL     1       5.051  26.348  53.340  1.00  0.00    -0.165 NA
HETATM    6  C   UNL     1       5.410  27.063  52.247  1.00  0.00     0.148 A 
HETATM    7  C   UNL     1       6.077  28.268  52.613  1.00  0.00     0.088 A 
HETATM    8  C   UNL     1       5.438  26.669  55.739  1.00  0.00     0.221 C 
HETATM    9  C   UNL     1       5.191  27.882  56.656  1.00  0.00     0.066 C 
HETATM   10  H   UNL     1       6.910  30.021  54.609  1.00  0.00     0.161 HD
ENDROOT
BRANCH   6  11
HETATM   11  C   UNL     1       5.126  26.603  50.879  1.00  0.00     0.272 C 
HETATM   12  N   UNL     1       5.362  27.557  49.916  1.00  0.00    -0.353 N 
HETATM   13  H   UNL     1       5.531  28.498  50.268  1.00  0.00     0.162 HD
HETATM   14  O   UNL     1       4.702  25.478  50.630  1.00  0.00    -0.266 OA
BRANCH  12  15
HETATM   15  C   UNL     1       4.901  27.397  48.553  1.00  0.00     0.155 C 
BRANCH  15  16
HETATM   16  C   UNL     1       3.873  28.471  48.177  1.00  0.00     0.139 C 
HETATM   17  O   UNL     1       3.258  28.971  49.386  1.00  0.00    -0.384 OA
HETATM   18  C   UNL     1       1.888  28.545  49.420  1.00  0.00     0.168 C 
HETATM   19  C   UNL     1       1.730  27.485  48.351  1.00  0.00     0.029 C 
HETATM   20  C   UNL     1       2.741  27.923  47.322  1.00  0.00     0.035 C 
ENDBRANCH  15  16
ENDBRANCH  12  15
ENDBRANCH   6  11
BRANCH   8  21
HETATM   21  C   UNL     1       6.678  25.895  56.128  1.00  0.00     0.409 C 
HETATM   22  F   UNL     1       7.736  26.189  55.339  1.00  0.00    -0.169 F 
HETATM   23  F   UNL     1       7.060  26.079  57.408  1.00  0.00    -0.169 F 
HETATM   24  F   UNL     1       6.452  24.562  55.978  1.00  0.00    -0.169 F 
ENDBRANCH   8  21
BRANCH   1  25
HETATM   25  C   UNL     1       6.675  29.869  57.246  1.00  0.00    -0.035 A 
HETATM   26  C   UNL     1       6.190  30.977  57.963  1.00  0.00     0.010 A 
HETATM   27  C   UNL     1       6.972  31.590  58.946  1.00  0.00     0.019 A 
HETATM   28  C   UNL     1       8.244  31.097  59.225  1.00  0.00     0.011 A 
HETATM   29  C   UNL     1       8.740  29.997  58.532  1.00  0.00     0.019 A 
HETATM   30 BR   UNL     1       9.303  31.930  60.550  1.00  0.00    -0.051 Br
HETATM   31  C   UNL     1       7.959  29.387  57.547  1.00  0.00     0.010 A 
ENDBRANCH   1  25
TORSDOF 5
ENDMDL
