MODEL 1
REMARK VINA RESULT:      -9.7      0.000      0.000
REMARK  8 active torsions:
REMARK  status: ('A' for Active; 'I' for Inactive)
REMARK    1  A    between atoms: C_7  and  C_8 
REMARK       I    between atoms: C_8  and  N_9 
REMARK    2  A    between atoms: N_9  and  C_10 
REMARK    3  A    between atoms: C_11  and  C_12 
REMARK       I    between atoms: C_12  and  N_13 
REMARK    4  A    between atoms: N_13  and  C_14 
REMARK    5  A    between atoms: C_14  and  C_15 
REMARK    6  A    between atoms: C_15  and  C_16 
REMARK    7  A    between atoms: C_17  and  O_18 
REMARK    8  A    between atoms: C_21  and  O_22 
ROOT
HETATM    1  C   UNL     1       8.675  30.147  58.538  1.00  0.00     0.050 A 
HETATM    2  C   UNL     1       8.531  28.994  57.752  1.00  0.00     0.058 A 
HETATM    3  C   UNL     1       9.566  28.610  56.876  1.00  0.00     0.019 A 
HETATM    4  C   UNL     1      10.726  29.377  56.768  1.00  0.00     0.001 A 
HETATM    5  C   UNL     1      10.848  30.549  57.506  1.00  0.00     0.002 A 
HETATM    6  C   UNL     1       9.825  30.938  58.374  1.00  0.00     0.030 A 
ENDROOT
BRANCH   2   7
HETATM    7  C   UNL     1       7.238  28.277  57.590  1.00  0.00     0.253 C 
HETATM    8  N   UNL     1       7.351  26.929  57.320  1.00  0.00    -0.356 N 
HETATM    9  H   UNL     1       8.223  26.471  57.549  1.00  0.00     0.162 HD
HETATM   10  O   UNL     1       6.181  28.896  57.610  1.00  0.00    -0.268 OA
BRANCH   8  11
HETATM   11  C   UNL     1       6.209  26.112  56.960  1.00  0.00     0.127 C 
BRANCH  11  12
HETATM   12  C   UNL     1       5.980  26.005  55.453  1.00  0.00     0.061 C 
BRANCH  12  13
HETATM   13  C   UNL     1       6.755  24.837  54.872  1.00  0.00    -0.023 A 
HETATM   14  C   UNL     1       7.268  24.860  53.561  1.00  0.00     0.077 A 
HETATM   15  C   UNL     1       8.012  23.769  53.085  1.00  0.00     0.074 A 
HETATM   16  C   UNL     1       8.254  22.662  53.903  1.00  0.00     0.070 A 
HETATM   17  C   UNL     1       7.761  22.652  55.207  1.00  0.00     0.037 A 
HETATM   18  C   UNL     1       7.015  23.726  55.687  1.00  0.00     0.013 A 
BRANCH  14  19
HETATM   19  O   UNL     1       7.001  25.992  52.837  1.00  0.00    -0.355 OA
HETATM   20  C   UNL     1       6.149  25.874  51.707  1.00  0.00     0.210 C 
ENDBRANCH  14  19
BRANCH  16  21
HETATM   21  O   UNL     1       8.968  21.546  53.557  1.00  0.00    -0.356 OA
HETATM   22  C   UNL     1       8.253  20.496  52.919  1.00  0.00     0.210 C 
ENDBRANCH  16  21
ENDBRANCH  12  13
ENDBRANCH  11  12
ENDBRANCH   8  11
ENDBRANCH   2   7
BRANCH   1  23
HETATM   23  N   UNL     1       7.760  30.597  59.511  1.00  0.00    -0.321 N 
HETATM   24  C   UNL     1       7.701  31.879  60.029  1.00  0.00     0.265 C 
HETATM   25  O   UNL     1       8.411  32.810  59.659  1.00  0.00    -0.267 OA
HETATM   26  H   UNL     1       6.923  30.043  59.661  1.00  0.00     0.169 HD
BRANCH  24  27
HETATM   27  C   UNL     1       6.548  32.088  61.000  1.00  0.00     0.097 C 
HETATM   28  C   UNL     1       6.741  32.045  62.341  1.00  0.00     0.064 C 
HETATM   29  C   UNL     1       8.048  31.658  62.985  1.00  0.00     0.078 C 
HETATM   30  O   UNL     1       5.775  32.300  63.305  1.00  0.00    -0.353 OA
HETATM   31  C   UNL     1       4.605  32.997  62.879  1.00  0.00     0.185 C 
HETATM   32  C   UNL     1       3.927  32.285  61.729  1.00  0.00     0.106 C 
HETATM   33  S   UNL     1       4.987  32.434  60.272  1.00  0.00    -0.120 SA
ENDBRANCH  24  27
ENDBRANCH   1  23
TORSDOF 8
ENDMDL
MODEL 2
REMARK VINA RESULT:      -9.5      1.165      1.766
REMARK  8 active torsions:
REMARK  status: ('A' for Active; 'I' for Inactive)
REMARK    1  A    between atoms: C_7  and  C_8 
REMARK       I    between atoms: C_8  and  N_9 
REMARK    2  A    between atoms: N_9  and  C_10 
REMARK    3  A    between atoms: C_11  and  C_12 
REMARK       I    between atoms: C_12  and  N_13 
REMARK    4  A    between atoms: N_13  and  C_14 
REMARK    5  A    between atoms: C_14  and  C_15 
REMARK    6  A    between atoms: C_15  and  C_16 
REMARK    7  A    between atoms: C_17  and  O_18 
REMARK    8  A    between atoms: C_21  and  O_22 
ROOT
HETATM    1  C   UNL     1       8.646  30.298  58.472  1.00  0.00     0.050 A 
HETATM    2  C   UNL     1       8.404  29.283  57.534  1.00  0.00     0.058 A 
HETATM    3  C   UNL     1       9.434  28.877  56.662  1.00  0.00     0.019 A 
HETATM    4  C   UNL     1      10.687  29.488  56.708  1.00  0.00     0.001 A 
HETATM    5  C   UNL     1      10.912  30.530  57.600  1.00  0.00     0.002 A 
HETATM    6  C   UNL     1       9.895  30.942  58.467  1.00  0.00     0.030 A 
ENDROOT
BRANCH   2   7
HETATM    7  C   UNL     1       7.043  28.773  57.221  1.00  0.00     0.253 C 
HETATM    8  N   UNL     1       7.000  27.781  56.264  1.00  0.00    -0.356 N 
HETATM    9  H   UNL     1       7.851  27.266  56.077  1.00  0.00     0.162 HD
HETATM   10  O   UNL     1       6.056  29.291  57.730  1.00  0.00    -0.268 OA
BRANCH   8  11
HETATM   11  C   UNL     1       5.754  27.292  55.709  1.00  0.00     0.127 C 
BRANCH  11  12
HETATM   12  C   UNL     1       5.425  25.853  56.109  1.00  0.00     0.061 C 
BRANCH  12  13
HETATM   13  C   UNL     1       6.206  24.866  55.262  1.00  0.00    -0.023 A 
HETATM   14  C   UNL     1       7.217  24.051  55.805  1.00  0.00     0.077 A 
HETATM   15  C   UNL     1       7.883  23.127  54.985  1.00  0.00     0.074 A 
HETATM   16  C   UNL     1       7.546  23.003  53.634  1.00  0.00     0.070 A 
HETATM   17  C   UNL     1       6.531  23.798  53.105  1.00  0.00     0.037 A 
HETATM   18  C   UNL     1       5.868  24.724  53.907  1.00  0.00     0.013 A 
BRANCH  14  19
HETATM   19  O   UNL     1       7.467  24.225  57.141  1.00  0.00    -0.355 OA
HETATM   20  C   UNL     1       8.763  24.662  57.524  1.00  0.00     0.210 C 
ENDBRANCH  14  19
BRANCH  16  21
HETATM   21  O   UNL     1       8.115  22.137  52.739  1.00  0.00    -0.356 OA
HETATM   22  C   UNL     1       7.957  20.748  52.997  1.00  0.00     0.210 C 
ENDBRANCH  16  21
ENDBRANCH  12  13
ENDBRANCH  11  12
ENDBRANCH   8  11
ENDBRANCH   2   7
BRANCH   1  23
HETATM   23  N   UNL     1       7.738  30.741  59.455  1.00  0.00    -0.321 N 
HETATM   24  C   UNL     1       7.763  31.978  60.075  1.00  0.00     0.265 C 
HETATM   25  O   UNL     1       8.555  32.876  59.802  1.00  0.00    -0.267 OA
HETATM   26  H   UNL     1       6.856  30.246  59.537  1.00  0.00     0.169 HD
BRANCH  24  27
HETATM   27  C   UNL     1       6.598  32.201  61.030  1.00  0.00     0.097 C 
HETATM   28  C   UNL     1       6.789  32.261  62.371  1.00  0.00     0.064 C 
HETATM   29  C   UNL     1       8.111  31.983  63.039  1.00  0.00     0.078 C 
HETATM   30  O   UNL     1       5.810  32.538  63.315  1.00  0.00    -0.353 OA
HETATM   31  C   UNL     1       4.610  33.148  62.841  1.00  0.00     0.185 C 
HETATM   32  C   UNL     1       3.970  32.325  61.744  1.00  0.00     0.106 C 
HETATM   33  S   UNL     1       5.025  32.420  60.280  1.00  0.00    -0.120 SA
ENDBRANCH  24  27
ENDBRANCH   1  23
TORSDOF 8
ENDMDL
MODEL 3
REMARK VINA RESULT:      -9.4      5.573      8.909
REMARK  8 active torsions:
REMARK  status: ('A' for Active; 'I' for Inactive)
REMARK    1  A    between atoms: C_7  and  C_8 
REMARK       I    between atoms: C_8  and  N_9 
REMARK    2  A    between atoms: N_9  and  C_10 
REMARK    3  A    between atoms: C_11  and  C_12 
REMARK       I    between atoms: C_12  and  N_13 
REMARK    4  A    between atoms: N_13  and  C_14 
REMARK    5  A    between atoms: C_14  and  C_15 
REMARK    6  A    between atoms: C_15  and  C_16 
REMARK    7  A    between atoms: C_17  and  O_18 
REMARK    8  A    between atoms: C_21  and  O_22 
ROOT
HETATM    1  C   UNL     1       3.555  28.732  52.790  1.00  0.00     0.050 A 
HETATM    2  C   UNL     1       4.232  27.809  53.602  1.00  0.00     0.058 A 
HETATM    3  C   UNL     1       4.598  28.169  54.915  1.00  0.00     0.019 A 
HETATM    4  C   UNL     1       4.312  29.442  55.409  1.00  0.00     0.001 A 
HETATM    5  C   UNL     1       3.690  30.375  54.588  1.00  0.00     0.002 A 
HETATM    6  C   UNL     1       3.326  30.028  53.284  1.00  0.00     0.030 A 
ENDROOT
BRANCH   2   7
HETATM    7  C   UNL     1       4.822  26.548  53.081  1.00  0.00     0.253 C 
HETATM    8  N   UNL     1       6.006  26.702  52.391  1.00  0.00    -0.356 N 
HETATM    9  H   UNL     1       6.535  27.551  52.540  1.00  0.00     0.162 HD
HETATM   10  O   UNL     1       4.220  25.488  53.200  1.00  0.00    -0.268 OA
BRANCH   8  11
HETATM   11  C   UNL     1       6.629  25.612  51.666  1.00  0.00     0.127 C 
BRANCH  11  12
HETATM   12  C   UNL     1       8.015  25.238  52.191  1.00  0.00     0.061 C 
BRANCH  12  13
HETATM   13  C   UNL     1       7.916  24.161  53.255  1.00  0.00    -0.023 A 
HETATM   14  C   UNL     1       7.727  24.470  54.616  1.00  0.00     0.077 A 
HETATM   15  C   UNL     1       7.602  23.434  55.555  1.00  0.00     0.074 A 
HETATM   16  C   UNL     1       7.656  22.098  55.150  1.00  0.00     0.070 A 
HETATM   17  C   UNL     1       7.824  21.795  53.800  1.00  0.00     0.037 A 
HETATM   18  C   UNL     1       7.957  22.815  52.860  1.00  0.00     0.013 A 
BRANCH  14  19
HETATM   19  O   UNL     1       7.664  25.805  54.919  1.00  0.00    -0.355 OA
HETATM   20  C   UNL     1       7.318  26.170  56.247  1.00  0.00     0.210 C 
ENDBRANCH  14  19
BRANCH  16  21
HETATM   21  O   UNL     1       7.541  21.005  55.967  1.00  0.00    -0.356 OA
HETATM   22  C   UNL     1       8.526  19.989  55.826  1.00  0.00     0.210 C 
ENDBRANCH  16  21
ENDBRANCH  12  13
ENDBRANCH  11  12
ENDBRANCH   8  11
ENDBRANCH   2   7
BRANCH   1  23
HETATM   23  N   UNL     1       3.059  28.477  51.496  1.00  0.00    -0.321 N 
HETATM   24  C   UNL     1       3.775  28.612  50.319  1.00  0.00     0.265 C 
HETATM   25  O   UNL     1       4.961  28.920  50.259  1.00  0.00    -0.267 OA
HETATM   26  H   UNL     1       2.220  27.912  51.417  1.00  0.00     0.169 HD
BRANCH  24  27
HETATM   27  C   UNL     1       2.996  28.178  49.084  1.00  0.00     0.097 C 
HETATM   28  C   UNL     1       3.114  26.924  48.583  1.00  0.00     0.064 C 
HETATM   29  C   UNL     1       4.102  25.909  49.097  1.00  0.00     0.078 C 
HETATM   30  O   UNL     1       2.391  26.410  47.515  1.00  0.00    -0.353 OA
HETATM   31  C   UNL     1       1.201  27.106  47.145  1.00  0.00     0.185 C 
HETATM   32  C   UNL     1       1.486  28.562  46.846  1.00  0.00     0.106 C 
HETATM   33  S   UNL     1       1.916  29.381  48.399  1.00  0.00    -0.120 SA
ENDBRANCH  24  27
ENDBRANCH   1  23
TORSDOF 8
ENDMDL
MODEL 4
REMARK VINA RESULT:      -9.1      3.265      8.704
REMARK  8 active torsions:
REMARK  status: ('A' for Active; 'I' for Inactive)
REMARK    1  A    between atoms: C_7  and  C_8 
REMARK       I    between atoms: C_8  and  N_9 
REMARK    2  A    between atoms: N_9  and  C_10 
REMARK    3  A    between atoms: C_11  and  C_12 
REMARK       I    between atoms: C_12  and  N_13 
REMARK    4  A    between atoms: N_13  and  C_14 
REMARK    5  A    between atoms: C_14  and  C_15 
REMARK    6  A    between atoms: C_15  and  C_16 
REMARK    7  A    between atoms: C_17  and  O_18 
REMARK    8  A    between atoms: C_21  and  O_22 
ROOT
HETATM    1  C   UNL     1       7.520  23.263  53.933  1.00  0.00     0.050 A 
HETATM    2  C   UNL     1       8.193  23.082  55.151  1.00  0.00     0.058 A 
HETATM    3  C   UNL     1       8.836  21.857  55.420  1.00  0.00     0.019 A 
HETATM    4  C   UNL     1       8.794  20.814  54.495  1.00  0.00     0.001 A 
HETATM    5  C   UNL     1       8.082  20.972  53.311  1.00  0.00     0.002 A 
HETATM    6  C   UNL     1       7.439  22.183  53.038  1.00  0.00     0.030 A 
ENDROOT
BRANCH   2   7
HETATM    7  C   UNL     1       8.059  24.016  56.301  1.00  0.00     0.253 C 
HETATM    8  N   UNL     1       6.808  24.574  56.453  1.00  0.00    -0.356 N 
HETATM    9  H   UNL     1       6.025  24.111  56.010  1.00  0.00     0.162 HD
HETATM   10  O   UNL     1       9.038  24.309  56.976  1.00  0.00    -0.268 OA
BRANCH   8  11
HETATM   11  C   UNL     1       6.541  25.634  57.405  1.00  0.00     0.127 C 
BRANCH  11  12
HETATM   12  C   UNL     1       5.674  26.761  56.844  1.00  0.00     0.061 C 
BRANCH  12  13
HETATM   13  C   UNL     1       6.209  28.115  57.272  1.00  0.00    -0.023 A 
HETATM   14  C   UNL     1       5.431  29.286  57.189  1.00  0.00     0.077 A 
HETATM   15  C   UNL     1       5.960  30.508  57.634  1.00  0.00     0.074 A 
HETATM   16  C   UNL     1       7.251  30.571  58.166  1.00  0.00     0.070 A 
HETATM   17  C   UNL     1       8.011  29.407  58.265  1.00  0.00     0.037 A 
HETATM   18  C   UNL     1       7.499  28.190  57.819  1.00  0.00     0.013 A 
BRANCH  14  19
HETATM   19  O   UNL     1       4.171  29.127  56.675  1.00  0.00    -0.355 OA
HETATM   20  C   UNL     1       3.320  30.264  56.635  1.00  0.00     0.210 C 
ENDBRANCH  14  19
BRANCH  16  21
HETATM   21  O   UNL     1       7.872  31.697  58.638  1.00  0.00    -0.356 OA
HETATM   22  C   UNL     1       7.665  32.021  60.007  1.00  0.00     0.210 C 
ENDBRANCH  16  21
ENDBRANCH  12  13
ENDBRANCH  11  12
ENDBRANCH   8  11
ENDBRANCH   2   7
BRANCH   1  23
HETATM   23  N   UNL     1       6.910  24.458  53.502  1.00  0.00    -0.321 N 
HETATM   24  C   UNL     1       7.445  25.349  52.587  1.00  0.00     0.265 C 
HETATM   25  O   UNL     1       8.503  25.180  51.989  1.00  0.00    -0.267 OA
HETATM   26  H   UNL     1       5.912  24.558  53.655  1.00  0.00     0.169 HD
BRANCH  24  27
HETATM   27  C   UNL     1       6.512  26.506  52.254  1.00  0.00     0.097 C 
HETATM   28  C   UNL     1       6.645  27.713  52.856  1.00  0.00     0.064 C 
HETATM   29  C   UNL     1       7.609  27.983  53.983  1.00  0.00     0.078 C 
HETATM   30  O   UNL     1       5.900  28.847  52.564  1.00  0.00    -0.353 OA
HETATM   31  C   UNL     1       5.201  28.860  51.320  1.00  0.00     0.185 C 
HETATM   32  C   UNL     1       4.283  27.664  51.193  1.00  0.00     0.106 C 
HETATM   33  S   UNL     1       5.307  26.184  51.018  1.00  0.00    -0.120 SA
ENDBRANCH  24  27
ENDBRANCH   1  23
TORSDOF 8
ENDMDL
MODEL 5
REMARK VINA RESULT:      -9.1      2.822      9.645
REMARK  8 active torsions:
REMARK  status: ('A' for Active; 'I' for Inactive)
REMARK    1  A    between atoms: C_7  and  C_8 
REMARK       I    between atoms: C_8  and  N_9 
REMARK    2  A    between atoms: N_9  and  C_10 
REMARK    3  A    between atoms: C_11  and  C_12 
REMARK       I    between atoms: C_12  and  N_13 
REMARK    4  A    between atoms: N_13  and  C_14 
REMARK    5  A    between atoms: C_14  and  C_15 
REMARK    6  A    between atoms: C_15  and  C_16 
REMARK    7  A    between atoms: C_17  and  O_18 
REMARK    8  A    between atoms: C_21  and  O_22 
ROOT
HETATM    1  C   UNL     1       6.318  27.986  55.181  1.00  0.00     0.050 A 
HETATM    2  C   UNL     1       6.607  28.922  56.185  1.00  0.00     0.058 A 
HETATM    3  C   UNL     1       5.819  30.085  56.306  1.00  0.00     0.019 A 
HETATM    4  C   UNL     1       4.766  30.324  55.424  1.00  0.00     0.001 A 
HETATM    5  C   UNL     1       4.513  29.425  54.395  1.00  0.00     0.002 A 
HETATM    6  C   UNL     1       5.291  28.271  54.265  1.00  0.00     0.030 A 
ENDROOT
BRANCH   2   7
HETATM    7  C   UNL     1       7.862  28.897  56.984  1.00  0.00     0.253 C 
HETATM    8  N   UNL     1       8.004  29.939  57.875  1.00  0.00    -0.356 N 
HETATM    9  H   UNL     1       7.172  30.444  58.151  1.00  0.00     0.162 HD
HETATM   10  O   UNL     1       8.717  28.047  56.765  1.00  0.00    -0.268 OA
BRANCH   8  11
HETATM   11  C   UNL     1       9.234  30.172  58.606  1.00  0.00     0.127 C 
BRANCH  11  12
HETATM   12  C   UNL     1       9.466  31.639  58.968  1.00  0.00     0.061 C 
BRANCH  12  13
HETATM   13  C   UNL     1       8.679  32.019  60.208  1.00  0.00    -0.023 A 
HETATM   14  C   UNL     1       7.338  32.444  60.141  1.00  0.00     0.077 A 
HETATM   15  C   UNL     1       6.643  32.746  61.322  1.00  0.00     0.074 A 
HETATM   16  C   UNL     1       7.268  32.624  62.566  1.00  0.00     0.070 A 
HETATM   17  C   UNL     1       8.589  32.185  62.630  1.00  0.00     0.037 A 
HETATM   18  C   UNL     1       9.292  31.889  61.463  1.00  0.00     0.013 A 
BRANCH  14  19
HETATM   19  O   UNL     1       6.800  32.515  58.883  1.00  0.00    -0.355 OA
HETATM   20  C   UNL     1       5.405  32.761  58.769  1.00  0.00     0.210 C 
ENDBRANCH  14  19
BRANCH  16  21
HETATM   21  O   UNL     1       6.695  32.881  63.783  1.00  0.00    -0.356 OA
HETATM   22  C   UNL     1       5.283  32.746  63.871  1.00  0.00     0.210 C 
ENDBRANCH  16  21
ENDBRANCH  12  13
ENDBRANCH  11  12
ENDBRANCH   8  11
ENDBRANCH   2   7
BRANCH   1  23
HETATM   23  N   UNL     1       6.968  26.748  55.001  1.00  0.00    -0.321 N 
HETATM   24  C   UNL     1       6.573  25.544  55.558  1.00  0.00     0.265 C 
HETATM   25  O   UNL     1       5.565  25.393  56.241  1.00  0.00    -0.267 OA
HETATM   26  H   UNL     1       7.603  26.661  54.215  1.00  0.00     0.169 HD
BRANCH  24  27
HETATM   27  C   UNL     1       7.423  24.363  55.109  1.00  0.00     0.097 C 
HETATM   28  C   UNL     1       8.402  23.860  55.900  1.00  0.00     0.064 C 
HETATM   29  C   UNL     1       8.830  24.489  57.201  1.00  0.00     0.078 C 
HETATM   30  O   UNL     1       9.174  22.742  55.617  1.00  0.00    -0.353 OA
HETATM   31  C   UNL     1       8.680  21.852  54.616  1.00  0.00     0.185 C 
HETATM   32  C   UNL     1       8.428  22.576  53.312  1.00  0.00     0.106 C 
HETATM   33  S   UNL     1       7.014  23.678  53.544  1.00  0.00    -0.120 SA
ENDBRANCH  24  27
ENDBRANCH   1  23
TORSDOF 8
ENDMDL
MODEL 6
REMARK VINA RESULT:      -9.1      2.840      9.812
REMARK  8 active torsions:
REMARK  status: ('A' for Active; 'I' for Inactive)
REMARK    1  A    between atoms: C_7  and  C_8 
REMARK       I    between atoms: C_8  and  N_9 
REMARK    2  A    between atoms: N_9  and  C_10 
REMARK    3  A    between atoms: C_11  and  C_12 
REMARK       I    between atoms: C_12  and  N_13 
REMARK    4  A    between atoms: N_13  and  C_14 
REMARK    5  A    between atoms: C_14  and  C_15 
REMARK    6  A    between atoms: C_15  and  C_16 
REMARK    7  A    between atoms: C_17  and  O_18 
REMARK    8  A    between atoms: C_21  and  O_22 
ROOT
HETATM    1  C   UNL     1       5.945  25.262  53.377  1.00  0.00     0.050 A 
HETATM    2  C   UNL     1       5.731  26.529  53.940  1.00  0.00     0.058 A 
HETATM    3  C   UNL     1       5.115  27.540  53.175  1.00  0.00     0.019 A 
HETATM    4  C   UNL     1       4.733  27.299  51.855  1.00  0.00     0.001 A 
HETATM    5  C   UNL     1       4.994  26.061  51.279  1.00  0.00     0.002 A 
HETATM    6  C   UNL     1       5.607  25.054  52.030  1.00  0.00     0.030 A 
ENDROOT
BRANCH   2   7
HETATM    7  C   UNL     1       6.346  26.964  55.223  1.00  0.00     0.253 C 
HETATM    8  N   UNL     1       5.601  27.871  55.947  1.00  0.00    -0.356 N 
HETATM    9  H   UNL     1       4.612  27.940  55.745  1.00  0.00     0.162 HD
HETATM   10  O   UNL     1       7.473  26.590  55.526  1.00  0.00    -0.268 OA
BRANCH   8  11
HETATM   11  C   UNL     1       6.119  28.534  57.127  1.00  0.00     0.127 C 
BRANCH  11  12
HETATM   12  C   UNL     1       6.857  29.838  56.826  1.00  0.00     0.061 C 
BRANCH  12  13
HETATM   13  C   UNL     1       7.530  30.377  58.074  1.00  0.00    -0.023 A 
HETATM   14  C   UNL     1       8.876  30.093  58.379  1.00  0.00     0.077 A 
HETATM   15  C   UNL     1       9.462  30.648  59.527  1.00  0.00     0.074 A 
HETATM   16  C   UNL     1       8.724  31.486  60.367  1.00  0.00     0.070 A 
HETATM   17  C   UNL     1       7.399  31.780  60.052  1.00  0.00     0.037 A 
HETATM   18  C   UNL     1       6.804  31.228  58.919  1.00  0.00     0.013 A 
BRANCH  14  19
HETATM   19  O   UNL     1       9.528  29.281  57.489  1.00  0.00    -0.355 OA
HETATM   20  C   UNL     1      10.537  29.862  56.674  1.00  0.00     0.210 C 
ENDBRANCH  14  19
BRANCH  16  21
HETATM   21  O   UNL     1       9.184  32.091  61.507  1.00  0.00    -0.356 OA
HETATM   22  C   UNL     1       8.282  32.171  62.603  1.00  0.00     0.210 C 
ENDBRANCH  16  21
ENDBRANCH  12  13
ENDBRANCH  11  12
ENDBRANCH   8  11
ENDBRANCH   2   7
BRANCH   1  23
HETATM   23  N   UNL     1       6.470  24.142  54.053  1.00  0.00    -0.321 N 
HETATM   24  C   UNL     1       7.674  23.522  53.767  1.00  0.00     0.265 C 
HETATM   25  O   UNL     1       8.470  23.909  52.916  1.00  0.00    -0.267 OA
HETATM   26  H   UNL     1       6.092  23.925  54.969  1.00  0.00     0.169 HD
BRANCH  24  27
HETATM   27  C   UNL     1       8.015  22.390  54.728  1.00  0.00     0.097 C 
HETATM   28  C   UNL     1       8.143  21.113  54.292  1.00  0.00     0.064 C 
HETATM   29  C   UNL     1       7.831  20.675  52.884  1.00  0.00     0.078 C 
HETATM   30  O   UNL     1       8.527  20.029  55.071  1.00  0.00    -0.353 OA
HETATM   31  C   UNL     1       9.174  20.320  56.309  1.00  0.00     0.185 C 
HETATM   32  C   UNL     1       8.326  21.226  57.174  1.00  0.00     0.106 C 
HETATM   33  S   UNL     1       8.277  22.859  56.399  1.00  0.00    -0.120 SA
ENDBRANCH  24  27
ENDBRANCH   1  23
TORSDOF 8
ENDMDL
MODEL 7
REMARK VINA RESULT:      -9.0      3.205      9.144
REMARK  8 active torsions:
REMARK  status: ('A' for Active; 'I' for Inactive)
REMARK    1  A    between atoms: C_7  and  C_8 
REMARK       I    between atoms: C_8  and  N_9 
REMARK    2  A    between atoms: N_9  and  C_10 
REMARK    3  A    between atoms: C_11  and  C_12 
REMARK       I    between atoms: C_12  and  N_13 
REMARK    4  A    between atoms: N_13  and  C_14 
REMARK    5  A    between atoms: C_14  and  C_15 
REMARK    6  A    between atoms: C_15  and  C_16 
REMARK    7  A    between atoms: C_17  and  O_18 
REMARK    8  A    between atoms: C_21  and  O_22 
ROOT
HETATM    1  C   UNL     1       7.316  24.000  53.645  1.00  0.00     0.050 A 
HETATM    2  C   UNL     1       7.520  23.956  55.033  1.00  0.00     0.058 A 
HETATM    3  C   UNL     1       8.083  22.805  55.621  1.00  0.00     0.019 A 
HETATM    4  C   UNL     1       8.422  21.701  54.840  1.00  0.00     0.001 A 
HETATM    5  C   UNL     1       8.170  21.722  53.473  1.00  0.00     0.002 A 
HETATM    6  C   UNL     1       7.610  22.857  52.882  1.00  0.00     0.030 A 
ENDROOT
BRANCH   2   7
HETATM    7  C   UNL     1       6.942  24.954  55.972  1.00  0.00     0.253 C 
HETATM    8  N   UNL     1       7.815  25.939  56.383  1.00  0.00    -0.356 N 
HETATM    9  H   UNL     1       8.639  26.107  55.821  1.00  0.00     0.162 HD
HETATM   10  O   UNL     1       5.800  24.817  56.393  1.00  0.00    -0.268 OA
BRANCH   8  11
HETATM   11  C   UNL     1       7.479  26.887  57.426  1.00  0.00     0.127 C 
BRANCH  11  12
HETATM   12  C   UNL     1       8.304  28.174  57.376  1.00  0.00     0.061 C 
BRANCH  12  13
HETATM   13  C   UNL     1       7.470  29.365  57.809  1.00  0.00    -0.023 A 
HETATM   14  C   UNL     1       8.023  30.442  58.528  1.00  0.00     0.077 A 
HETATM   15  C   UNL     1       7.216  31.539  58.870  1.00  0.00     0.074 A 
HETATM   16  C   UNL     1       5.870  31.574  58.498  1.00  0.00     0.070 A 
HETATM   17  C   UNL     1       5.331  30.515  57.769  1.00  0.00     0.037 A 
HETATM   18  C   UNL     1       6.120  29.418  57.430  1.00  0.00     0.013 A 
BRANCH  14  19
HETATM   19  O   UNL     1       9.354  30.333  58.832  1.00  0.00    -0.355 OA
HETATM   20  C   UNL     1      10.261  31.204  58.171  1.00  0.00     0.210 C 
ENDBRANCH  14  19
BRANCH  16  21
HETATM   21  O   UNL     1       4.987  32.587  58.765  1.00  0.00    -0.356 OA
HETATM   22  C   UNL     1       4.418  32.617  60.068  1.00  0.00     0.210 C 
ENDBRANCH  16  21
ENDBRANCH  12  13
ENDBRANCH  11  12
ENDBRANCH   8  11
ENDBRANCH   2   7
BRANCH   1  23
HETATM   23  N   UNL     1       6.843  25.112  52.920  1.00  0.00    -0.321 N 
HETATM   24  C   UNL     1       5.513  25.426  52.705  1.00  0.00     0.265 C 
HETATM   25  O   UNL     1       4.567  24.798  53.173  1.00  0.00    -0.267 OA
HETATM   26  H   UNL     1       7.488  25.880  52.763  1.00  0.00     0.169 HD
BRANCH  24  27
HETATM   27  C   UNL     1       5.313  26.739  51.960  1.00  0.00     0.097 C 
HETATM   28  C   UNL     1       5.447  27.932  52.589  1.00  0.00     0.064 C 
HETATM   29  C   UNL     1       5.661  28.074  54.074  1.00  0.00     0.078 C 
HETATM   30  O   UNL     1       5.363  29.178  51.983  1.00  0.00    -0.353 OA
HETATM   31  C   UNL     1       5.504  29.217  50.563  1.00  0.00     0.185 C 
HETATM   32  C   UNL     1       4.500  28.310  49.886  1.00  0.00     0.106 C 
HETATM   33  S   UNL     1       4.954  26.598  50.247  1.00  0.00    -0.120 SA
ENDBRANCH  24  27
ENDBRANCH   1  23
TORSDOF 8
ENDMDL
MODEL 8
REMARK VINA RESULT:      -8.9      3.728      9.568
REMARK  8 active torsions:
REMARK  status: ('A' for Active; 'I' for Inactive)
REMARK    1  A    between atoms: C_7  and  C_8 
REMARK       I    between atoms: C_8  and  N_9 
REMARK    2  A    between atoms: N_9  and  C_10 
REMARK    3  A    between atoms: C_11  and  C_12 
REMARK       I    between atoms: C_12  and  N_13 
REMARK    4  A    between atoms: N_13  and  C_14 
REMARK    5  A    between atoms: C_14  and  C_15 
REMARK    6  A    between atoms: C_15  and  C_16 
REMARK    7  A    between atoms: C_17  and  O_18 
REMARK    8  A    between atoms: C_21  and  O_22 
ROOT
HETATM    1  C   UNL     1       7.066  25.118  52.475  1.00  0.00     0.050 A 
HETATM    2  C   UNL     1       7.453  25.693  53.695  1.00  0.00     0.058 A 
HETATM    3  C   UNL     1       8.057  24.893  54.685  1.00  0.00     0.019 A 
HETATM    4  C   UNL     1       8.255  23.528  54.473  1.00  0.00     0.001 A 
HETATM    5  C   UNL     1       7.822  22.946  53.287  1.00  0.00     0.002 A 
HETATM    6  C   UNL     1       7.220  23.732  52.300  1.00  0.00     0.030 A 
ENDROOT
BRANCH   2   7
HETATM    7  C   UNL     1       7.036  27.056  54.120  1.00  0.00     0.253 C 
HETATM    8  N   UNL     1       5.827  27.114  54.779  1.00  0.00    -0.356 N 
HETATM    9  H   UNL     1       5.471  26.262  55.193  1.00  0.00     0.162 HD
HETATM   10  O   UNL     1       7.703  28.034  53.803  1.00  0.00    -0.268 OA
BRANCH   8  11
HETATM   11  C   UNL     1       5.183  28.370  55.110  1.00  0.00     0.127 C 
BRANCH  11  12
HETATM   12  C   UNL     1       4.768  28.481  56.577  1.00  0.00     0.061 C 
BRANCH  12  13
HETATM   13  C   UNL     1       5.680  29.437  57.324  1.00  0.00    -0.023 A 
HETATM   14  C   UNL     1       6.942  29.041  57.807  1.00  0.00     0.077 A 
HETATM   15  C   UNL     1       7.763  29.975  58.457  1.00  0.00     0.074 A 
HETATM   16  C   UNL     1       7.342  31.297  58.623  1.00  0.00     0.070 A 
HETATM   17  C   UNL     1       6.101  31.690  58.126  1.00  0.00     0.037 A 
HETATM   18  C   UNL     1       5.274  30.770  57.486  1.00  0.00     0.013 A 
BRANCH  14  19
HETATM   19  O   UNL     1       7.281  27.733  57.581  1.00  0.00    -0.355 OA
HETATM   20  C   UNL     1       8.622  27.448  57.208  1.00  0.00     0.210 C 
ENDBRANCH  14  19
BRANCH  16  21
HETATM   21  O   UNL     1       8.053  32.298  59.231  1.00  0.00    -0.356 OA
HETATM   22  C   UNL     1       9.314  31.946  59.786  1.00  0.00     0.210 C 
ENDBRANCH  16  21
ENDBRANCH  12  13
ENDBRANCH  11  12
ENDBRANCH   8  11
ENDBRANCH   2   7
BRANCH   1  23
HETATM   23  N   UNL     1       6.532  25.815  51.372  1.00  0.00    -0.321 N 
HETATM   24  C   UNL     1       5.232  26.278  51.266  1.00  0.00     0.265 C 
HETATM   25  O   UNL     1       4.388  26.188  52.152  1.00  0.00    -0.267 OA
HETATM   26  H   UNL     1       7.186  26.241  50.724  1.00  0.00     0.169 HD
BRANCH  24  27
HETATM   27  C   UNL     1       4.975  27.072  49.992  1.00  0.00     0.097 C 
HETATM   28  C   UNL     1       5.212  28.406  49.935  1.00  0.00     0.064 C 
HETATM   29  C   UNL     1       5.608  29.235  51.129  1.00  0.00     0.078 C 
HETATM   30  O   UNL     1       5.085  29.200  48.804  1.00  0.00    -0.353 OA
HETATM   31  C   UNL     1       5.054  28.531  47.544  1.00  0.00     0.185 C 
HETATM   32  C   UNL     1       3.954  27.493  47.499  1.00  0.00     0.106 C 
HETATM   33  S   UNL     1       4.408  26.144  48.613  1.00  0.00    -0.120 SA
ENDBRANCH  24  27
ENDBRANCH   1  23
TORSDOF 8
ENDMDL
MODEL 9
REMARK VINA RESULT:      -8.8      3.204      9.193
REMARK  8 active torsions:
REMARK  status: ('A' for Active; 'I' for Inactive)
REMARK    1  A    between atoms: C_7  and  C_8 
REMARK       I    between atoms: C_8  and  N_9 
REMARK    2  A    between atoms: N_9  and  C_10 
REMARK    3  A    between atoms: C_11  and  C_12 
REMARK       I    between atoms: C_12  and  N_13 
REMARK    4  A    between atoms: N_13  and  C_14 
REMARK    5  A    between atoms: C_14  and  C_15 
REMARK    6  A    between atoms: C_15  and  C_16 
REMARK    7  A    between atoms: C_17  and  O_18 
REMARK    8  A    between atoms: C_21  and  O_22 
ROOT
HETATM    1  C   UNL     1       7.283  24.531  53.480  1.00  0.00     0.050 A 
HETATM    2  C   UNL     1       7.462  24.562  54.871  1.00  0.00     0.058 A 
HETATM    3  C   UNL     1       8.200  23.542  55.505  1.00  0.00     0.019 A 
HETATM    4  C   UNL     1       8.739  22.490  54.764  1.00  0.00     0.001 A 
HETATM    5  C   UNL     1       8.517  22.429  53.394  1.00  0.00     0.002 A 
HETATM    6  C   UNL     1       7.783  23.434  52.757  1.00  0.00     0.030 A 
ENDROOT
BRANCH   2   7
HETATM    7  C   UNL     1       6.702  25.473  55.768  1.00  0.00     0.253 C 
HETATM    8  N   UNL     1       7.358  26.640  56.101  1.00  0.00    -0.356 N 
HETATM    9  H   UNL     1       8.121  26.941  55.509  1.00  0.00     0.162 HD
HETATM   10  O   UNL     1       5.620  25.129  56.227  1.00  0.00    -0.268 OA
BRANCH   8  11
HETATM   11  C   UNL     1       6.847  27.559  57.098  1.00  0.00     0.127 C 
BRANCH  11  12
HETATM   12  C   UNL     1       6.840  29.019  56.644  1.00  0.00     0.061 C 
BRANCH  12  13
HETATM   13  C   UNL     1       7.200  29.942  57.792  1.00  0.00    -0.023 A 
HETATM   14  C   UNL     1       6.393  31.039  58.151  1.00  0.00     0.077 A 
HETATM   15  C   UNL     1       6.751  31.839  59.247  1.00  0.00     0.074 A 
HETATM   16  C   UNL     1       7.900  31.553  59.990  1.00  0.00     0.070 A 
HETATM   17  C   UNL     1       8.686  30.456  59.645  1.00  0.00     0.037 A 
HETATM   18  C   UNL     1       8.344  29.659  58.554  1.00  0.00     0.013 A 
BRANCH  14  19
HETATM   19  O   UNL     1       5.276  31.231  57.381  1.00  0.00    -0.355 OA
HETATM   20  C   UNL     1       4.010  30.965  57.967  1.00  0.00     0.210 C 
ENDBRANCH  14  19
BRANCH  16  21
HETATM   21  O   UNL     1       8.348  32.252  61.080  1.00  0.00    -0.356 OA
HETATM   22  C   UNL     1       9.643  31.924  61.567  1.00  0.00     0.210 C 
ENDBRANCH  16  21
ENDBRANCH  12  13
ENDBRANCH  11  12
ENDBRANCH   8  11
ENDBRANCH   2   7
BRANCH   1  23
HETATM   23  N   UNL     1       6.643  25.524  52.712  1.00  0.00    -0.321 N 
HETATM   24  C   UNL     1       5.290  25.570  52.422  1.00  0.00     0.265 C 
HETATM   25  O   UNL     1       4.461  24.772  52.850  1.00  0.00    -0.267 OA
HETATM   26  H   UNL     1       7.133  26.402  52.577  1.00  0.00     0.169 HD
BRANCH  24  27
HETATM   27  C   UNL     1       4.879  26.814  51.645  1.00  0.00     0.097 C 
HETATM   28  C   UNL     1       4.615  27.983  52.278  1.00  0.00     0.064 C 
HETATM   29  C   UNL     1       4.566  28.129  53.777  1.00  0.00     0.078 C 
HETATM   30  O   UNL     1       4.312  29.187  51.657  1.00  0.00    -0.353 OA
HETATM   31  C   UNL     1       4.646  29.303  50.274  1.00  0.00     0.185 C 
HETATM   32  C   UNL     1       4.013  28.195  49.460  1.00  0.00     0.106 C 
HETATM   33  S   UNL     1       4.824  26.641  49.898  1.00  0.00    -0.120 SA
ENDBRANCH  24  27
ENDBRANCH   1  23
TORSDOF 8
ENDMDL
MODEL 10
REMARK VINA RESULT:      -8.7      3.961      7.513
REMARK  8 active torsions:
REMARK  status: ('A' for Active; 'I' for Inactive)
REMARK    1  A    between atoms: C_7  and  C_8 
REMARK       I    between atoms: C_8  and  N_9 
REMARK    2  A    between atoms: N_9  and  C_10 
REMARK    3  A    between atoms: C_11  and  C_12 
REMARK       I    between atoms: C_12  and  N_13 
REMARK    4  A    between atoms: N_13  and  C_14 
REMARK    5  A    between atoms: C_14  and  C_15 
REMARK    6  A    between atoms: C_15  and  C_16 
REMARK    7  A    between atoms: C_17  and  O_18 
REMARK    8  A    between atoms: C_21  and  O_22 
ROOT
HETATM    1  C   UNL     1       7.331  24.674  54.663  1.00  0.00     0.050 A 
HETATM    2  C   UNL     1       6.574  24.172  53.594  1.00  0.00     0.058 A 
HETATM    3  C   UNL     1       6.952  22.963  52.976  1.00  0.00     0.019 A 
HETATM    4  C   UNL     1       8.085  22.270  53.404  1.00  0.00     0.001 A 
HETATM    5  C   UNL     1       8.867  22.795  54.427  1.00  0.00     0.002 A 
HETATM    6  C   UNL     1       8.501  23.994  55.043  1.00  0.00     0.030 A 
ENDROOT
BRANCH   2   7
HETATM    7  C   UNL     1       5.531  24.966  52.892  1.00  0.00     0.253 C 
HETATM    8  N   UNL     1       6.014  25.915  52.016  1.00  0.00    -0.356 N 
HETATM    9  H   UNL     1       6.963  25.810  51.680  1.00  0.00     0.162 HD
HETATM   10  O   UNL     1       4.348  24.818  53.174  1.00  0.00    -0.268 OA
BRANCH   8  11
HETATM   11  C   UNL     1       5.155  26.893  51.381  1.00  0.00     0.127 C 
BRANCH  11  12
HETATM   12  C   UNL     1       5.317  26.960  49.862  1.00  0.00     0.061 C 
BRANCH  12  13
HETATM   13  C   UNL     1       3.964  27.043  49.179  1.00  0.00    -0.023 A 
HETATM   14  C   UNL     1       3.169  28.203  49.235  1.00  0.00     0.077 A 
HETATM   15  C   UNL     1       1.942  28.240  48.553  1.00  0.00     0.074 A 
HETATM   16  C   UNL     1       1.507  27.138  47.812  1.00  0.00     0.070 A 
HETATM   17  C   UNL     1       2.307  25.999  47.743  1.00  0.00     0.037 A 
HETATM   18  C   UNL     1       3.522  25.947  48.422  1.00  0.00     0.013 A 
BRANCH  14  19
HETATM   19  O   UNL     1       3.683  29.241  49.965  1.00  0.00    -0.355 OA
HETATM   20  C   UNL     1       4.069  30.418  49.268  1.00  0.00     0.210 C 
ENDBRANCH  14  19
BRANCH  16  21
HETATM   21  O   UNL     1       0.339  27.056  47.101  1.00  0.00    -0.356 OA
HETATM   22  C   UNL     1      -0.011  28.183  46.307  1.00  0.00     0.210 C 
ENDBRANCH  16  21
ENDBRANCH  12  13
ENDBRANCH  11  12
ENDBRANCH   8  11
ENDBRANCH   2   7
BRANCH   1  23
HETATM   23  N   UNL     1       7.020  25.821  55.422  1.00  0.00    -0.321 N 
HETATM   24  C   UNL     1       7.308  27.126  55.062  1.00  0.00     0.265 C 
HETATM   25  O   UNL     1       7.825  27.456  53.999  1.00  0.00    -0.267 OA
HETATM   26  H   UNL     1       6.315  25.728  56.145  1.00  0.00     0.169 HD
BRANCH  24  27
HETATM   27  C   UNL     1       6.768  28.157  56.045  1.00  0.00     0.097 C 
HETATM   28  C   UNL     1       7.587  28.791  56.919  1.00  0.00     0.064 C 
HETATM   29  C   UNL     1       9.043  28.448  57.099  1.00  0.00     0.078 C 
HETATM   30  O   UNL     1       7.207  29.799  57.796  1.00  0.00    -0.353 OA
HETATM   31  C   UNL     1       5.975  30.464  57.521  1.00  0.00     0.185 C 
HETATM   32  C   UNL     1       4.828  29.482  57.429  1.00  0.00     0.106 C 
HETATM   33  S   UNL     1       5.049  28.497  55.929  1.00  0.00    -0.120 SA
ENDBRANCH  24  27
ENDBRANCH   1  23
TORSDOF 8
ENDMDL
