MODEL 1
REMARK VINA RESULT:     -11.4      0.000      0.000
REMARK  5 active torsions:
REMARK  status: ('A' for Active; 'I' for Inactive)
REMARK    1  A    between atoms: C_2  and  N_3 
REMARK    2  A    between atoms: C_7  and  N_8 
REMARK       I    between atoms: N_8  and  C_9 
REMARK    3  A    between atoms: C_9  and  C_10 
REMARK    4  A    between atoms: C_13  and  C_14 
REMARK    5  A    between atoms: C_14  and  C_15 
ROOT
HETATM    1  N   UNL     1       7.386  29.276  57.707  1.00  0.00    -0.323 N 
HETATM    2  C   UNL     1       8.475  29.854  58.333  1.00  0.00     0.256 C 
HETATM    3  O   UNL     1       9.650  29.751  57.998  1.00  0.00    -0.267 OA
HETATM    4  H   UNL     1       6.469  29.611  57.967  1.00  0.00     0.169 HD
ENDROOT
BRANCH   1   5
HETATM    5  C   UNL     1       7.408  28.249  56.737  1.00  0.00     0.035 A 
HETATM    6  C   UNL     1       7.714  26.917  57.030  1.00  0.00     0.044 A 
HETATM    7  C   UNL     1       7.628  25.928  56.024  1.00  0.00     0.005 A 
HETATM    8  C   UNL     1       7.237  26.301  54.738  1.00  0.00     0.046 A 
HETATM    9  C   UNL     1       7.856  24.517  56.015  1.00  0.00     0.003 A 
HETATM   10  N   UNL     1       7.198  25.147  53.978  1.00  0.00    -0.346 N 
HETATM   11  C   UNL     1       6.956  27.638  54.415  1.00  0.00     0.033 A 
HETATM   12  C   UNL     1       7.584  24.051  54.727  1.00  0.00     0.046 A 
HETATM   13  C   UNL     1       7.713  22.693  54.388  1.00  0.00     0.030 A 
HETATM   14  C   UNL     1       8.124  21.800  55.383  1.00  0.00     0.002 A 
HETATM   15  C   UNL     1       8.398  22.242  56.672  1.00  0.00     0.001 A 
HETATM   16  C   UNL     1       8.268  23.594  57.000  1.00  0.00     0.014 A 
HETATM   17  C   UNL     1       7.045  28.595  55.433  1.00  0.00     0.032 A 
BRANCH  10  18
HETATM   18  C   UNL     1       6.771  25.085  52.588  1.00  0.00     0.125 C 
HETATM   19  C   UNL     1       5.280  24.839  52.453  1.00  0.00     0.027 C 
ENDBRANCH  10  18
ENDBRANCH   1   5
BRANCH   2  20
HETATM   20  C   UNL     1       8.156  30.689  59.530  1.00  0.00     0.032 A 
HETATM   21  C   UNL     1       8.984  30.718  60.659  1.00  0.00     0.017 A 
HETATM   22  C   UNL     1       8.694  31.578  61.723  1.00  0.00     0.008 A 
HETATM   23  C   UNL     1       7.592  32.441  61.664  1.00  0.00    -0.057 A 
HETATM   24  C   UNL     1       6.759  32.398  60.537  1.00  0.00     0.008 A 
HETATM   25  C   UNL     1       7.041  31.533  59.477  1.00  0.00     0.017 A 
BRANCH  23  26
HETATM   26  C   UNL     1       7.328  33.442  62.767  1.00  0.00     0.053 C 
BRANCH  26  27
HETATM   27  C   UNL     1       6.872  32.846  64.109  1.00  0.00     0.091 C 
HETATM   28  C   UNL     1       5.391  32.564  64.123  1.00  0.00     0.229 C 
HETATM   29  O   UNL     1       4.818  31.751  63.418  1.00  0.00    -0.273 OA
HETATM   30  N   UNL     1       4.795  33.390  65.018  1.00  0.00    -0.297 N 
HETATM   31  C   UNL     1       5.675  34.156  65.709  1.00  0.00     0.225 C 
HETATM   32  H   UNL     1       3.798  33.440  65.151  1.00  0.00     0.171 HD
HETATM   33  O   UNL     1       5.387  34.989  66.551  1.00  0.00    -0.273 OA
HETATM   34  C   UNL     1       7.069  33.757  65.323  1.00  0.00     0.117 C 
ENDBRANCH  26  27
ENDBRANCH  23  26
ENDBRANCH   2  20
TORSDOF 5
ENDMDL
MODEL 2
REMARK VINA RESULT:     -10.9      0.957      2.551
REMARK  5 active torsions:
REMARK  status: ('A' for Active; 'I' for Inactive)
REMARK    1  A    between atoms: C_2  and  N_3 
REMARK    2  A    between atoms: C_7  and  N_8 
REMARK       I    between atoms: N_8  and  C_9 
REMARK    3  A    between atoms: C_9  and  C_10 
REMARK    4  A    between atoms: C_13  and  C_14 
REMARK    5  A    between atoms: C_14  and  C_15 
ROOT
HETATM    1  N   UNL     1       7.468  28.500  58.128  1.00  0.00    -0.323 N 
HETATM    2  C   UNL     1       8.419  29.503  58.193  1.00  0.00     0.256 C 
HETATM    3  O   UNL     1       9.435  29.591  57.514  1.00  0.00    -0.267 OA
HETATM    4  H   UNL     1       6.588  28.663  58.596  1.00  0.00     0.169 HD
ENDROOT
BRANCH   1   5
HETATM    5  C   UNL     1       7.592  27.252  57.478  1.00  0.00     0.035 A 
HETATM    6  C   UNL     1       7.416  27.076  56.103  1.00  0.00     0.044 A 
HETATM    7  C   UNL     1       7.644  25.813  55.510  1.00  0.00     0.005 A 
HETATM    8  C   UNL     1       8.045  24.748  56.317  1.00  0.00     0.046 A 
HETATM    9  C   UNL     1       7.566  25.333  54.166  1.00  0.00     0.003 A 
HETATM   10  N   UNL     1       8.234  23.661  55.485  1.00  0.00    -0.346 N 
HETATM   11  C   UNL     1       8.197  24.895  57.705  1.00  0.00     0.033 A 
HETATM   12  C   UNL     1       7.936  23.986  54.175  1.00  0.00     0.046 A 
HETATM   13  C   UNL     1       7.962  23.219  52.997  1.00  0.00     0.030 A 
HETATM   14  C   UNL     1       7.609  23.840  51.796  1.00  0.00     0.002 A 
HETATM   15  C   UNL     1       7.240  25.180  51.764  1.00  0.00     0.001 A 
HETATM   16  C   UNL     1       7.214  25.935  52.940  1.00  0.00     0.014 A 
HETATM   17  C   UNL     1       7.967  26.159  58.264  1.00  0.00     0.032 A 
BRANCH  10  18
HETATM   18  C   UNL     1       8.719  22.360  55.920  1.00  0.00     0.125 C 
HETATM   19  C   UNL     1       7.682  21.267  55.739  1.00  0.00     0.027 C 
ENDBRANCH  10  18
ENDBRANCH   1   5
BRANCH   2  20
HETATM   20  C   UNL     1       8.147  30.577  59.195  1.00  0.00     0.032 A 
HETATM   21  C   UNL     1       7.097  31.491  59.040  1.00  0.00     0.017 A 
HETATM   22  C   UNL     1       6.824  32.427  60.043  1.00  0.00     0.008 A 
HETATM   23  C   UNL     1       7.576  32.446  61.225  1.00  0.00    -0.057 A 
HETATM   24  C   UNL     1       8.634  31.538  61.368  1.00  0.00     0.008 A 
HETATM   25  C   UNL     1       8.915  30.608  60.365  1.00  0.00     0.017 A 
BRANCH  23  26
HETATM   26  C   UNL     1       7.225  33.390  62.353  1.00  0.00     0.053 C 
BRANCH  26  27
HETATM   27  C   UNL     1       6.849  32.722  63.686  1.00  0.00     0.091 C 
HETATM   28  C   UNL     1       5.371  32.434  63.773  1.00  0.00     0.229 C 
HETATM   29  O   UNL     1       4.758  31.657  63.059  1.00  0.00    -0.273 OA
HETATM   30  N   UNL     1       4.829  33.209  64.744  1.00  0.00    -0.297 N 
HETATM   31  C   UNL     1       5.748  33.940  65.422  1.00  0.00     0.225 C 
HETATM   32  H   UNL     1       3.841  33.248  64.938  1.00  0.00     0.171 HD
HETATM   33  O   UNL     1       5.510  34.726  66.323  1.00  0.00    -0.273 OA
HETATM   34  C   UNL     1       7.117  33.567  64.933  1.00  0.00     0.117 C 
ENDBRANCH  26  27
ENDBRANCH  23  26
ENDBRANCH   2  20
TORSDOF 5
ENDMDL
MODEL 3
REMARK VINA RESULT:     -10.4      3.583     11.066
REMARK  5 active torsions:
REMARK  status: ('A' for Active; 'I' for Inactive)
REMARK    1  A    between atoms: C_2  and  N_3 
REMARK    2  A    between atoms: C_7  and  N_8 
REMARK       I    between atoms: N_8  and  C_9 
REMARK    3  A    between atoms: C_9  and  C_10 
REMARK    4  A    between atoms: C_13  and  C_14 
REMARK    5  A    between atoms: C_14  and  C_15 
ROOT
HETATM    1  N   UNL     1       7.605  28.387  56.277  1.00  0.00    -0.323 N 
HETATM    2  C   UNL     1       6.586  28.005  55.424  1.00  0.00     0.256 C 
HETATM    3  O   UNL     1       5.544  28.614  55.213  1.00  0.00    -0.267 OA
HETATM    4  H   UNL     1       8.486  27.899  56.196  1.00  0.00     0.169 HD
ENDROOT
BRANCH   1   5
HETATM    5  C   UNL     1       7.553  29.392  57.269  1.00  0.00     0.035 A 
HETATM    6  C   UNL     1       6.441  30.210  57.482  1.00  0.00     0.044 A 
HETATM    7  C   UNL     1       6.428  31.133  58.553  1.00  0.00     0.005 A 
HETATM    8  C   UNL     1       7.540  31.214  59.390  1.00  0.00     0.046 A 
HETATM    9  C   UNL     1       5.459  32.072  59.025  1.00  0.00     0.003 A 
HETATM   10  N   UNL     1       7.245  32.152  60.362  1.00  0.00    -0.346 N 
HETATM   11  C   UNL     1       8.680  30.424  59.176  1.00  0.00     0.033 A 
HETATM   12  C   UNL     1       5.992  32.698  60.154  1.00  0.00     0.046 A 
HETATM   13  C   UNL     1       5.279  33.683  60.859  1.00  0.00     0.030 A 
HETATM   14  C   UNL     1       4.002  34.028  60.404  1.00  0.00     0.002 A 
HETATM   15  C   UNL     1       3.452  33.415  59.285  1.00  0.00     0.001 A 
HETATM   16  C   UNL     1       4.169  32.438  58.588  1.00  0.00     0.014 A 
HETATM   17  C   UNL     1       8.663  29.516  58.110  1.00  0.00     0.032 A 
BRANCH  10  18
HETATM   18  C   UNL     1       8.116  32.492  61.476  1.00  0.00     0.125 C 
HETATM   19  C   UNL     1       7.903  31.584  62.674  1.00  0.00     0.027 C 
ENDBRANCH  10  18
ENDBRANCH   1   5
BRANCH   2  20
HETATM   20  C   UNL     1       6.810  26.721  54.694  1.00  0.00     0.032 A 
HETATM   21  C   UNL     1       7.670  26.633  53.591  1.00  0.00     0.017 A 
HETATM   22  C   UNL     1       7.918  25.396  52.989  1.00  0.00     0.008 A 
HETATM   23  C   UNL     1       7.336  24.226  53.495  1.00  0.00    -0.057 A 
HETATM   24  C   UNL     1       6.466  24.322  54.590  1.00  0.00     0.008 A 
HETATM   25  C   UNL     1       6.209  25.558  55.188  1.00  0.00     0.017 A 
BRANCH  23  26
HETATM   26  C   UNL     1       7.676  22.873  52.910  1.00  0.00     0.053 C 
BRANCH  26  27
HETATM   27  C   UNL     1       8.807  22.109  53.618  1.00  0.00     0.091 C 
HETATM   28  C   UNL     1       8.524  20.630  53.693  1.00  0.00     0.229 C 
HETATM   29  O   UNL     1       8.434  19.876  52.738  1.00  0.00    -0.273 OA
HETATM   30  N   UNL     1       8.344  20.283  54.991  1.00  0.00    -0.297 N 
HETATM   31  C   UNL     1       8.557  21.307  55.854  1.00  0.00     0.225 C 
HETATM   32  H   UNL     1       8.068  19.360  55.288  1.00  0.00     0.171 HD
HETATM   33  O   UNL     1       8.439  21.253  57.066  1.00  0.00    -0.273 OA
HETATM   34  C   UNL     1       9.038  22.498  55.079  1.00  0.00     0.117 C 
ENDBRANCH  26  27
ENDBRANCH  23  26
ENDBRANCH   2  20
TORSDOF 5
ENDMDL
MODEL 4
REMARK VINA RESULT:     -10.2      7.050     12.448
REMARK  5 active torsions:
REMARK  status: ('A' for Active; 'I' for Inactive)
REMARK    1  A    between atoms: C_2  and  N_3 
REMARK    2  A    between atoms: C_7  and  N_8 
REMARK       I    between atoms: N_8  and  C_9 
REMARK    3  A    between atoms: C_9  and  C_10 
REMARK    4  A    between atoms: C_13  and  C_14 
REMARK    5  A    between atoms: C_14  and  C_15 
ROOT
HETATM    1  N   UNL     1       4.573  26.808  51.141  1.00  0.00    -0.323 N 
HETATM    2  C   UNL     1       4.886  28.071  50.673  1.00  0.00     0.256 C 
HETATM    3  O   UNL     1       5.820  28.775  51.040  1.00  0.00    -0.267 OA
HETATM    4  H   UNL     1       3.906  26.267  50.608  1.00  0.00     0.169 HD
ENDROOT
BRANCH   1   5
HETATM    5  C   UNL     1       5.078  26.181  52.302  1.00  0.00     0.035 A 
HETATM    6  C   UNL     1       5.842  25.011  52.277  1.00  0.00     0.044 A 
HETATM    7  C   UNL     1       6.390  24.491  53.472  1.00  0.00     0.005 A 
HETATM    8  C   UNL     1       6.155  25.161  54.673  1.00  0.00     0.046 A 
HETATM    9  C   UNL     1       7.204  23.353  53.762  1.00  0.00     0.003 A 
HETATM   10  N   UNL     1       6.831  24.468  55.659  1.00  0.00    -0.346 N 
HETATM   11  C   UNL     1       5.364  26.319  54.725  1.00  0.00     0.033 A 
HETATM   12  C   UNL     1       7.465  23.357  55.134  1.00  0.00     0.046 A 
HETATM   13  C   UNL     1       8.247  22.360  55.742  1.00  0.00     0.030 A 
HETATM   14  C   UNL     1       8.771  21.347  54.933  1.00  0.00     0.002 A 
HETATM   15  C   UNL     1       8.526  21.325  53.565  1.00  0.00     0.001 A 
HETATM   16  C   UNL     1       7.746  22.319  52.969  1.00  0.00     0.014 A 
HETATM   17  C   UNL     1       4.838  26.814  53.524  1.00  0.00     0.032 A 
BRANCH  10  18
HETATM   18  C   UNL     1       6.901  24.872  57.055  1.00  0.00     0.125 C 
HETATM   19  C   UNL     1       8.045  25.834  57.321  1.00  0.00     0.027 C 
ENDBRANCH  10  18
ENDBRANCH   1   5
BRANCH   2  20
HETATM   20  C   UNL     1       3.983  28.601  49.607  1.00  0.00     0.032 A 
HETATM   21  C   UNL     1       4.437  28.855  48.307  1.00  0.00     0.017 A 
HETATM   22  C   UNL     1       3.541  29.270  47.317  1.00  0.00     0.008 A 
HETATM   23  C   UNL     1       2.176  29.408  47.602  1.00  0.00    -0.057 A 
HETATM   24  C   UNL     1       1.730  29.166  48.909  1.00  0.00     0.008 A 
HETATM   25  C   UNL     1       2.625  28.761  49.902  1.00  0.00     0.017 A 
BRANCH  23  26
HETATM   26  C   UNL     1       1.187  29.761  46.514  1.00  0.00     0.053 C 
BRANCH  26  27
HETATM   27  C   UNL     1      -0.094  28.912  46.479  1.00  0.00     0.091 C 
HETATM   28  C   UNL     1       0.162  27.533  45.924  1.00  0.00     0.229 C 
HETATM   29  O   UNL     1       0.869  26.682  46.437  1.00  0.00    -0.273 OA
HETATM   30  N   UNL     1      -0.489  27.409  44.741  1.00  0.00    -0.297 N 
HETATM   31  C   UNL     1      -1.251  28.487  44.432  1.00  0.00     0.225 C 
HETATM   32  H   UNL     1      -0.408  26.602  44.144  1.00  0.00     0.171 HD
HETATM   33  O   UNL     1      -1.912  28.626  43.418  1.00  0.00    -0.273 OA
HETATM   34  C   UNL     1      -1.207  29.453  45.580  1.00  0.00     0.117 C 
ENDBRANCH  26  27
ENDBRANCH  23  26
ENDBRANCH   2  20
TORSDOF 5
ENDMDL
MODEL 5
REMARK VINA RESULT:     -10.2      2.581     11.395
REMARK  5 active torsions:
REMARK  status: ('A' for Active; 'I' for Inactive)
REMARK    1  A    between atoms: C_2  and  N_3 
REMARK    2  A    between atoms: C_7  and  N_8 
REMARK       I    between atoms: N_8  and  C_9 
REMARK    3  A    between atoms: C_9  and  C_10 
REMARK    4  A    between atoms: C_13  and  C_14 
REMARK    5  A    between atoms: C_14  and  C_15 
ROOT
HETATM    1  N   UNL     1       7.666  30.865  60.405  1.00  0.00    -0.323 N 
HETATM    2  C   UNL     1       8.304  31.118  59.204  1.00  0.00     0.256 C 
HETATM    3  O   UNL     1       8.959  32.115  58.922  1.00  0.00    -0.267 OA
HETATM    4  H   UNL     1       7.340  29.923  60.568  1.00  0.00     0.169 HD
ENDROOT
BRANCH   1   5
HETATM    5  C   UNL     1       7.405  31.789  61.442  1.00  0.00     0.035 A 
HETATM    6  C   UNL     1       6.488  32.837  61.330  1.00  0.00     0.044 A 
HETATM    7  C   UNL     1       6.214  33.668  62.441  1.00  0.00     0.005 A 
HETATM    8  C   UNL     1       6.874  33.426  63.646  1.00  0.00     0.046 A 
HETATM    9  C   UNL     1       5.341  34.782  62.640  1.00  0.00     0.003 A 
HETATM   10  N   UNL     1       6.393  34.346  64.559  1.00  0.00    -0.346 N 
HETATM   11  C   UNL     1       7.822  32.398  63.772  1.00  0.00     0.033 A 
HETATM   12  C   UNL     1       5.471  35.190  63.969  1.00  0.00     0.046 A 
HETATM   13  C   UNL     1       4.738  36.272  64.485  1.00  0.00     0.030 A 
HETATM   14  C   UNL     1       3.858  36.943  63.630  1.00  0.00     0.002 A 
HETATM   15  C   UNL     1       3.712  36.551  62.304  1.00  0.00     0.001 A 
HETATM   16  C   UNL     1       4.446  35.475  61.798  1.00  0.00     0.014 A 
HETATM   17  C   UNL     1       8.069  31.589  62.655  1.00  0.00     0.032 A 
BRANCH  10  18
HETATM   18  C   UNL     1       6.774  34.395  65.962  1.00  0.00     0.125 C 
HETATM   19  C   UNL     1       5.580  34.260  66.890  1.00  0.00     0.027 C 
ENDBRANCH  10  18
ENDBRANCH   1   5
BRANCH   2  20
HETATM   20  C   UNL     1       8.171  30.048  58.171  1.00  0.00     0.032 A 
HETATM   21  C   UNL     1       9.286  29.416  57.607  1.00  0.00     0.017 A 
HETATM   22  C   UNL     1       9.116  28.360  56.705  1.00  0.00     0.008 A 
HETATM   23  C   UNL     1       7.833  27.901  56.377  1.00  0.00    -0.057 A 
HETATM   24  C   UNL     1       6.721  28.546  56.935  1.00  0.00     0.008 A 
HETATM   25  C   UNL     1       6.887  29.607  57.828  1.00  0.00     0.017 A 
BRANCH  23  26
HETATM   26  C   UNL     1       7.645  26.698  55.480  1.00  0.00     0.053 C 
BRANCH  26  27
HETATM   27  C   UNL     1       7.003  25.469  56.144  1.00  0.00     0.091 C 
HETATM   28  C   UNL     1       7.982  24.730  57.022  1.00  0.00     0.229 C 
HETATM   29  O   UNL     1       8.497  25.172  58.036  1.00  0.00    -0.273 OA
HETATM   30  N   UNL     1       8.226  23.512  56.479  1.00  0.00    -0.297 N 
HETATM   31  C   UNL     1       7.475  23.254  55.381  1.00  0.00     0.225 C 
HETATM   32  H   UNL     1       8.906  22.865  56.847  1.00  0.00     0.171 HD
HETATM   33  O   UNL     1       7.525  22.241  54.705  1.00  0.00    -0.273 OA
HETATM   34  C   UNL     1       6.515  24.389  55.175  1.00  0.00     0.117 C 
ENDBRANCH  26  27
ENDBRANCH  23  26
ENDBRANCH   2  20
TORSDOF 5
ENDMDL
MODEL 6
REMARK VINA RESULT:     -10.0      3.816     10.805
REMARK  5 active torsions:
REMARK  status: ('A' for Active; 'I' for Inactive)
REMARK    1  A    between atoms: C_2  and  N_3 
REMARK    2  A    between atoms: C_7  and  N_8 
REMARK       I    between atoms: N_8  and  C_9 
REMARK    3  A    between atoms: C_9  and  C_10 
REMARK    4  A    between atoms: C_13  and  C_14 
REMARK    5  A    between atoms: C_14  and  C_15 
ROOT
HETATM    1  N   UNL     1       6.720  28.227  55.864  1.00  0.00    -0.323 N 
HETATM    2  C   UNL     1       5.822  27.564  55.047  1.00  0.00     0.256 C 
HETATM    3  O   UNL     1       4.656  27.877  54.839  1.00  0.00    -0.267 OA
HETATM    4  H   UNL     1       7.696  27.979  55.780  1.00  0.00     0.169 HD
ENDROOT
BRANCH   1   5
HETATM    5  C   UNL     1       6.424  29.222  56.823  1.00  0.00     0.035 A 
HETATM    6  C   UNL     1       7.274  29.550  57.883  1.00  0.00     0.044 A 
HETATM    7  C   UNL     1       6.952  30.618  58.751  1.00  0.00     0.005 A 
HETATM    8  C   UNL     1       5.775  31.336  58.535  1.00  0.00     0.046 A 
HETATM    9  C   UNL     1       7.607  31.191  59.885  1.00  0.00     0.003 A 
HETATM   10  N   UNL     1       5.731  32.334  59.490  1.00  0.00    -0.346 N 
HETATM   11  C   UNL     1       4.891  31.003  57.496  1.00  0.00     0.033 A 
HETATM   12  C   UNL     1       6.826  32.259  60.331  1.00  0.00     0.046 A 
HETATM   13  C   UNL     1       7.200  33.037  61.440  1.00  0.00     0.030 A 
HETATM   14  C   UNL     1       8.391  32.718  62.099  1.00  0.00     0.002 A 
HETATM   15  C   UNL     1       9.185  31.661  61.670  1.00  0.00     0.001 A 
HETATM   16  C   UNL     1       8.805  30.891  60.567  1.00  0.00     0.014 A 
HETATM   17  C   UNL     1       5.239  29.942  56.650  1.00  0.00     0.032 A 
BRANCH  10  18
HETATM   18  C   UNL     1       4.695  33.352  59.576  1.00  0.00     0.125 C 
HETATM   19  C   UNL     1       4.717  34.299  58.390  1.00  0.00     0.027 C 
ENDBRANCH  10  18
ENDBRANCH   1   5
BRANCH   2  20
HETATM   20  C   UNL     1       6.360  26.354  54.355  1.00  0.00     0.032 A 
HETATM   21  C   UNL     1       7.448  26.423  53.476  1.00  0.00     0.017 A 
HETATM   22  C   UNL     1       7.975  25.255  52.915  1.00  0.00     0.008 A 
HETATM   23  C   UNL     1       7.443  24.001  53.246  1.00  0.00    -0.057 A 
HETATM   24  C   UNL     1       6.345  23.941  54.116  1.00  0.00     0.008 A 
HETATM   25  C   UNL     1       5.811  25.106  54.670  1.00  0.00     0.017 A 
BRANCH  23  26
HETATM   26  C   UNL     1       8.068  22.729  52.720  1.00  0.00     0.053 C 
BRANCH  26  27
HETATM   27  C   UNL     1       9.056  22.033  53.670  1.00  0.00     0.091 C 
HETATM   28  C   UNL     1       8.648  20.610  53.961  1.00  0.00     0.229 C 
HETATM   29  O   UNL     1       8.594  19.707  53.143  1.00  0.00    -0.273 OA
HETATM   30  N   UNL     1       8.310  20.510  55.271  1.00  0.00    -0.297 N 
HETATM   31  C   UNL     1       8.517  21.655  55.967  1.00  0.00     0.225 C 
HETATM   32  H   UNL     1       7.932  19.673  55.685  1.00  0.00     0.171 HD
HETATM   33  O   UNL     1       8.273  21.823  57.149  1.00  0.00    -0.273 OA
HETATM   34  C   UNL     1       9.168  22.659  55.062  1.00  0.00     0.117 C 
ENDBRANCH  26  27
ENDBRANCH  23  26
ENDBRANCH   2  20
TORSDOF 5
ENDMDL
MODEL 7
REMARK VINA RESULT:      -9.8      1.738      2.183
REMARK  5 active torsions:
REMARK  status: ('A' for Active; 'I' for Inactive)
REMARK    1  A    between atoms: C_2  and  N_3 
REMARK    2  A    between atoms: C_7  and  N_8 
REMARK       I    between atoms: N_8  and  C_9 
REMARK    3  A    between atoms: C_9  and  C_10 
REMARK    4  A    between atoms: C_13  and  C_14 
REMARK    5  A    between atoms: C_14  and  C_15 
ROOT
HETATM    1  N   UNL     1       5.739  29.405  57.779  1.00  0.00    -0.323 N 
HETATM    2  C   UNL     1       5.839  30.770  57.579  1.00  0.00     0.256 C 
HETATM    3  O   UNL     1       5.734  31.361  56.511  1.00  0.00    -0.267 OA
HETATM    4  H   UNL     1       5.641  29.080  58.731  1.00  0.00     0.169 HD
ENDROOT
BRANCH   1   5
HETATM    5  C   UNL     1       5.766  28.396  56.790  1.00  0.00     0.035 A 
HETATM    6  C   UNL     1       6.641  27.307  56.821  1.00  0.00     0.044 A 
HETATM    7  C   UNL     1       6.549  26.289  55.845  1.00  0.00     0.005 A 
HETATM    8  C   UNL     1       5.574  26.389  54.852  1.00  0.00     0.046 A 
HETATM    9  C   UNL     1       7.271  25.076  55.623  1.00  0.00     0.003 A 
HETATM   10  N   UNL     1       5.680  25.255  54.068  1.00  0.00    -0.346 N 
HETATM   11  C   UNL     1       4.705  27.489  54.784  1.00  0.00     0.033 A 
HETATM   12  C   UNL     1       6.713  24.448  54.507  1.00  0.00     0.046 A 
HETATM   13  C   UNL     1       7.203  23.222  54.026  1.00  0.00     0.030 A 
HETATM   14  C   UNL     1       8.277  22.630  54.698  1.00  0.00     0.002 A 
HETATM   15  C   UNL     1       8.846  23.236  55.812  1.00  0.00     0.001 A 
HETATM   16  C   UNL     1       8.354  24.456  56.283  1.00  0.00     0.014 A 
HETATM   17  C   UNL     1       4.817  28.480  55.767  1.00  0.00     0.032 A 
BRANCH  10  18
HETATM   18  C   UNL     1       4.799  24.933  52.956  1.00  0.00     0.125 C 
HETATM   19  C   UNL     1       5.297  25.506  51.641  1.00  0.00     0.027 C 
ENDBRANCH  10  18
ENDBRANCH   1   5
BRANCH   2  20
HETATM   20  C   UNL     1       6.093  31.579  58.809  1.00  0.00     0.032 A 
HETATM   21  C   UNL     1       5.086  32.337  59.421  1.00  0.00     0.017 A 
HETATM   22  C   UNL     1       5.343  33.012  60.619  1.00  0.00     0.008 A 
HETATM   23  C   UNL     1       6.597  32.917  61.237  1.00  0.00    -0.057 A 
HETATM   24  C   UNL     1       7.604  32.168  60.613  1.00  0.00     0.008 A 
HETATM   25  C   UNL     1       7.353  31.501  59.412  1.00  0.00     0.017 A 
BRANCH  23  26
HETATM   26  C   UNL     1       6.851  33.564  62.580  1.00  0.00     0.053 C 
BRANCH  26  27
HETATM   27  C   UNL     1       5.602  34.064  63.324  1.00  0.00     0.091 C 
HETATM   28  C   UNL     1       5.745  35.502  63.759  1.00  0.00     0.229 C 
HETATM   29  O   UNL     1       5.846  36.461  63.012  1.00  0.00    -0.273 OA
HETATM   30  N   UNL     1       5.786  35.548  65.113  1.00  0.00    -0.297 N 
HETATM   31  C   UNL     1       5.594  34.340  65.697  1.00  0.00     0.225 C 
HETATM   32  H   UNL     1       5.953  36.393  65.636  1.00  0.00     0.171 HD
HETATM   33  O   UNL     1       5.606  34.118  66.896  1.00  0.00    -0.273 OA
HETATM   34  C   UNL     1       5.288  33.331  64.629  1.00  0.00     0.117 C 
ENDBRANCH  26  27
ENDBRANCH  23  26
ENDBRANCH   2  20
TORSDOF 5
ENDMDL
MODEL 8
REMARK VINA RESULT:      -9.3      7.865     11.791
REMARK  5 active torsions:
REMARK  status: ('A' for Active; 'I' for Inactive)
REMARK    1  A    between atoms: C_2  and  N_3 
REMARK    2  A    between atoms: C_7  and  N_8 
REMARK       I    between atoms: N_8  and  C_9 
REMARK    3  A    between atoms: C_9  and  C_10 
REMARK    4  A    between atoms: C_13  and  C_14 
REMARK    5  A    between atoms: C_14  and  C_15 
ROOT
HETATM    1  N   UNL     1       5.696  27.239  51.951  1.00  0.00    -0.323 N 
HETATM    2  C   UNL     1       5.190  26.965  50.693  1.00  0.00     0.256 C 
HETATM    3  O   UNL     1       4.800  25.878  50.285  1.00  0.00    -0.267 OA
HETATM    4  H   UNL     1       5.784  28.211  52.215  1.00  0.00     0.169 HD
ENDROOT
BRANCH   1   5
HETATM    5  C   UNL     1       6.119  26.303  52.921  1.00  0.00     0.035 A 
HETATM    6  C   UNL     1       6.563  25.015  52.609  1.00  0.00     0.044 A 
HETATM    7  C   UNL     1       7.056  24.165  53.625  1.00  0.00     0.005 A 
HETATM    8  C   UNL     1       7.090  24.630  54.940  1.00  0.00     0.046 A 
HETATM    9  C   UNL     1       7.581  22.836  53.621  1.00  0.00     0.003 A 
HETATM   10  N   UNL     1       7.648  23.624  55.708  1.00  0.00    -0.346 N 
HETATM   11  C   UNL     1       6.620  25.907  55.280  1.00  0.00     0.033 A 
HETATM   12  C   UNL     1       7.942  22.518  54.932  1.00  0.00     0.046 A 
HETATM   13  C   UNL     1       8.496  21.270  55.266  1.00  0.00     0.030 A 
HETATM   14  C   UNL     1       8.686  20.337  54.242  1.00  0.00     0.002 A 
HETATM   15  C   UNL     1       8.336  20.633  52.930  1.00  0.00     0.001 A 
HETATM   16  C   UNL     1       7.784  21.876  52.607  1.00  0.00     0.014 A 
HETATM   17  C   UNL     1       6.141  26.729  54.252  1.00  0.00     0.032 A 
BRANCH  10  18
HETATM   18  C   UNL     1       7.926  23.728  57.132  1.00  0.00     0.125 C 
HETATM   19  C   UNL     1       9.150  24.577  57.421  1.00  0.00     0.027 C 
ENDBRANCH  10  18
ENDBRANCH   1   5
BRANCH   2  20
HETATM   20  C   UNL     1       5.115  28.134  49.766  1.00  0.00     0.032 A 
HETATM   21  C   UNL     1       4.543  28.036  48.491  1.00  0.00     0.017 A 
HETATM   22  C   UNL     1       4.415  29.173  47.687  1.00  0.00     0.008 A 
HETATM   23  C   UNL     1       4.829  30.427  48.154  1.00  0.00    -0.057 A 
HETATM   24  C   UNL     1       5.413  30.517  49.425  1.00  0.00     0.008 A 
HETATM   25  C   UNL     1       5.550  29.381  50.226  1.00  0.00     0.017 A 
BRANCH  23  26
HETATM   26  C   UNL     1       4.605  31.675  47.329  1.00  0.00     0.053 C 
BRANCH  26  27
HETATM   27  C   UNL     1       5.117  31.616  45.881  1.00  0.00     0.091 C 
HETATM   28  C   UNL     1       5.840  32.880  45.489  1.00  0.00     0.229 C 
HETATM   29  O   UNL     1       6.882  33.282  45.979  1.00  0.00    -0.273 OA
HETATM   30  N   UNL     1       5.121  33.517  44.531  1.00  0.00    -0.297 N 
HETATM   31  C   UNL     1       4.031  32.820  44.127  1.00  0.00     0.225 C 
HETATM   32  H   UNL     1       5.365  34.423  44.164  1.00  0.00     0.171 HD
HETATM   33  O   UNL     1       3.218  33.188  43.296  1.00  0.00    -0.273 OA
HETATM   34  C   UNL     1       4.029  31.486  44.814  1.00  0.00     0.117 C 
ENDBRANCH  26  27
ENDBRANCH  23  26
ENDBRANCH   2  20
TORSDOF 5
ENDMDL
MODEL 9
REMARK VINA RESULT:      -9.1      8.500     12.017
REMARK  5 active torsions:
REMARK  status: ('A' for Active; 'I' for Inactive)
REMARK    1  A    between atoms: C_2  and  N_3 
REMARK    2  A    between atoms: C_7  and  N_8 
REMARK       I    between atoms: N_8  and  C_9 
REMARK    3  A    between atoms: C_9  and  C_10 
REMARK    4  A    between atoms: C_13  and  C_14 
REMARK    5  A    between atoms: C_14  and  C_15 
ROOT
HETATM    1  N   UNL     1       5.041  27.862  51.280  1.00  0.00    -0.323 N 
HETATM    2  C   UNL     1       5.243  26.503  51.122  1.00  0.00     0.256 C 
HETATM    3  O   UNL     1       4.903  25.821  50.163  1.00  0.00    -0.267 OA
HETATM    4  H   UNL     1       5.552  28.324  52.020  1.00  0.00     0.169 HD
ENDROOT
BRANCH   1   5
HETATM    5  C   UNL     1       4.185  28.690  50.520  1.00  0.00     0.035 A 
HETATM    6  C   UNL     1       4.529  29.220  49.274  1.00  0.00     0.044 A 
HETATM    7  C   UNL     1       3.586  29.965  48.530  1.00  0.00     0.005 A 
HETATM    8  C   UNL     1       2.311  30.165  49.060  1.00  0.00     0.046 A 
HETATM    9  C   UNL     1       3.631  30.607  47.254  1.00  0.00     0.003 A 
HETATM   10  N   UNL     1       1.592  30.880  48.120  1.00  0.00    -0.346 N 
HETATM   11  C   UNL     1       1.954  29.668  50.323  1.00  0.00     0.033 A 
HETATM   12  C   UNL     1       2.376  31.173  47.019  1.00  0.00     0.046 A 
HETATM   13  C   UNL     1       2.093  31.881  45.839  1.00  0.00     0.030 A 
HETATM   14  C   UNL     1       3.107  32.008  44.885  1.00  0.00     0.002 A 
HETATM   15  C   UNL     1       4.362  31.450  45.097  1.00  0.00     0.001 A 
HETATM   16  C   UNL     1       4.637  30.749  46.274  1.00  0.00     0.014 A 
HETATM   17  C   UNL     1       2.908  28.930  51.035  1.00  0.00     0.032 A 
BRANCH  10  18
HETATM   18  C   UNL     1       0.189  31.242  48.251  1.00  0.00     0.125 C 
HETATM   19  C   UNL     1       0.001  32.587  48.928  1.00  0.00     0.027 C 
ENDBRANCH  10  18
ENDBRANCH   1   5
BRANCH   2  20
HETATM   20  C   UNL     1       5.956  25.827  52.248  1.00  0.00     0.032 A 
HETATM   21  C   UNL     1       5.317  25.518  53.455  1.00  0.00     0.017 A 
HETATM   22  C   UNL     1       5.997  24.809  54.450  1.00  0.00     0.008 A 
HETATM   23  C   UNL     1       7.312  24.374  54.244  1.00  0.00    -0.057 A 
HETATM   24  C   UNL     1       7.951  24.698  53.039  1.00  0.00     0.008 A 
HETATM   25  C   UNL     1       7.278  25.414  52.048  1.00  0.00     0.017 A 
BRANCH  23  26
HETATM   26  C   UNL     1       8.019  23.523  55.276  1.00  0.00     0.053 C 
BRANCH  26  27
HETATM   27  C   UNL     1       7.537  22.067  55.380  1.00  0.00     0.091 C 
HETATM   28  C   UNL     1       8.367  21.269  56.355  1.00  0.00     0.229 C 
HETATM   29  O   UNL     1       8.438  21.470  57.556  1.00  0.00    -0.273 OA
HETATM   30  N   UNL     1       9.054  20.320  55.672  1.00  0.00    -0.297 N 
HETATM   31  C   UNL     1       8.745  20.280  54.353  1.00  0.00     0.225 C 
HETATM   32  H   UNL     1       9.734  19.711  56.098  1.00  0.00     0.171 HD
HETATM   33  O   UNL     1       9.240  19.532  53.527  1.00  0.00    -0.273 OA
HETATM   34  C   UNL     1       7.637  21.257  54.086  1.00  0.00     0.117 C 
ENDBRANCH  26  27
ENDBRANCH  23  26
ENDBRANCH   2  20
TORSDOF 5
ENDMDL
MODEL 10
REMARK VINA RESULT:      -9.0      2.987     11.480
REMARK  5 active torsions:
REMARK  status: ('A' for Active; 'I' for Inactive)
REMARK    1  A    between atoms: C_2  and  N_3 
REMARK    2  A    between atoms: C_7  and  N_8 
REMARK       I    between atoms: N_8  and  C_9 
REMARK    3  A    between atoms: C_9  and  C_10 
REMARK    4  A    between atoms: C_13  and  C_14 
REMARK    5  A    between atoms: C_14  and  C_15 
ROOT
HETATM    1  N   UNL     1       7.435  30.234  59.044  1.00  0.00    -0.323 N 
HETATM    2  C   UNL     1       6.772  30.114  57.836  1.00  0.00     0.256 C 
HETATM    3  O   UNL     1       6.105  30.979  57.281  1.00  0.00    -0.267 OA
HETATM    4  H   UNL     1       8.109  29.517  59.277  1.00  0.00     0.169 HD
ENDROOT
BRANCH   1   5
HETATM    5  C   UNL     1       7.271  31.254  60.008  1.00  0.00     0.035 A 
HETATM    6  C   UNL     1       6.202  32.154  60.005  1.00  0.00     0.044 A 
HETATM    7  C   UNL     1       6.056  33.091  61.053  1.00  0.00     0.005 A 
HETATM    8  C   UNL     1       6.993  33.104  62.087  1.00  0.00     0.046 A 
HETATM    9  C   UNL     1       5.088  34.105  61.333  1.00  0.00     0.003 A 
HETATM   10  N   UNL     1       6.589  34.075  62.983  1.00  0.00    -0.346 N 
HETATM   11  C   UNL     1       8.091  32.230  62.093  1.00  0.00     0.033 A 
HETATM   12  C   UNL     1       5.442  34.708  62.541  1.00  0.00     0.046 A 
HETATM   13  C   UNL     1       4.684  35.752  63.098  1.00  0.00     0.030 A 
HETATM   14  C   UNL     1       3.546  36.182  62.409  1.00  0.00     0.002 A 
HETATM   15  C   UNL     1       3.173  35.594  61.206  1.00  0.00     0.001 A 
HETATM   16  C   UNL     1       3.934  34.557  60.658  1.00  0.00     0.014 A 
HETATM   17  C   UNL     1       8.208  31.310  61.043  1.00  0.00     0.032 A 
BRANCH  10  18
HETATM   18  C   UNL     1       7.257  34.367  64.243  1.00  0.00     0.125 C 
HETATM   19  C   UNL     1       6.869  33.394  65.341  1.00  0.00     0.027 C 
ENDBRANCH  10  18
ENDBRANCH   1   5
BRANCH   2  20
HETATM   20  C   UNL     1       6.909  28.789  57.160  1.00  0.00     0.032 A 
HETATM   21  C   UNL     1       7.692  27.758  57.696  1.00  0.00     0.017 A 
HETATM   22  C   UNL     1       7.725  26.504  57.076  1.00  0.00     0.008 A 
HETATM   23  C   UNL     1       6.956  26.253  55.932  1.00  0.00    -0.057 A 
HETATM   24  C   UNL     1       6.185  27.293  55.393  1.00  0.00     0.008 A 
HETATM   25  C   UNL     1       6.158  28.548  56.004  1.00  0.00     0.017 A 
BRANCH  23  26
HETATM   26  C   UNL     1       6.912  24.873  55.314  1.00  0.00     0.053 C 
BRANCH  26  27
HETATM   27  C   UNL     1       8.241  24.361  54.736  1.00  0.00     0.091 C 
HETATM   28  C   UNL     1       8.048  23.677  53.406  1.00  0.00     0.229 C 
HETATM   29  O   UNL     1       7.659  24.214  52.383  1.00  0.00    -0.273 OA
HETATM   30  N   UNL     1       8.338  22.359  53.545  1.00  0.00    -0.297 N 
HETATM   31  C   UNL     1       8.803  22.039  54.777  1.00  0.00     0.225 C 
HETATM   32  H   UNL     1       8.211  21.682  52.810  1.00  0.00     0.171 HD
HETATM   33  O   UNL     1       9.111  20.922  55.154  1.00  0.00    -0.273 OA
HETATM   34  C   UNL     1       8.948  23.299  55.580  1.00  0.00     0.117 C 
ENDBRANCH  26  27
ENDBRANCH  23  26
ENDBRANCH   2  20
TORSDOF 5
ENDMDL
