MODEL 1
REMARK VINA RESULT:     -10.2      0.000      0.000
REMARK  5 active torsions:
REMARK  status: ('A' for Active; 'I' for Inactive)
REMARK    1  A    between atoms: C_2  and  C_3 
REMARK    2  A    between atoms: C_6  and  N_7 
REMARK       I    between atoms: N_7  and  C_8 
REMARK    3  A    between atoms: C_8  and  C_9 
REMARK    4  A    between atoms: C_17  and  C_18 
REMARK    5  A    between atoms: C_21  and  O_22 
ROOT
HETATM    1  C   UNL     1       6.719  25.987  54.968  1.00  0.00     0.047 A 
HETATM    2  C   UNL     1       7.295  24.784  55.444  1.00  0.00     0.008 A 
HETATM    3  C   UNL     1       8.108  24.907  56.583  1.00  0.00     0.068 A 
HETATM    4  C   UNL     1       8.677  23.765  57.133  1.00  0.00     0.032 A 
HETATM    5  C   UNL     1       8.494  22.501  56.571  1.00  0.00     0.002 A 
HETATM    6  C   UNL     1       7.736  22.368  55.419  1.00  0.00     0.001 A 
HETATM    7  C   UNL     1       7.149  23.498  54.854  1.00  0.00     0.015 A 
HETATM    8  N   UNL     1       8.387  26.085  57.162  1.00  0.00    -0.248 NA
HETATM    9  C   UNL     1       7.906  27.237  56.631  1.00  0.00     0.068 A 
HETATM   10  C   UNL     1       7.042  27.216  55.550  1.00  0.00     0.050 A 
ENDROOT
BRANCH   1  11
HETATM   11  C   UNL     1       5.798  26.040  53.802  1.00  0.00     0.257 C 
HETATM   12  N   UNL     1       6.346  26.566  52.646  1.00  0.00    -0.323 N 
HETATM   13  H   UNL     1       7.335  26.790  52.670  1.00  0.00     0.169 HD
HETATM   14  O   UNL     1       4.663  25.606  53.951  1.00  0.00    -0.267 OA
BRANCH  12  15
HETATM   15  C   UNL     1       5.653  26.946  51.477  1.00  0.00     0.035 A 
HETATM   16  C   UNL     1       5.488  28.269  51.064  1.00  0.00     0.030 A 
HETATM   17  C   UNL     1       4.869  28.560  49.843  1.00  0.00     0.017 A 
HETATM   18  C   UNL     1       4.424  27.528  49.012  1.00  0.00     0.009 A 
HETATM   19  C   UNL     1       4.550  26.203  49.436  1.00  0.00     0.017 A 
HETATM   20  C   UNL     1       5.155  25.917  50.667  1.00  0.00     0.030 A 
BRANCH  18  21
HETATM   21  C   UNL     1       3.839  27.881  47.689  1.00  0.00     0.155 C 
HETATM   22  C   UNL     1       3.685  29.336  47.334  1.00  0.00     0.096 C 
HETATM   23  O   UNL     1       3.483  26.989  46.921  1.00  0.00    -0.293 OA
ENDBRANCH  18  21
ENDBRANCH  12  15
ENDBRANCH   1  11
BRANCH   9  24
HETATM   24  C   UNL     1       8.402  28.481  57.260  1.00  0.00    -0.007 A 
HETATM   25  C   UNL     1       7.608  29.255  58.123  1.00  0.00     0.016 A 
HETATM   26  C   UNL     1       8.078  30.461  58.660  1.00  0.00     0.037 A 
HETATM   27  C   UNL     1       9.350  30.935  58.344  1.00  0.00     0.068 A 
HETATM   28  C   UNL     1      10.163  30.179  57.506  1.00  0.00     0.037 A 
HETATM   29  C   UNL     1       9.691  28.971  56.972  1.00  0.00     0.016 A 
BRANCH  27  30
HETATM   30  O   UNL     1       9.675  32.134  58.914  1.00  0.00    -0.356 OA
HETATM   31  C   UNL     1       9.180  32.372  60.226  1.00  0.00     0.210 C 
ENDBRANCH  27  30
ENDBRANCH   9  24
TORSDOF 5
ENDMDL
MODEL 2
REMARK VINA RESULT:     -10.0      1.401      8.602
REMARK  5 active torsions:
REMARK  status: ('A' for Active; 'I' for Inactive)
REMARK    1  A    between atoms: C_2  and  C_3 
REMARK    2  A    between atoms: C_6  and  N_7 
REMARK       I    between atoms: N_7  and  C_8 
REMARK    3  A    between atoms: C_8  and  C_9 
REMARK    4  A    between atoms: C_17  and  C_18 
REMARK    5  A    between atoms: C_21  and  O_22 
ROOT
HETATM    1  C   UNL     1       7.209  26.102  54.541  1.00  0.00     0.047 A 
HETATM    2  C   UNL     1       7.694  24.793  54.305  1.00  0.00     0.008 A 
HETATM    3  C   UNL     1       7.536  24.311  52.995  1.00  0.00     0.068 A 
HETATM    4  C   UNL     1       8.023  23.050  52.676  1.00  0.00     0.032 A 
HETATM    5  C   UNL     1       8.636  22.230  53.623  1.00  0.00     0.002 A 
HETATM    6  C   UNL     1       8.757  22.669  54.932  1.00  0.00     0.001 A 
HETATM    7  C   UNL     1       8.283  23.934  55.274  1.00  0.00     0.015 A 
HETATM    8  N   UNL     1       6.912  25.003  52.030  1.00  0.00    -0.248 NA
HETATM    9  C   UNL     1       6.365  26.214  52.301  1.00  0.00     0.068 A 
HETATM   10  C   UNL     1       6.525  26.804  53.543  1.00  0.00     0.050 A 
ENDROOT
BRANCH   1  11
HETATM   11  C   UNL     1       7.331  26.789  55.854  1.00  0.00     0.257 C 
HETATM   12  N   UNL     1       7.809  28.085  55.794  1.00  0.00    -0.323 N 
HETATM   13  H   UNL     1       7.953  28.477  54.870  1.00  0.00     0.169 HD
HETATM   14  O   UNL     1       6.989  26.171  56.855  1.00  0.00    -0.267 OA
BRANCH  12  15
HETATM   15  C   UNL     1       8.240  28.880  56.878  1.00  0.00     0.035 A 
HETATM   16  C   UNL     1       9.557  29.302  57.059  1.00  0.00     0.030 A 
HETATM   17  C   UNL     1       9.888  30.166  58.109  1.00  0.00     0.017 A 
HETATM   18  C   UNL     1       8.899  30.634  58.979  1.00  0.00     0.009 A 
HETATM   19  C   UNL     1       7.584  30.185  58.828  1.00  0.00     0.017 A 
HETATM   20  C   UNL     1       7.261  29.306  57.786  1.00  0.00     0.030 A 
BRANCH  18  21
HETATM   21  C   UNL     1       9.283  31.610  60.036  1.00  0.00     0.155 C 
HETATM   22  C   UNL     1       9.530  31.101  61.432  1.00  0.00     0.096 C 
HETATM   23  O   UNL     1       9.380  32.803  59.759  1.00  0.00    -0.293 OA
ENDBRANCH  18  21
ENDBRANCH  12  15
ENDBRANCH   1  11
BRANCH   9  24
HETATM   24  C   UNL     1       5.571  26.813  51.206  1.00  0.00    -0.007 A 
HETATM   25  C   UNL     1       4.955  26.034  50.212  1.00  0.00     0.016 A 
HETATM   26  C   UNL     1       4.258  26.626  49.151  1.00  0.00     0.037 A 
HETATM   27  C   UNL     1       4.163  28.013  49.044  1.00  0.00     0.068 A 
HETATM   28  C   UNL     1       4.749  28.806  50.026  1.00  0.00     0.037 A 
HETATM   29  C   UNL     1       5.444  28.211  51.088  1.00  0.00     0.016 A 
BRANCH  27  30
HETATM   30  O   UNL     1       3.478  28.460  47.949  1.00  0.00    -0.356 OA
HETATM   31  C   UNL     1       2.737  27.489  47.220  1.00  0.00     0.210 C 
ENDBRANCH  27  30
ENDBRANCH   9  24
TORSDOF 5
ENDMDL
MODEL 3
REMARK VINA RESULT:     -10.0      1.387      1.835
REMARK  5 active torsions:
REMARK  status: ('A' for Active; 'I' for Inactive)
REMARK    1  A    between atoms: C_2  and  C_3 
REMARK    2  A    between atoms: C_6  and  N_7 
REMARK       I    between atoms: N_7  and  C_8 
REMARK    3  A    between atoms: C_8  and  C_9 
REMARK    4  A    between atoms: C_17  and  C_18 
REMARK    5  A    between atoms: C_21  and  O_22 
ROOT
HETATM    1  C   UNL     1       6.315  25.440  53.853  1.00  0.00     0.047 A 
HETATM    2  C   UNL     1       7.192  24.350  54.074  1.00  0.00     0.008 A 
HETATM    3  C   UNL     1       8.002  24.440  55.218  1.00  0.00     0.068 A 
HETATM    4  C   UNL     1       8.860  23.392  55.523  1.00  0.00     0.032 A 
HETATM    5  C   UNL     1       8.968  22.262  54.712  1.00  0.00     0.002 A 
HETATM    6  C   UNL     1       8.213  22.177  53.553  1.00  0.00     0.001 A 
HETATM    7  C   UNL     1       7.339  23.214  53.230  1.00  0.00     0.015 A 
HETATM    8  N   UNL     1       8.008  25.509  56.029  1.00  0.00    -0.248 NA
HETATM    9  C   UNL     1       7.234  26.587  55.745  1.00  0.00     0.068 A 
HETATM   10  C   UNL     1       6.352  26.568  54.679  1.00  0.00     0.050 A 
ENDROOT
BRANCH   1  11
HETATM   11  C   UNL     1       5.356  25.493  52.719  1.00  0.00     0.257 C 
HETATM   12  N   UNL     1       5.730  26.321  51.675  1.00  0.00    -0.323 N 
HETATM   13  H   UNL     1       6.647  26.747  51.736  1.00  0.00     0.169 HD
HETATM   14  O   UNL     1       4.348  24.802  52.791  1.00  0.00    -0.267 OA
BRANCH  12  15
HETATM   15  C   UNL     1       4.923  26.738  50.595  1.00  0.00     0.035 A 
HETATM   16  C   UNL     1       4.622  25.938  49.493  1.00  0.00     0.030 A 
HETATM   17  C   UNL     1       3.738  26.390  48.506  1.00  0.00     0.017 A 
HETATM   18  C   UNL     1       3.129  27.643  48.622  1.00  0.00     0.009 A 
HETATM   19  C   UNL     1       3.455  28.466  49.703  1.00  0.00     0.017 A 
HETATM   20  C   UNL     1       4.354  28.016  50.679  1.00  0.00     0.030 A 
BRANCH  18  21
HETATM   21  C   UNL     1       2.139  28.053  47.589  1.00  0.00     0.155 C 
HETATM   22  C   UNL     1       0.846  27.288  47.486  1.00  0.00     0.096 C 
HETATM   23  O   UNL     1       2.394  28.992  46.837  1.00  0.00    -0.293 OA
ENDBRANCH  18  21
ENDBRANCH  12  15
ENDBRANCH   1  11
BRANCH   9  24
HETATM   24  C   UNL     1       7.437  27.763  56.620  1.00  0.00    -0.007 A 
HETATM   25  C   UNL     1       6.373  28.578  57.041  1.00  0.00     0.016 A 
HETATM   26  C   UNL     1       6.595  29.721  57.820  1.00  0.00     0.037 A 
HETATM   27  C   UNL     1       7.887  30.090  58.194  1.00  0.00     0.068 A 
HETATM   28  C   UNL     1       8.956  29.289  57.804  1.00  0.00     0.037 A 
HETATM   29  C   UNL     1       8.730  28.145  57.027  1.00  0.00     0.016 A 
BRANCH  27  30
HETATM   30  O   UNL     1       7.967  31.238  58.931  1.00  0.00    -0.356 OA
HETATM   31  C   UNL     1       9.273  31.720  59.221  1.00  0.00     0.210 C 
ENDBRANCH  27  30
ENDBRANCH   9  24
TORSDOF 5
ENDMDL
MODEL 4
REMARK VINA RESULT:      -9.9      2.264      8.821
REMARK  5 active torsions:
REMARK  status: ('A' for Active; 'I' for Inactive)
REMARK    1  A    between atoms: C_2  and  C_3 
REMARK    2  A    between atoms: C_6  and  N_7 
REMARK       I    between atoms: N_7  and  C_8 
REMARK    3  A    between atoms: C_8  and  C_9 
REMARK    4  A    between atoms: C_17  and  C_18 
REMARK    5  A    between atoms: C_21  and  O_22 
ROOT
HETATM    1  C   UNL     1       6.398  27.335  53.862  1.00  0.00     0.047 A 
HETATM    2  C   UNL     1       5.924  27.502  52.538  1.00  0.00     0.008 A 
HETATM    3  C   UNL     1       5.789  26.323  51.786  1.00  0.00     0.068 A 
HETATM    4  C   UNL     1       5.292  26.401  50.491  1.00  0.00     0.032 A 
HETATM    5  C   UNL     1       4.953  27.618  49.899  1.00  0.00     0.002 A 
HETATM    6  C   UNL     1       5.127  28.796  50.608  1.00  0.00     0.001 A 
HETATM    7  C   UNL     1       5.616  28.741  51.912  1.00  0.00     0.015 A 
HETATM    8  N   UNL     1       6.140  25.114  52.249  1.00  0.00    -0.248 NA
HETATM    9  C   UNL     1       6.685  24.987  53.485  1.00  0.00     0.068 A 
HETATM   10  C   UNL     1       6.798  26.079  54.328  1.00  0.00     0.050 A 
ENDROOT
BRANCH   1  11
HETATM   11  C   UNL     1       6.560  28.466  54.814  1.00  0.00     0.257 C 
HETATM   12  N   UNL     1       7.753  28.474  55.514  1.00  0.00    -0.323 N 
HETATM   13  H   UNL     1       8.436  27.769  55.263  1.00  0.00     0.169 HD
HETATM   14  O   UNL     1       5.655  29.288  54.884  1.00  0.00    -0.267 OA
BRANCH  12  15
HETATM   15  C   UNL     1       8.074  29.278  56.629  1.00  0.00     0.035 A 
HETATM   16  C   UNL     1       7.163  29.626  57.626  1.00  0.00     0.030 A 
HETATM   17  C   UNL     1       7.581  30.349  58.750  1.00  0.00     0.017 A 
HETATM   18  C   UNL     1       8.922  30.715  58.897  1.00  0.00     0.009 A 
HETATM   19  C   UNL     1       9.833  30.404  57.884  1.00  0.00     0.017 A 
HETATM   20  C   UNL     1       9.406  29.695  56.753  1.00  0.00     0.030 A 
BRANCH  18  21
HETATM   21  C   UNL     1       9.336  31.418  60.142  1.00  0.00     0.155 C 
HETATM   22  C   UNL     1       9.303  30.659  61.443  1.00  0.00     0.096 C 
HETATM   23  O   UNL     1       9.685  32.595  60.092  1.00  0.00    -0.293 OA
ENDBRANCH  18  21
ENDBRANCH  12  15
ENDBRANCH   1  11
BRANCH   9  24
HETATM   24  C   UNL     1       7.173  23.634  53.828  1.00  0.00    -0.007 A 
HETATM   25  C   UNL     1       7.236  23.171  55.154  1.00  0.00     0.016 A 
HETATM   26  C   UNL     1       7.757  21.908  55.461  1.00  0.00     0.037 A 
HETATM   27  C   UNL     1       8.241  21.072  54.456  1.00  0.00     0.068 A 
HETATM   28  C   UNL     1       8.174  21.499  53.134  1.00  0.00     0.037 A 
HETATM   29  C   UNL     1       7.650  22.763  52.829  1.00  0.00     0.016 A 
BRANCH  27  30
HETATM   30  O   UNL     1       8.746  19.879  54.893  1.00  0.00    -0.356 OA
HETATM   31  C   UNL     1       9.502  19.909  56.096  1.00  0.00     0.210 C 
ENDBRANCH  27  30
ENDBRANCH   9  24
TORSDOF 5
ENDMDL
MODEL 5
REMARK VINA RESULT:      -9.5      3.886      6.779
REMARK  5 active torsions:
REMARK  status: ('A' for Active; 'I' for Inactive)
REMARK    1  A    between atoms: C_2  and  C_3 
REMARK    2  A    between atoms: C_6  and  N_7 
REMARK       I    between atoms: N_7  and  C_8 
REMARK    3  A    between atoms: C_8  and  C_9 
REMARK    4  A    between atoms: C_17  and  C_18 
REMARK    5  A    between atoms: C_21  and  O_22 
ROOT
HETATM    1  C   UNL     1       4.934  27.662  51.529  1.00  0.00     0.047 A 
HETATM    2  C   UNL     1       4.687  28.558  52.598  1.00  0.00     0.008 A 
HETATM    3  C   UNL     1       5.283  28.221  53.825  1.00  0.00     0.068 A 
HETATM    4  C   UNL     1       5.120  29.072  54.911  1.00  0.00     0.032 A 
HETATM    5  C   UNL     1       4.355  30.236  54.832  1.00  0.00     0.002 A 
HETATM    6  C   UNL     1       3.719  30.558  53.644  1.00  0.00     0.001 A 
HETATM    7  C   UNL     1       3.875  29.724  52.539  1.00  0.00     0.015 A 
HETATM    8  N   UNL     1       5.990  27.097  54.013  1.00  0.00    -0.248 NA
HETATM    9  C   UNL     1       6.131  26.202  53.003  1.00  0.00     0.068 A 
HETATM   10  C   UNL     1       5.639  26.473  51.738  1.00  0.00     0.050 A 
ENDROOT
BRANCH   1  11
HETATM   11  C   UNL     1       4.421  27.882  50.151  1.00  0.00     0.257 C 
HETATM   12  N   UNL     1       3.043  27.941  50.042  1.00  0.00    -0.323 N 
HETATM   13  H   UNL     1       2.515  27.913  50.907  1.00  0.00     0.169 HD
HETATM   14  O   UNL     1       5.241  28.009  49.251  1.00  0.00    -0.267 OA
BRANCH  12  15
HETATM   15  C   UNL     1       2.286  27.909  48.852  1.00  0.00     0.035 A 
HETATM   16  C   UNL     1       2.143  26.776  48.050  1.00  0.00     0.030 A 
HETATM   17  C   UNL     1       1.299  26.797  46.934  1.00  0.00     0.017 A 
HETATM   18  C   UNL     1       0.573  27.948  46.618  1.00  0.00     0.009 A 
HETATM   19  C   UNL     1       0.739  29.099  47.393  1.00  0.00     0.017 A 
HETATM   20  C   UNL     1       1.599  29.078  48.499  1.00  0.00     0.030 A 
BRANCH  18  21
HETATM   21  C   UNL     1      -0.370  27.902  45.467  1.00  0.00     0.155 C 
HETATM   22  C   UNL     1      -1.109  29.159  45.090  1.00  0.00     0.096 C 
HETATM   23  O   UNL     1      -0.537  26.849  44.855  1.00  0.00    -0.293 OA
ENDBRANCH  18  21
ENDBRANCH  12  15
ENDBRANCH   1  11
BRANCH   9  24
HETATM   24  C   UNL     1       6.797  24.932  53.368  1.00  0.00    -0.007 A 
HETATM   25  C   UNL     1       7.514  24.164  52.434  1.00  0.00     0.016 A 
HETATM   26  C   UNL     1       8.087  22.936  52.787  1.00  0.00     0.037 A 
HETATM   27  C   UNL     1       7.953  22.431  54.080  1.00  0.00     0.068 A 
HETATM   28  C   UNL     1       7.263  23.181  55.028  1.00  0.00     0.037 A 
HETATM   29  C   UNL     1       6.693  24.411  54.672  1.00  0.00     0.016 A 
BRANCH  27  30
HETATM   30  O   UNL     1       8.537  21.213  54.286  1.00  0.00    -0.356 OA
HETATM   31  C   UNL     1       8.531  20.310  53.187  1.00  0.00     0.210 C 
ENDBRANCH  27  30
ENDBRANCH   9  24
TORSDOF 5
ENDMDL
MODEL 6
REMARK VINA RESULT:      -9.3      2.988      9.172
REMARK  5 active torsions:
REMARK  status: ('A' for Active; 'I' for Inactive)
REMARK    1  A    between atoms: C_2  and  C_3 
REMARK    2  A    between atoms: C_6  and  N_7 
REMARK       I    between atoms: N_7  and  C_8 
REMARK    3  A    between atoms: C_8  and  C_9 
REMARK    4  A    between atoms: C_17  and  C_18 
REMARK    5  A    between atoms: C_21  and  O_22 
ROOT
HETATM    1  C   UNL     1       5.431  28.081  55.296  1.00  0.00     0.047 A 
HETATM    2  C   UNL     1       4.828  28.491  54.081  1.00  0.00     0.008 A 
HETATM    3  C   UNL     1       4.841  27.543  53.044  1.00  0.00     0.068 A 
HETATM    4  C   UNL     1       4.234  27.857  51.835  1.00  0.00     0.032 A 
HETATM    5  C   UNL     1       3.639  29.098  51.604  1.00  0.00     0.002 A 
HETATM    6  C   UNL     1       3.660  30.063  52.599  1.00  0.00     0.001 A 
HETATM    7  C   UNL     1       4.256  29.768  53.823  1.00  0.00     0.015 A 
HETATM    8  N   UNL     1       5.436  26.346  53.153  1.00  0.00    -0.248 NA
HETATM    9  C   UNL     1       6.095  26.011  54.291  1.00  0.00     0.068 A 
HETATM   10  C   UNL     1       6.082  26.849  55.393  1.00  0.00     0.050 A 
ENDROOT
BRANCH   1  11
HETATM   11  C   UNL     1       5.469  28.936  56.512  1.00  0.00     0.257 C 
HETATM   12  N   UNL     1       6.627  29.676  56.671  1.00  0.00    -0.323 N 
HETATM   13  H   UNL     1       7.303  29.635  55.916  1.00  0.00     0.169 HD
HETATM   14  O   UNL     1       4.488  28.931  57.244  1.00  0.00    -0.267 OA
BRANCH  12  15
HETATM   15  C   UNL     1       7.029  30.381  57.826  1.00  0.00     0.035 A 
HETATM   16  C   UNL     1       6.405  31.540  58.287  1.00  0.00     0.030 A 
HETATM   17  C   UNL     1       6.803  32.129  59.493  1.00  0.00     0.017 A 
HETATM   18  C   UNL     1       7.820  31.554  60.260  1.00  0.00     0.009 A 
HETATM   19  C   UNL     1       8.477  30.415  59.785  1.00  0.00     0.017 A 
HETATM   20  C   UNL     1       8.086  29.839  58.569  1.00  0.00     0.030 A 
BRANCH  18  21
HETATM   21  C   UNL     1       8.161  32.172  61.570  1.00  0.00     0.155 C 
HETATM   22  C   UNL     1       7.184  33.137  62.188  1.00  0.00     0.096 C 
HETATM   23  O   UNL     1       9.227  31.896  62.117  1.00  0.00    -0.293 OA
ENDBRANCH  18  21
ENDBRANCH  12  15
ENDBRANCH   1  11
BRANCH   9  24
HETATM   24  C   UNL     1       6.841  24.734  54.241  1.00  0.00    -0.007 A 
HETATM   25  C   UNL     1       6.907  23.948  53.077  1.00  0.00     0.016 A 
HETATM   26  C   UNL     1       7.569  22.714  53.069  1.00  0.00     0.037 A 
HETATM   27  C   UNL     1       8.176  22.222  54.223  1.00  0.00     0.068 A 
HETATM   28  C   UNL     1       8.139  22.989  55.383  1.00  0.00     0.037 A 
HETATM   29  C   UNL     1       7.478  24.225  55.388  1.00  0.00     0.016 A 
BRANCH  27  30
HETATM   30  O   UNL     1       8.765  20.996  54.086  1.00  0.00    -0.356 OA
HETATM   31  C   UNL     1       8.547  20.318  52.855  1.00  0.00     0.210 C 
ENDBRANCH  27  30
ENDBRANCH   9  24
TORSDOF 5
ENDMDL
MODEL 7
REMARK VINA RESULT:      -9.1      3.011      6.133
REMARK  5 active torsions:
REMARK  status: ('A' for Active; 'I' for Inactive)
REMARK    1  A    between atoms: C_2  and  C_3 
REMARK    2  A    between atoms: C_6  and  N_7 
REMARK       I    between atoms: N_7  and  C_8 
REMARK    3  A    between atoms: C_8  and  C_9 
REMARK    4  A    between atoms: C_17  and  C_18 
REMARK    5  A    between atoms: C_21  and  O_22 
ROOT
HETATM    1  C   UNL     1       5.663  27.734  53.196  1.00  0.00     0.047 A 
HETATM    2  C   UNL     1       5.609  28.363  54.464  1.00  0.00     0.008 A 
HETATM    3  C   UNL     1       6.164  27.635  55.530  1.00  0.00     0.068 A 
HETATM    4  C   UNL     1       6.184  28.202  56.797  1.00  0.00     0.032 A 
HETATM    5  C   UNL     1       5.640  29.460  57.055  1.00  0.00     0.002 A 
HETATM    6  C   UNL     1       5.044  30.172  56.027  1.00  0.00     0.001 A 
HETATM    7  C   UNL     1       5.019  29.627  54.745  1.00  0.00     0.015 A 
HETATM    8  N   UNL     1       6.662  26.397  55.391  1.00  0.00    -0.248 NA
HETATM    9  C   UNL     1       6.614  25.772  54.187  1.00  0.00     0.068 A 
HETATM   10  C   UNL     1       6.147  26.430  53.063  1.00  0.00     0.050 A 
ENDROOT
BRANCH   1  11
HETATM   11  C   UNL     1       5.164  28.376  51.951  1.00  0.00     0.257 C 
HETATM   12  N   UNL     1       3.902  27.975  51.552  1.00  0.00    -0.323 N 
HETATM   13  H   UNL     1       3.401  27.352  52.175  1.00  0.00     0.169 HD
HETATM   14  O   UNL     1       5.886  29.201  51.405  1.00  0.00    -0.267 OA
BRANCH  12  15
HETATM   15  C   UNL     1       3.284  28.235  50.310  1.00  0.00     0.035 A 
HETATM   16  C   UNL     1       3.617  27.583  49.122  1.00  0.00     0.030 A 
HETATM   17  C   UNL     1       2.895  27.830  47.949  1.00  0.00     0.017 A 
HETATM   18  C   UNL     1       1.817  28.720  47.956  1.00  0.00     0.009 A 
HETATM   19  C   UNL     1       1.502  29.407  49.132  1.00  0.00     0.017 A 
HETATM   20  C   UNL     1       2.239  29.169  50.299  1.00  0.00     0.030 A 
BRANCH  18  21
HETATM   21  C   UNL     1       1.030  28.896  46.705  1.00  0.00     0.155 C 
HETATM   22  C   UNL     1       0.219  27.735  46.193  1.00  0.00     0.096 C 
HETATM   23  O   UNL     1       1.063  29.971  46.109  1.00  0.00    -0.293 OA
ENDBRANCH  18  21
ENDBRANCH  12  15
ENDBRANCH   1  11
BRANCH   9  24
HETATM   24  C   UNL     1       7.049  24.358  54.188  1.00  0.00    -0.007 A 
HETATM   25  C   UNL     1       7.150  23.604  55.370  1.00  0.00     0.016 A 
HETATM   26  C   UNL     1       7.621  22.285  55.353  1.00  0.00     0.037 A 
HETATM   27  C   UNL     1       8.014  21.681  54.159  1.00  0.00     0.068 A 
HETATM   28  C   UNL     1       7.906  22.401  52.973  1.00  0.00     0.037 A 
HETATM   29  C   UNL     1       7.432  23.721  52.992  1.00  0.00     0.016 A 
BRANCH  27  30
HETATM   30  O   UNL     1       8.477  20.402  54.286  1.00  0.00    -0.356 OA
HETATM   31  C   UNL     1       8.751  19.951  55.607  1.00  0.00     0.210 C 
ENDBRANCH  27  30
ENDBRANCH   9  24
TORSDOF 5
ENDMDL
MODEL 8
REMARK VINA RESULT:      -9.0      3.192      9.108
REMARK  5 active torsions:
REMARK  status: ('A' for Active; 'I' for Inactive)
REMARK    1  A    between atoms: C_2  and  C_3 
REMARK    2  A    between atoms: C_6  and  N_7 
REMARK       I    between atoms: N_7  and  C_8 
REMARK    3  A    between atoms: C_8  and  C_9 
REMARK    4  A    between atoms: C_17  and  C_18 
REMARK    5  A    between atoms: C_21  and  O_22 
ROOT
HETATM    1  C   UNL     1       5.255  27.741  53.056  1.00  0.00     0.047 A 
HETATM    2  C   UNL     1       4.960  28.766  53.988  1.00  0.00     0.008 A 
HETATM    3  C   UNL     1       3.898  29.618  53.642  1.00  0.00     0.068 A 
HETATM    4  C   UNL     1       3.524  30.623  54.524  1.00  0.00     0.032 A 
HETATM    5  C   UNL     1       4.191  30.837  55.731  1.00  0.00     0.002 A 
HETATM    6  C   UNL     1       5.273  30.038  56.066  1.00  0.00     0.001 A 
HETATM    7  C   UNL     1       5.661  29.017  55.200  1.00  0.00     0.015 A 
HETATM    8  N   UNL     1       3.233  29.526  52.481  1.00  0.00    -0.248 NA
HETATM    9  C   UNL     1       3.595  28.600  51.558  1.00  0.00     0.068 A 
HETATM   10  C   UNL     1       4.585  27.672  51.831  1.00  0.00     0.050 A 
ENDROOT
BRANCH   1  11
HETATM   11  C   UNL     1       6.315  26.723  53.278  1.00  0.00     0.257 C 
HETATM   12  N   UNL     1       5.863  25.419  53.377  1.00  0.00    -0.323 N 
HETATM   13  H   UNL     1       4.876  25.264  53.210  1.00  0.00     0.169 HD
HETATM   14  O   UNL     1       7.476  27.110  53.334  1.00  0.00    -0.267 OA
BRANCH  12  15
HETATM   15  C   UNL     1       6.602  24.298  53.811  1.00  0.00     0.035 A 
HETATM   16  C   UNL     1       6.792  23.961  55.151  1.00  0.00     0.030 A 
HETATM   17  C   UNL     1       7.459  22.780  55.500  1.00  0.00     0.017 A 
HETATM   18  C   UNL     1       7.927  21.913  54.509  1.00  0.00     0.009 A 
HETATM   19  C   UNL     1       7.775  22.262  53.164  1.00  0.00     0.017 A 
HETATM   20  C   UNL     1       7.123  23.454  52.820  1.00  0.00     0.030 A 
BRANCH  18  21
HETATM   21  C   UNL     1       8.563  20.633  54.924  1.00  0.00     0.155 C 
HETATM   22  C   UNL     1       8.826  20.401  56.389  1.00  0.00     0.096 C 
HETATM   23  O   UNL     1       8.871  19.800  54.075  1.00  0.00    -0.293 OA
ENDBRANCH  18  21
ENDBRANCH  12  15
ENDBRANCH   1  11
BRANCH   9  24
HETATM   24  C   UNL     1       2.895  28.691  50.258  1.00  0.00    -0.007 A 
HETATM   25  C   UNL     1       1.771  29.514  50.066  1.00  0.00     0.016 A 
HETATM   26  C   UNL     1       1.087  29.540  48.844  1.00  0.00     0.037 A 
HETATM   27  C   UNL     1       1.498  28.739  47.779  1.00  0.00     0.068 A 
HETATM   28  C   UNL     1       2.618  27.929  47.938  1.00  0.00     0.037 A 
HETATM   29  C   UNL     1       3.302  27.907  49.162  1.00  0.00     0.016 A 
BRANCH  27  30
HETATM   30  O   UNL     1       0.730  28.841  46.653  1.00  0.00    -0.356 OA
HETATM   31  C   UNL     1       0.258  27.622  46.091  1.00  0.00     0.210 C 
ENDBRANCH  27  30
ENDBRANCH   9  24
TORSDOF 5
ENDMDL
MODEL 9
REMARK VINA RESULT:      -8.9      3.161      8.738
REMARK  5 active torsions:
REMARK  status: ('A' for Active; 'I' for Inactive)
REMARK    1  A    between atoms: C_2  and  C_3 
REMARK    2  A    between atoms: C_6  and  N_7 
REMARK       I    between atoms: N_7  and  C_8 
REMARK    3  A    between atoms: C_8  and  C_9 
REMARK    4  A    between atoms: C_17  and  C_18 
REMARK    5  A    between atoms: C_21  and  O_22 
ROOT
HETATM    1  C   UNL     1       5.410  27.820  53.426  1.00  0.00     0.047 A 
HETATM    2  C   UNL     1       5.003  28.666  54.486  1.00  0.00     0.008 A 
HETATM    3  C   UNL     1       3.966  29.565  54.185  1.00  0.00     0.068 A 
HETATM    4  C   UNL     1       3.485  30.401  55.184  1.00  0.00     0.032 A 
HETATM    5  C   UNL     1       4.020  30.400  56.473  1.00  0.00     0.002 A 
HETATM    6  C   UNL     1       5.077  29.555  56.775  1.00  0.00     0.001 A 
HETATM    7  C   UNL     1       5.570  28.702  55.790  1.00  0.00     0.015 A 
HETATM    8  N   UNL     1       3.425  29.678  52.962  1.00  0.00    -0.248 NA
HETATM    9  C   UNL     1       3.897  28.928  51.935  1.00  0.00     0.068 A 
HETATM   10  C   UNL     1       4.871  27.966  52.144  1.00  0.00     0.050 A 
ENDROOT
BRANCH   1  11
HETATM   11  C   UNL     1       6.461  26.779  53.576  1.00  0.00     0.257 C 
HETATM   12  N   UNL     1       5.999  25.475  53.559  1.00  0.00    -0.323 N 
HETATM   13  H   UNL     1       5.013  25.342  53.365  1.00  0.00     0.169 HD
HETATM   14  O   UNL     1       7.622  27.151  53.681  1.00  0.00    -0.267 OA
BRANCH  12  15
HETATM   15  C   UNL     1       6.724  24.315  53.907  1.00  0.00     0.035 A 
HETATM   16  C   UNL     1       6.896  23.868  55.217  1.00  0.00     0.030 A 
HETATM   17  C   UNL     1       7.549  22.658  55.475  1.00  0.00     0.017 A 
HETATM   18  C   UNL     1       8.022  21.871  54.421  1.00  0.00     0.009 A 
HETATM   19  C   UNL     1       7.889  22.330  53.108  1.00  0.00     0.017 A 
HETATM   20  C   UNL     1       7.250  23.551  52.856  1.00  0.00     0.030 A 
BRANCH  18  21
HETATM   21  C   UNL     1       8.644  20.556  54.737  1.00  0.00     0.155 C 
HETATM   22  C   UNL     1       9.081  20.286  56.153  1.00  0.00     0.096 C 
HETATM   23  O   UNL     1       8.801  19.724  53.846  1.00  0.00    -0.293 OA
ENDBRANCH  18  21
ENDBRANCH  12  15
ENDBRANCH   1  11
BRANCH   9  24
HETATM   24  C   UNL     1       3.332  29.245  50.605  1.00  0.00    -0.007 A 
HETATM   25  C   UNL     1       1.970  29.071  50.306  1.00  0.00     0.016 A 
HETATM   26  C   UNL     1       1.468  29.322  49.023  1.00  0.00     0.037 A 
HETATM   27  C   UNL     1       2.311  29.744  47.996  1.00  0.00     0.068 A 
HETATM   28  C   UNL     1       3.661  29.941  48.271  1.00  0.00     0.037 A 
HETATM   29  C   UNL     1       4.160  29.692  49.557  1.00  0.00     0.016 A 
BRANCH  27  30
HETATM   30  O   UNL     1       1.699  29.928  46.788  1.00  0.00    -0.356 OA
HETATM   31  C   UNL     1       2.221  30.960  45.960  1.00  0.00     0.210 C 
ENDBRANCH  27  30
ENDBRANCH   9  24
TORSDOF 5
ENDMDL
MODEL 10
REMARK VINA RESULT:      -8.8      4.048     10.267
REMARK  5 active torsions:
REMARK  status: ('A' for Active; 'I' for Inactive)
REMARK    1  A    between atoms: C_2  and  C_3 
REMARK    2  A    between atoms: C_6  and  N_7 
REMARK       I    between atoms: N_7  and  C_8 
REMARK    3  A    between atoms: C_8  and  C_9 
REMARK    4  A    between atoms: C_17  and  C_18 
REMARK    5  A    between atoms: C_21  and  O_22 
ROOT
HETATM    1  C   UNL     1       6.649  30.191  57.483  1.00  0.00     0.047 A 
HETATM    2  C   UNL     1       5.779  30.628  56.454  1.00  0.00     0.008 A 
HETATM    3  C   UNL     1       5.392  29.647  55.526  1.00  0.00     0.068 A 
HETATM    4  C   UNL     1       4.509  29.989  54.510  1.00  0.00     0.032 A 
HETATM    5  C   UNL     1       4.016  31.286  54.362  1.00  0.00     0.002 A 
HETATM    6  C   UNL     1       4.426  32.278  55.238  1.00  0.00     0.001 A 
HETATM    7  C   UNL     1       5.306  31.956  56.270  1.00  0.00     0.015 A 
HETATM    8  N   UNL     1       5.854  28.388  55.554  1.00  0.00    -0.248 NA
HETATM    9  C   UNL     1       6.765  28.015  56.489  1.00  0.00     0.068 A 
HETATM   10  C   UNL     1       7.158  28.889  57.487  1.00  0.00     0.050 A 
ENDROOT
BRANCH   1  11
HETATM   11  C   UNL     1       7.125  31.081  58.575  1.00  0.00     0.257 C 
HETATM   12  N   UNL     1       6.291  31.151  59.677  1.00  0.00    -0.323 N 
HETATM   13  H   UNL     1       5.484  30.538  59.680  1.00  0.00     0.169 HD
HETATM   14  O   UNL     1       8.199  31.649  58.422  1.00  0.00    -0.267 OA
BRANCH  12  15
HETATM   15  C   UNL     1       6.371  32.076  60.740  1.00  0.00     0.035 A 
HETATM   16  C   UNL     1       5.552  33.199  60.859  1.00  0.00     0.030 A 
HETATM   17  C   UNL     1       5.628  34.018  61.992  1.00  0.00     0.017 A 
HETATM   18  C   UNL     1       6.513  33.710  63.028  1.00  0.00     0.009 A 
HETATM   19  C   UNL     1       7.365  32.609  62.900  1.00  0.00     0.017 A 
HETATM   20  C   UNL     1       7.297  31.803  61.756  1.00  0.00     0.030 A 
BRANCH  18  21
HETATM   21  C   UNL     1       6.509  34.565  64.247  1.00  0.00     0.155 C 
HETATM   22  C   UNL     1       7.023  33.984  65.538  1.00  0.00     0.096 C 
HETATM   23  O   UNL     1       6.079  35.715  64.185  1.00  0.00    -0.293 OA
ENDBRANCH  18  21
ENDBRANCH  12  15
ENDBRANCH   1  11
BRANCH   9  24
HETATM   24  C   UNL     1       7.316  26.652  56.329  1.00  0.00    -0.007 A 
HETATM   25  C   UNL     1       8.105  26.040  57.320  1.00  0.00     0.016 A 
HETATM   26  C   UNL     1       8.666  24.772  57.123  1.00  0.00     0.037 A 
HETATM   27  C   UNL     1       8.467  24.080  55.929  1.00  0.00     0.068 A 
HETATM   28  C   UNL     1       7.676  24.657  54.940  1.00  0.00     0.037 A 
HETATM   29  C   UNL     1       7.113  25.925  55.141  1.00  0.00     0.016 A 
BRANCH  27  30
HETATM   30  O   UNL     1       9.090  22.866  55.856  1.00  0.00    -0.356 OA
HETATM   31  C   UNL     1       8.333  21.735  56.268  1.00  0.00     0.210 C 
ENDBRANCH  27  30
ENDBRANCH   9  24
TORSDOF 5
ENDMDL
