MODEL 1
REMARK VINA RESULT:      -8.7      0.000      0.000
REMARK  7 active torsions:
REMARK  status: ('A' for Active; 'I' for Inactive)
REMARK    1  A    between atoms: C_2  and  C_3 
REMARK    2  A    between atoms: C_3  and  O_4 
REMARK    3  A    between atoms: O_4  and  C_5 
REMARK    4  A    between atoms: C_8  and  C_9 
REMARK    5  A    between atoms: C_9  and  N_10 
REMARK    6  A    between atoms: N_10  and  C_11 
REMARK    7  A    between atoms: C_18  and  C_19 
REMARK       I    between atoms: C_19  and  N_20 
ROOT
HETATM    1  C   UNL     1       7.898  28.685  57.229  1.00  0.00     0.009 A 
HETATM    2  C   UNL     1       7.500  29.578  58.240  1.00  0.00     0.039 A 
HETATM    3  C   UNL     1       8.363  30.608  58.668  1.00  0.00     0.030 A 
HETATM    4  C   UNL     1       9.596  30.746  58.045  1.00  0.00     0.063 A 
HETATM    5  N   UNL     1      10.192  31.814  58.654  1.00  0.00    -0.277 N 
HETATM    6  H   UNL     1      11.105  32.205  58.449  1.00  0.00     0.189 HD
HETATM    7  N   UNL     1       9.458  32.385  59.624  1.00  0.00    -0.168 NA
HETATM    8  C   UNL     1       8.321  31.651  59.641  1.00  0.00     0.156 A 
HETATM    9  C   UNL     1      10.017  29.912  57.010  1.00  0.00     0.034 A 
HETATM   10  C   UNL     1       9.138  28.893  56.611  1.00  0.00     0.026 A 
ENDROOT
BRANCH   1  11
HETATM   11  N   UNL     1       6.975  27.725  56.793  1.00  0.00    -0.289 NA
HETATM   12  H   UNL     1       7.183  26.800  57.166  1.00  0.00     0.128 HD
BRANCH  11  13
HETATM   13  C   UNL     1       6.595  27.679  55.390  1.00  0.00     0.131 C 
BRANCH  13  14
HETATM   14  C   UNL     1       7.091  26.393  54.772  1.00  0.00    -0.045 A 
HETATM   15  C   UNL     1       7.448  26.349  53.417  1.00  0.00     0.011 A 
HETATM   16  C   UNL     1       7.930  25.170  52.839  1.00  0.00     0.037 A 
HETATM   17  C   UNL     1       8.065  24.017  53.610  1.00  0.00     0.068 A 
HETATM   18  C   UNL     1       7.688  24.048  54.955  1.00  0.00     0.037 A 
HETATM   19  C   UNL     1       7.204  25.224  55.535  1.00  0.00     0.011 A 
BRANCH  17  20
HETATM   20  O   UNL     1       8.535  22.809  53.176  1.00  0.00    -0.351 OA
BRANCH  20  21
HETATM   21  C   UNL     1       9.281  22.030  54.113  1.00  0.00     0.179 C 
BRANCH  21  22
HETATM   22  C   UNL     1       8.707  20.604  54.141  1.00  0.00     0.002 C 
HETATM   23  C   UNL     1       7.822  20.336  52.922  1.00  0.00     0.011 C 
HETATM   24  C   UNL     1       7.920  20.372  55.429  1.00  0.00     0.011 C 
ENDBRANCH  21  22
ENDBRANCH  20  21
ENDBRANCH  17  20
ENDBRANCH  13  14
ENDBRANCH  11  13
ENDBRANCH   1  11
BRANCH   8  25
HETATM   25  C   UNL     1       7.232  31.952  60.579  1.00  0.00     0.270 C 
HETATM   26  N   UNL     1       7.201  31.139  61.679  1.00  0.00    -0.365 N 
HETATM   27  H   UNL     1       7.903  30.413  61.764  1.00  0.00     0.159 HD
HETATM   28  H   UNL     1       6.488  31.269  62.379  1.00  0.00     0.159 HD
HETATM   29  O   UNL     1       6.404  32.844  60.424  1.00  0.00    -0.266 OA
ENDBRANCH   8  25
TORSDOF 7
ENDMDL
MODEL 2
REMARK VINA RESULT:      -8.4      3.100      9.387
REMARK  7 active torsions:
REMARK  status: ('A' for Active; 'I' for Inactive)
REMARK    1  A    between atoms: C_2  and  C_3 
REMARK    2  A    between atoms: C_3  and  O_4 
REMARK    3  A    between atoms: O_4  and  C_5 
REMARK    4  A    between atoms: C_8  and  C_9 
REMARK    5  A    between atoms: C_9  and  N_10 
REMARK    6  A    between atoms: N_10  and  C_11 
REMARK    7  A    between atoms: C_18  and  C_19 
REMARK       I    between atoms: C_19  and  N_20 
ROOT
HETATM    1  C   UNL     1       7.205  25.280  55.460  1.00  0.00     0.009 A 
HETATM    2  C   UNL     1       7.693  24.040  55.910  1.00  0.00     0.039 A 
HETATM    3  C   UNL     1       7.819  22.953  55.019  1.00  0.00     0.030 A 
HETATM    4  C   UNL     1       7.488  23.145  53.685  1.00  0.00     0.063 A 
HETATM    5  N   UNL     1       7.718  21.942  53.079  1.00  0.00    -0.277 N 
HETATM    6  H   UNL     1       7.589  21.715  52.100  1.00  0.00     0.189 HD
HETATM    7  N   UNL     1       8.167  20.979  53.902  1.00  0.00    -0.168 NA
HETATM    8  C   UNL     1       8.238  21.592  55.106  1.00  0.00     0.156 A 
HETATM    9  C   UNL     1       7.041  24.366  53.184  1.00  0.00     0.034 A 
HETATM   10  C   UNL     1       6.921  25.426  54.097  1.00  0.00     0.026 A 
ENDROOT
BRANCH   1  11
HETATM   11  N   UNL     1       7.166  26.345  56.371  1.00  0.00    -0.289 NA
HETATM   12  H   UNL     1       6.606  26.124  57.192  1.00  0.00     0.128 HD
BRANCH  11  13
HETATM   13  C   UNL     1       6.923  27.695  55.887  1.00  0.00     0.131 C 
BRANCH  13  14
HETATM   14  C   UNL     1       7.601  28.690  56.800  1.00  0.00    -0.045 A 
HETATM   15  C   UNL     1       6.838  29.553  57.600  1.00  0.00     0.011 A 
HETATM   16  C   UNL     1       7.453  30.462  58.465  1.00  0.00     0.037 A 
HETATM   17  C   UNL     1       8.843  30.521  58.546  1.00  0.00     0.068 A 
HETATM   18  C   UNL     1       9.609  29.680  57.735  1.00  0.00     0.037 A 
HETATM   19  C   UNL     1       8.997  28.771  56.867  1.00  0.00     0.011 A 
BRANCH  17  20
HETATM   20  O   UNL     1       9.568  31.348  59.357  1.00  0.00    -0.351 OA
BRANCH  20  21
HETATM   21  C   UNL     1       8.832  32.188  60.249  1.00  0.00     0.179 C 
BRANCH  21  22
HETATM   22  C   UNL     1       9.226  31.843  61.694  1.00  0.00     0.002 C 
HETATM   23  C   UNL     1       9.485  30.344  61.858  1.00  0.00     0.011 C 
HETATM   24  C   UNL     1       8.142  32.303  62.666  1.00  0.00     0.011 C 
ENDBRANCH  21  22
ENDBRANCH  20  21
ENDBRANCH  17  20
ENDBRANCH  13  14
ENDBRANCH  11  13
ENDBRANCH   1  11
BRANCH   8  25
HETATM   25  C   UNL     1       8.694  20.874  56.303  1.00  0.00     0.270 C 
HETATM   26  N   UNL     1       9.652  19.929  56.057  1.00  0.00    -0.365 N 
HETATM   27  H   UNL     1       9.966  19.795  55.102  1.00  0.00     0.159 HD
HETATM   28  H   UNL     1      10.026  19.384  56.817  1.00  0.00     0.159 HD
HETATM   29  O   UNL     1       8.275  21.074  57.439  1.00  0.00    -0.266 OA
ENDBRANCH   8  25
TORSDOF 7
ENDMDL
MODEL 3
REMARK VINA RESULT:      -8.4      3.681      8.413
REMARK  7 active torsions:
REMARK  status: ('A' for Active; 'I' for Inactive)
REMARK    1  A    between atoms: C_2  and  C_3 
REMARK    2  A    between atoms: C_3  and  O_4 
REMARK    3  A    between atoms: O_4  and  C_5 
REMARK    4  A    between atoms: C_8  and  C_9 
REMARK    5  A    between atoms: C_9  and  N_10 
REMARK    6  A    between atoms: N_10  and  C_11 
REMARK    7  A    between atoms: C_18  and  C_19 
REMARK       I    between atoms: C_19  and  N_20 
ROOT
HETATM    1  C   UNL     1       6.126  24.774  53.810  1.00  0.00     0.009 A 
HETATM    2  C   UNL     1       6.674  24.146  54.943  1.00  0.00     0.039 A 
HETATM    3  C   UNL     1       7.712  23.201  54.807  1.00  0.00     0.030 A 
HETATM    4  C   UNL     1       8.206  22.934  53.537  1.00  0.00     0.063 A 
HETATM    5  N   UNL     1       9.192  22.005  53.721  1.00  0.00    -0.277 N 
HETATM    6  H   UNL     1       9.775  21.581  53.008  1.00  0.00     0.189 HD
HETATM    7  N   UNL     1       9.383  21.639  55.000  1.00  0.00    -0.168 NA
HETATM    8  C   UNL     1       8.476  22.374  55.684  1.00  0.00     0.156 A 
HETATM    9  C   UNL     1       7.724  23.562  52.390  1.00  0.00     0.034 A 
HETATM   10  C   UNL     1       6.687  24.493  52.558  1.00  0.00     0.026 A 
ENDROOT
BRANCH   1  11
HETATM   11  N   UNL     1       5.145  25.756  54.008  1.00  0.00    -0.289 NA
HETATM   12  H   UNL     1       4.271  25.522  53.541  1.00  0.00     0.128 HD
BRANCH  11  13
HETATM   13  C   UNL     1       5.493  27.160  53.851  1.00  0.00     0.131 C 
BRANCH  13  14
HETATM   14  C   UNL     1       6.147  27.664  55.116  1.00  0.00    -0.045 A 
HETATM   15  C   UNL     1       5.405  27.778  56.301  1.00  0.00     0.011 A 
HETATM   16  C   UNL     1       6.005  28.222  57.484  1.00  0.00     0.037 A 
HETATM   17  C   UNL     1       7.358  28.557  57.500  1.00  0.00     0.068 A 
HETATM   18  C   UNL     1       8.096  28.467  56.318  1.00  0.00     0.037 A 
HETATM   19  C   UNL     1       7.499  28.025  55.134  1.00  0.00     0.011 A 
BRANCH  17  20
HETATM   20  O   UNL     1       8.067  28.987  58.586  1.00  0.00    -0.351 OA
BRANCH  20  21
HETATM   21  C   UNL     1       8.098  30.396  58.822  1.00  0.00     0.179 C 
BRANCH  21  22
HETATM   22  C   UNL     1       9.524  30.800  59.231  1.00  0.00     0.002 C 
HETATM   23  C   UNL     1       9.509  31.974  60.213  1.00  0.00     0.011 C 
HETATM   24  C   UNL     1      10.353  31.150  57.998  1.00  0.00     0.011 C 
ENDBRANCH  21  22
ENDBRANCH  20  21
ENDBRANCH  17  20
ENDBRANCH  13  14
ENDBRANCH  11  13
ENDBRANCH   1  11
BRANCH   8  25
HETATM   25  C   UNL     1       8.354  22.271  57.143  1.00  0.00     0.270 C 
HETATM   26  N   UNL     1       8.344  23.477  57.790  1.00  0.00    -0.365 N 
HETATM   27  H   UNL     1       8.421  24.323  57.237  1.00  0.00     0.159 HD
HETATM   28  H   UNL     1       8.264  23.507  58.794  1.00  0.00     0.159 HD
HETATM   29  O   UNL     1       8.267  21.216  57.764  1.00  0.00    -0.266 OA
ENDBRANCH   8  25
TORSDOF 7
ENDMDL
MODEL 4
REMARK VINA RESULT:      -8.4      2.825      9.153
REMARK  7 active torsions:
REMARK  status: ('A' for Active; 'I' for Inactive)
REMARK    1  A    between atoms: C_2  and  C_3 
REMARK    2  A    between atoms: C_3  and  O_4 
REMARK    3  A    between atoms: O_4  and  C_5 
REMARK    4  A    between atoms: C_8  and  C_9 
REMARK    5  A    between atoms: C_9  and  N_10 
REMARK    6  A    between atoms: N_10  and  C_11 
REMARK    7  A    between atoms: C_18  and  C_19 
REMARK       I    between atoms: C_19  and  N_20 
ROOT
HETATM    1  C   UNL     1       7.760  26.237  56.125  1.00  0.00     0.009 A 
HETATM    2  C   UNL     1       7.674  25.204  55.174  1.00  0.00     0.039 A 
HETATM    3  C   UNL     1       7.969  23.872  55.534  1.00  0.00     0.030 A 
HETATM    4  C   UNL     1       8.309  23.599  56.851  1.00  0.00     0.063 A 
HETATM    5  N   UNL     1       8.526  22.250  56.897  1.00  0.00    -0.277 N 
HETATM    6  H   UNL     1       8.789  21.699  57.706  1.00  0.00     0.189 HD
HETATM    7  N   UNL     1       8.360  21.619  55.722  1.00  0.00    -0.168 NA
HETATM    8  C   UNL     1       8.012  22.610  54.870  1.00  0.00     0.156 A 
HETATM    9  C   UNL     1       8.368  24.582  57.838  1.00  0.00     0.034 A 
HETATM   10  C   UNL     1       8.073  25.898  57.447  1.00  0.00     0.026 A 
ENDROOT
BRANCH   1  11
HETATM   11  N   UNL     1       7.387  27.530  55.732  1.00  0.00    -0.289 NA
HETATM   12  H   UNL     1       6.556  27.525  55.143  1.00  0.00     0.128 HD
BRANCH  11  13
HETATM   13  C   UNL     1       8.401  28.452  55.242  1.00  0.00     0.131 C 
BRANCH  13  14
HETATM   14  C   UNL     1       8.830  29.373  56.359  1.00  0.00    -0.045 A 
HETATM   15  C   UNL     1      10.171  29.764  56.480  1.00  0.00     0.011 A 
HETATM   16  C   UNL     1      10.577  30.635  57.497  1.00  0.00     0.037 A 
HETATM   17  C   UNL     1       9.645  31.129  58.408  1.00  0.00     0.068 A 
HETATM   18  C   UNL     1       8.312  30.724  58.307  1.00  0.00     0.037 A 
HETATM   19  C   UNL     1       7.903  29.854  57.293  1.00  0.00     0.011 A 
BRANCH  17  20
HETATM   20  O   UNL     1       9.904  31.994  59.434  1.00  0.00    -0.351 OA
BRANCH  20  21
HETATM   21  C   UNL     1       8.838  32.247  60.352  1.00  0.00     0.179 C 
BRANCH  21  22
HETATM   22  C   UNL     1       9.288  31.830  61.762  1.00  0.00     0.002 C 
HETATM   23  C   UNL     1       9.434  30.311  61.873  1.00  0.00     0.011 C 
HETATM   24  C   UNL     1       8.303  32.346  62.809  1.00  0.00     0.011 C 
ENDBRANCH  21  22
ENDBRANCH  20  21
ENDBRANCH  17  20
ENDBRANCH  13  14
ENDBRANCH  11  13
ENDBRANCH   1  11
BRANCH   8  25
HETATM   25  C   UNL     1       7.735  22.338  53.454  1.00  0.00     0.270 C 
HETATM   26  N   UNL     1       7.819  21.016  53.112  1.00  0.00    -0.365 N 
HETATM   27  H   UNL     1       8.059  20.344  53.833  1.00  0.00     0.159 HD
HETATM   28  H   UNL     1       7.646  20.731  52.162  1.00  0.00     0.159 HD
HETATM   29  O   UNL     1       7.452  23.193  52.621  1.00  0.00    -0.266 OA
ENDBRANCH   8  25
TORSDOF 7
ENDMDL
MODEL 5
REMARK VINA RESULT:      -8.2      1.585      2.176
REMARK  7 active torsions:
REMARK  status: ('A' for Active; 'I' for Inactive)
REMARK    1  A    between atoms: C_2  and  C_3 
REMARK    2  A    between atoms: C_3  and  O_4 
REMARK    3  A    between atoms: O_4  and  C_5 
REMARK    4  A    between atoms: C_8  and  C_9 
REMARK    5  A    between atoms: C_9  and  N_10 
REMARK    6  A    between atoms: N_10  and  C_11 
REMARK    7  A    between atoms: C_18  and  C_19 
REMARK       I    between atoms: C_19  and  N_20 
ROOT
HETATM    1  C   UNL     1       6.843  28.776  56.121  1.00  0.00     0.009 A 
HETATM    2  C   UNL     1       7.335  29.415  57.273  1.00  0.00     0.039 A 
HETATM    3  C   UNL     1       8.691  29.793  57.360  1.00  0.00     0.030 A 
HETATM    4  C   UNL     1       9.520  29.555  56.272  1.00  0.00     0.063 A 
HETATM    5  N   UNL     1      10.747  30.028  56.642  1.00  0.00    -0.277 N 
HETATM    6  H   UNL     1      11.597  30.024  56.089  1.00  0.00     0.189 HD
HETATM    7  N   UNL     1      10.795  30.551  57.878  1.00  0.00    -0.168 NA
HETATM    8  C   UNL     1       9.528  30.416  58.334  1.00  0.00     0.156 A 
HETATM    9  C   UNL     1       9.069  28.963  55.093  1.00  0.00     0.034 A 
HETATM   10  C   UNL     1       7.715  28.594  55.040  1.00  0.00     0.026 A 
ENDROOT
BRANCH   1  11
HETATM   11  N   UNL     1       5.474  28.487  56.059  1.00  0.00    -0.289 NA
HETATM   12  H   UNL     1       4.903  29.282  56.341  1.00  0.00     0.128 HD
BRANCH  11  13
HETATM   13  C   UNL     1       4.979  27.233  56.608  1.00  0.00     0.131 C 
BRANCH  13  14
HETATM   14  C   UNL     1       5.616  26.074  55.878  1.00  0.00    -0.045 A 
HETATM   15  C   UNL     1       6.432  25.165  56.567  1.00  0.00     0.011 A 
HETATM   16  C   UNL     1       7.009  24.076  55.908  1.00  0.00     0.037 A 
HETATM   17  C   UNL     1       6.778  23.878  54.548  1.00  0.00     0.068 A 
HETATM   18  C   UNL     1       5.986  24.793  53.851  1.00  0.00     0.037 A 
HETATM   19  C   UNL     1       5.408  25.884  54.507  1.00  0.00     0.011 A 
BRANCH  17  20
HETATM   20  O   UNL     1       7.267  22.851  53.789  1.00  0.00    -0.351 OA
BRANCH  20  21
HETATM   21  C   UNL     1       8.643  22.511  53.970  1.00  0.00     0.179 C 
BRANCH  21  22
HETATM   22  C   UNL     1       8.765  20.984  54.093  1.00  0.00     0.002 C 
HETATM   23  C   UNL     1       8.344  20.286  52.797  1.00  0.00     0.011 C 
HETATM   24  C   UNL     1       7.929  20.475  55.265  1.00  0.00     0.011 C 
ENDBRANCH  21  22
ENDBRANCH  20  21
ENDBRANCH  17  20
ENDBRANCH  13  14
ENDBRANCH  11  13
ENDBRANCH   1  11
BRANCH   8  25
HETATM   25  C   UNL     1       9.146  30.873  59.676  1.00  0.00     0.270 C 
HETATM   26  N   UNL     1       9.165  32.233  59.829  1.00  0.00    -0.365 N 
HETATM   27  H   UNL     1       9.432  32.806  59.037  1.00  0.00     0.159 HD
HETATM   28  H   UNL     1       8.918  32.641  60.717  1.00  0.00     0.159 HD
HETATM   29  O   UNL     1       8.834  30.133  60.603  1.00  0.00    -0.266 OA
ENDBRANCH   8  25
TORSDOF 7
ENDMDL
MODEL 6
REMARK VINA RESULT:      -8.0      2.376      5.285
REMARK  7 active torsions:
REMARK  status: ('A' for Active; 'I' for Inactive)
REMARK    1  A    between atoms: C_2  and  C_3 
REMARK    2  A    between atoms: C_3  and  O_4 
REMARK    3  A    between atoms: O_4  and  C_5 
REMARK    4  A    between atoms: C_8  and  C_9 
REMARK    5  A    between atoms: C_9  and  N_10 
REMARK    6  A    between atoms: N_10  and  C_11 
REMARK    7  A    between atoms: C_18  and  C_19 
REMARK       I    between atoms: C_19  and  N_20 
ROOT
HETATM    1  C   UNL     1       8.198  32.254  60.450  1.00  0.00     0.009 A 
HETATM    2  C   UNL     1       6.796  32.324  60.364  1.00  0.00     0.039 A 
HETATM    3  C   UNL     1       6.006  32.354  61.532  1.00  0.00     0.030 A 
HETATM    4  C   UNL     1       6.642  32.350  62.766  1.00  0.00     0.063 A 
HETATM    5  N   UNL     1       5.638  32.394  63.691  1.00  0.00    -0.277 N 
HETATM    6  H   UNL     1       5.735  32.408  64.700  1.00  0.00     0.189 HD
HETATM    7  N   UNL     1       4.399  32.421  63.170  1.00  0.00    -0.168 NA
HETATM    8  C   UNL     1       4.612  32.401  61.834  1.00  0.00     0.156 A 
HETATM    9  C   UNL     1       8.029  32.323  62.902  1.00  0.00     0.034 A 
HETATM   10  C   UNL     1       8.787  32.289  61.721  1.00  0.00     0.026 A 
ENDROOT
BRANCH   1  11
HETATM   11  N   UNL     1       8.936  32.299  59.260  1.00  0.00    -0.289 NA
HETATM   12  H   UNL     1       8.350  32.513  58.455  1.00  0.00     0.128 HD
BRANCH  11  13
HETATM   13  C   UNL     1       9.900  31.247  58.973  1.00  0.00     0.131 C 
BRANCH  13  14
HETATM   14  C   UNL     1       9.275  30.226  58.052  1.00  0.00    -0.045 A 
HETATM   15  C   UNL     1       8.187  29.454  58.483  1.00  0.00     0.011 A 
HETATM   16  C   UNL     1       7.586  28.521  57.632  1.00  0.00     0.037 A 
HETATM   17  C   UNL     1       8.063  28.348  56.334  1.00  0.00     0.068 A 
HETATM   18  C   UNL     1       9.162  29.097  55.907  1.00  0.00     0.037 A 
HETATM   19  C   UNL     1       9.766  30.029  56.755  1.00  0.00     0.011 A 
BRANCH  17  20
HETATM   20  O   UNL     1       7.560  27.486  55.400  1.00  0.00    -0.351 OA
BRANCH  20  21
HETATM   21  C   UNL     1       7.449  26.113  55.780  1.00  0.00     0.179 C 
BRANCH  21  22
HETATM   22  C   UNL     1       7.247  25.263  54.516  1.00  0.00     0.002 C 
HETATM   23  C   UNL     1       8.055  23.965  54.582  1.00  0.00     0.011 C 
HETATM   24  C   UNL     1       7.627  26.061  53.271  1.00  0.00     0.011 C 
ENDBRANCH  21  22
ENDBRANCH  20  21
ENDBRANCH  17  20
ENDBRANCH  13  14
ENDBRANCH  11  13
ENDBRANCH   1  11
BRANCH   8  25
HETATM   25  C   UNL     1       3.494  32.421  60.882  1.00  0.00     0.270 C 
HETATM   26  N   UNL     1       3.081  31.181  60.478  1.00  0.00    -0.365 N 
HETATM   27  H   UNL     1       3.559  30.367  60.849  1.00  0.00     0.159 HD
HETATM   28  H   UNL     1       2.320  31.094  59.825  1.00  0.00     0.159 HD
HETATM   29  O   UNL     1       2.954  33.440  60.462  1.00  0.00    -0.266 OA
ENDBRANCH   8  25
TORSDOF 7
ENDMDL
MODEL 7
REMARK VINA RESULT:      -7.9      4.430     10.397
REMARK  7 active torsions:
REMARK  status: ('A' for Active; 'I' for Inactive)
REMARK    1  A    between atoms: C_2  and  C_3 
REMARK    2  A    between atoms: C_3  and  O_4 
REMARK    3  A    between atoms: O_4  and  C_5 
REMARK    4  A    between atoms: C_8  and  C_9 
REMARK    5  A    between atoms: C_9  and  N_10 
REMARK    6  A    between atoms: N_10  and  C_11 
REMARK    7  A    between atoms: C_18  and  C_19 
REMARK       I    between atoms: C_19  and  N_20 
ROOT
HETATM    1  C   UNL     1       8.306  29.746  58.545  1.00  0.00     0.009 A 
HETATM    2  C   UNL     1       7.116  29.294  57.946  1.00  0.00     0.039 A 
HETATM    3  C   UNL     1       7.084  28.960  56.576  1.00  0.00     0.030 A 
HETATM    4  C   UNL     1       8.258  29.051  55.841  1.00  0.00     0.063 A 
HETATM    5  N   UNL     1       7.923  28.662  54.575  1.00  0.00    -0.277 N 
HETATM    6  H   UNL     1       8.537  28.602  53.770  1.00  0.00     0.189 HD
HETATM    7  N   UNL     1       6.631  28.329  54.417  1.00  0.00    -0.168 NA
HETATM    8  C   UNL     1       6.099  28.505  55.649  1.00  0.00     0.156 A 
HETATM    9  C   UNL     1       9.470  29.453  56.399  1.00  0.00     0.034 A 
HETATM   10  C   UNL     1       9.468  29.783  57.764  1.00  0.00     0.026 A 
ENDROOT
BRANCH   1  11
HETATM   11  N   UNL     1       8.299  29.996  59.923  1.00  0.00    -0.289 NA
HETATM   12  H   UNL     1       7.384  29.827  60.337  1.00  0.00     0.128 HD
BRANCH  11  13
HETATM   13  C   UNL     1       8.919  31.208  60.437  1.00  0.00     0.131 C 
BRANCH  13  14
HETATM   14  C   UNL     1       7.991  31.870  61.428  1.00  0.00    -0.045 A 
HETATM   15  C   UNL     1       8.423  32.137  62.735  1.00  0.00     0.011 A 
HETATM   16  C   UNL     1       7.582  32.770  63.655  1.00  0.00     0.037 A 
HETATM   17  C   UNL     1       6.294  33.149  63.280  1.00  0.00     0.068 A 
HETATM   18  C   UNL     1       5.849  32.864  61.986  1.00  0.00     0.037 A 
HETATM   19  C   UNL     1       6.688  32.231  61.065  1.00  0.00     0.011 A 
BRANCH  17  20
HETATM   20  O   UNL     1       5.379  33.784  64.072  1.00  0.00    -0.351 OA
BRANCH  20  21
HETATM   21  C   UNL     1       4.390  34.576  63.411  1.00  0.00     0.179 C 
BRANCH  21  22
HETATM   22  C   UNL     1       4.511  36.029  63.898  1.00  0.00     0.002 C 
HETATM   23  C   UNL     1       5.689  36.742  63.231  1.00  0.00     0.011 C 
HETATM   24  C   UNL     1       4.656  36.072  65.417  1.00  0.00     0.011 C 
ENDBRANCH  21  22
ENDBRANCH  20  21
ENDBRANCH  17  20
ENDBRANCH  13  14
ENDBRANCH  11  13
ENDBRANCH   1  11
BRANCH   8  25
HETATM   25  C   UNL     1       4.679  28.244  55.912  1.00  0.00     0.270 C 
HETATM   26  N   UNL     1       4.446  27.115  56.648  1.00  0.00    -0.365 N 
HETATM   27  H   UNL     1       5.239  26.559  56.946  1.00  0.00     0.159 HD
HETATM   28  H   UNL     1       3.501  26.853  56.879  1.00  0.00     0.159 HD
HETATM   29  O   UNL     1       3.755  28.952  55.523  1.00  0.00    -0.266 OA
ENDBRANCH   8  25
TORSDOF 7
ENDMDL
MODEL 8
REMARK VINA RESULT:      -7.9      1.701      1.999
REMARK  7 active torsions:
REMARK  status: ('A' for Active; 'I' for Inactive)
REMARK    1  A    between atoms: C_2  and  C_3 
REMARK    2  A    between atoms: C_3  and  O_4 
REMARK    3  A    between atoms: O_4  and  C_5 
REMARK    4  A    between atoms: C_8  and  C_9 
REMARK    5  A    between atoms: C_9  and  N_10 
REMARK    6  A    between atoms: N_10  and  C_11 
REMARK    7  A    between atoms: C_18  and  C_19 
REMARK       I    between atoms: C_19  and  N_20 
ROOT
HETATM    1  C   UNL     1       7.079  29.054  55.611  1.00  0.00     0.009 A 
HETATM    2  C   UNL     1       6.509  30.070  56.399  1.00  0.00     0.039 A 
HETATM    3  C   UNL     1       6.957  30.291  57.718  1.00  0.00     0.030 A 
HETATM    4  C   UNL     1       7.995  29.511  58.208  1.00  0.00     0.063 A 
HETATM    5  N   UNL     1       8.211  29.955  59.482  1.00  0.00    -0.277 N 
HETATM    6  H   UNL     1       8.903  29.614  60.140  1.00  0.00     0.189 HD
HETATM    7  N   UNL     1       7.401  30.955  59.870  1.00  0.00    -0.168 NA
HETATM    8  C   UNL     1       6.621  31.176  58.786  1.00  0.00     0.156 A 
HETATM    9  C   UNL     1       8.620  28.521  57.451  1.00  0.00     0.034 A 
HETATM   10  C   UNL     1       8.148  28.322  56.144  1.00  0.00     0.026 A 
ENDROOT
BRANCH   1  11
HETATM   11  N   UNL     1       6.646  28.924  54.285  1.00  0.00    -0.289 NA
HETATM   12  H   UNL     1       6.498  29.830  53.841  1.00  0.00     0.128 HD
BRANCH  11  13
HETATM   13  C   UNL     1       5.589  27.977  53.963  1.00  0.00     0.131 C 
BRANCH  13  14
HETATM   14  C   UNL     1       6.181  26.598  53.791  1.00  0.00    -0.045 A 
HETATM   15  C   UNL     1       7.084  26.339  52.750  1.00  0.00     0.011 A 
HETATM   16  C   UNL     1       7.655  25.072  52.594  1.00  0.00     0.037 A 
HETATM   17  C   UNL     1       7.334  24.045  53.480  1.00  0.00     0.068 A 
HETATM   18  C   UNL     1       6.417  24.291  54.504  1.00  0.00     0.037 A 
HETATM   19  C   UNL     1       5.842  25.555  54.662  1.00  0.00     0.011 A 
BRANCH  17  20
HETATM   20  O   UNL     1       7.830  22.771  53.449  1.00  0.00    -0.351 OA
BRANCH  20  21
HETATM   21  C   UNL     1       7.642  21.976  54.621  1.00  0.00     0.179 C 
BRANCH  21  22
HETATM   22  C   UNL     1       7.992  20.516  54.290  1.00  0.00     0.002 C 
HETATM   23  C   UNL     1       9.077  19.978  55.226  1.00  0.00     0.011 C 
HETATM   24  C   UNL     1       8.436  20.391  52.835  1.00  0.00     0.011 C 
ENDBRANCH  21  22
ENDBRANCH  20  21
ENDBRANCH  17  20
ENDBRANCH  13  14
ENDBRANCH  11  13
ENDBRANCH   1  11
BRANCH   8  25
HETATM   25  C   UNL     1       5.580  32.211  58.793  1.00  0.00     0.270 C 
HETATM   26  N   UNL     1       4.497  31.909  59.572  1.00  0.00    -0.365 N 
HETATM   27  H   UNL     1       4.489  31.025  60.069  1.00  0.00     0.159 HD
HETATM   28  H   UNL     1       3.730  32.559  59.639  1.00  0.00     0.159 HD
HETATM   29  O   UNL     1       5.640  33.265  58.168  1.00  0.00    -0.266 OA
ENDBRANCH   8  25
TORSDOF 7
ENDMDL
MODEL 9
REMARK VINA RESULT:      -7.8      4.786      8.047
REMARK  7 active torsions:
REMARK  status: ('A' for Active; 'I' for Inactive)
REMARK    1  A    between atoms: C_2  and  C_3 
REMARK    2  A    between atoms: C_3  and  O_4 
REMARK    3  A    between atoms: O_4  and  C_5 
REMARK    4  A    between atoms: C_8  and  C_9 
REMARK    5  A    between atoms: C_9  and  N_10 
REMARK    6  A    between atoms: N_10  and  C_11 
REMARK    7  A    between atoms: C_18  and  C_19 
REMARK       I    between atoms: C_19  and  N_20 
ROOT
HETATM    1  C   UNL     1       5.156  28.670  52.262  1.00  0.00     0.009 A 
HETATM    2  C   UNL     1       5.201  28.162  50.951  1.00  0.00     0.039 A 
HETATM    3  C   UNL     1       4.037  28.127  50.155  1.00  0.00     0.030 A 
HETATM    4  C   UNL     1       2.858  28.638  50.678  1.00  0.00     0.063 A 
HETATM    5  N   UNL     1       1.926  28.478  49.692  1.00  0.00    -0.277 N 
HETATM    6  H   UNL     1       0.948  28.745  49.725  1.00  0.00     0.189 HD
HETATM    7  N   UNL     1       2.392  27.903  48.571  1.00  0.00    -0.168 NA
HETATM    8  C   UNL     1       3.699  27.683  48.841  1.00  0.00     0.156 A 
HETATM    9  C   UNL     1       2.773  29.190  51.956  1.00  0.00     0.034 A 
HETATM   10  C   UNL     1       3.948  29.205  52.724  1.00  0.00     0.026 A 
ENDROOT
BRANCH   1  11
HETATM   11  N   UNL     1       6.356  28.747  52.982  1.00  0.00    -0.289 NA
HETATM   12  H   UNL     1       7.118  28.265  52.507  1.00  0.00     0.128 HD
BRANCH  11  13
HETATM   13  C   UNL     1       6.351  28.488  54.414  1.00  0.00     0.131 C 
BRANCH  13  14
HETATM   14  C   UNL     1       6.581  27.016  54.664  1.00  0.00    -0.045 A 
HETATM   15  C   UNL     1       6.024  26.393  55.790  1.00  0.00     0.011 A 
HETATM   16  C   UNL     1       6.210  25.026  56.020  1.00  0.00     0.037 A 
HETATM   17  C   UNL     1       6.956  24.261  55.125  1.00  0.00     0.068 A 
HETATM   18  C   UNL     1       7.533  24.881  54.014  1.00  0.00     0.037 A 
HETATM   19  C   UNL     1       7.350  26.247  53.782  1.00  0.00     0.011 A 
BRANCH  17  20
HETATM   20  O   UNL     1       7.202  22.920  55.223  1.00  0.00    -0.351 OA
BRANCH  20  21
HETATM   21  C   UNL     1       8.139  22.364  54.299  1.00  0.00     0.179 C 
BRANCH  21  22
HETATM   22  C   UNL     1       7.865  20.858  54.160  1.00  0.00     0.002 C 
HETATM   23  C   UNL     1       8.513  20.067  55.298  1.00  0.00     0.011 C 
HETATM   24  C   UNL     1       8.364  20.349  52.809  1.00  0.00     0.011 C 
ENDBRANCH  21  22
ENDBRANCH  20  21
ENDBRANCH  17  20
ENDBRANCH  13  14
ENDBRANCH  11  13
ENDBRANCH   1  11
BRANCH   8  25
HETATM   25  C   UNL     1       4.589  27.057  47.855  1.00  0.00     0.270 C 
HETATM   26  N   UNL     1       5.692  27.804  47.545  1.00  0.00    -0.365 N 
HETATM   27  H   UNL     1       5.812  28.702  47.999  1.00  0.00     0.159 HD
HETATM   28  H   UNL     1       6.361  27.456  46.876  1.00  0.00     0.159 HD
HETATM   29  O   UNL     1       4.392  25.965  47.332  1.00  0.00    -0.266 OA
ENDBRANCH   8  25
TORSDOF 7
ENDMDL
MODEL 10
REMARK VINA RESULT:      -7.7      2.739      9.660
REMARK  7 active torsions:
REMARK  status: ('A' for Active; 'I' for Inactive)
REMARK    1  A    between atoms: C_2  and  C_3 
REMARK    2  A    between atoms: C_3  and  O_4 
REMARK    3  A    between atoms: O_4  and  C_5 
REMARK    4  A    between atoms: C_8  and  C_9 
REMARK    5  A    between atoms: C_9  and  N_10 
REMARK    6  A    between atoms: N_10  and  C_11 
REMARK    7  A    between atoms: C_18  and  C_19 
REMARK       I    between atoms: C_19  and  N_20 
ROOT
HETATM    1  C   UNL     1       7.991  26.200  57.033  1.00  0.00     0.009 A 
HETATM    2  C   UNL     1       7.188  26.186  55.878  1.00  0.00     0.039 A 
HETATM    3  C   UNL     1       7.137  25.043  55.053  1.00  0.00     0.030 A 
HETATM    4  C   UNL     1       7.865  23.921  55.425  1.00  0.00     0.063 A 
HETATM    5  N   UNL     1       7.614  22.991  54.456  1.00  0.00    -0.277 N 
HETATM    6  H   UNL     1       7.978  22.046  54.406  1.00  0.00     0.189 HD
HETATM    7  N   UNL     1       6.788  23.407  53.481  1.00  0.00    -0.168 NA
HETATM    8  C   UNL     1       6.482  24.676  53.840  1.00  0.00     0.156 A 
HETATM    9  C   UNL     1       8.641  23.872  56.581  1.00  0.00     0.034 A 
HETATM   10  C   UNL     1       8.676  25.027  57.378  1.00  0.00     0.026 A 
ENDROOT
BRANCH   1  11
HETATM   11  N   UNL     1       7.950  27.335  57.853  1.00  0.00    -0.289 NA
HETATM   12  H   UNL     1       7.061  27.419  58.344  1.00  0.00     0.128 HD
BRANCH  11  13
HETATM   13  C   UNL     1       8.415  28.613  57.336  1.00  0.00     0.131 C 
BRANCH  13  14
HETATM   14  C   UNL     1       7.900  29.731  58.212  1.00  0.00    -0.045 A 
HETATM   15  C   UNL     1       6.765  30.462  57.833  1.00  0.00     0.011 A 
HETATM   16  C   UNL     1       6.265  31.485  58.645  1.00  0.00     0.037 A 
HETATM   17  C   UNL     1       6.892  31.789  59.852  1.00  0.00     0.068 A 
HETATM   18  C   UNL     1       8.037  31.080  60.223  1.00  0.00     0.037 A 
HETATM   19  C   UNL     1       8.540  30.059  59.413  1.00  0.00     0.011 A 
BRANCH  17  20
HETATM   20  O   UNL     1       6.501  32.750  60.743  1.00  0.00    -0.351 OA
BRANCH  20  21
HETATM   21  C   UNL     1       6.503  32.390  62.125  1.00  0.00     0.179 C 
BRANCH  21  22
HETATM   22  C   UNL     1       7.027  33.578  62.947  1.00  0.00     0.002 C 
HETATM   23  C   UNL     1       7.439  33.143  64.355  1.00  0.00     0.011 C 
HETATM   24  C   UNL     1       5.974  34.682  63.020  1.00  0.00     0.011 C 
ENDBRANCH  21  22
ENDBRANCH  20  21
ENDBRANCH  17  20
ENDBRANCH  13  14
ENDBRANCH  11  13
ENDBRANCH   1  11
BRANCH   8  25
HETATM   25  C   UNL     1       5.585  25.504  53.024  1.00  0.00     0.270 C 
HETATM   26  N   UNL     1       4.256  25.302  53.276  1.00  0.00    -0.365 N 
HETATM   27  H   UNL     1       3.994  24.620  53.978  1.00  0.00     0.159 HD
HETATM   28  H   UNL     1       3.563  25.826  52.764  1.00  0.00     0.159 HD
HETATM   29  O   UNL     1       5.957  26.315  52.181  1.00  0.00    -0.266 OA
ENDBRANCH   8  25
TORSDOF 7
ENDMDL
