MODEL 1
REMARK VINA RESULT:      -8.8      0.000      0.000
REMARK  6 active torsions:
REMARK  status: ('A' for Active; 'I' for Inactive)
REMARK    1  A    between atoms: C_2  and  C_3 
REMARK    2  A    between atoms: C_3  and  C_4 
REMARK    3  A    between atoms: C_7  and  C_8 
REMARK    4  A    between atoms: C_14  and  C_15 
REMARK    5  A    between atoms: C_18  and  N_19 
REMARK       I    between atoms: N_19  and  C_20 
REMARK    6  A    between atoms: C_28  and  N_29 
ROOT
HETATM    1  C   UNL     1       9.275  30.683  58.528  1.00  0.00     0.099 A 
HETATM    2  N   UNL     1      10.468  30.940  57.951  1.00  0.00    -0.172 NA
HETATM    3  N   UNL     1      10.427  30.306  56.768  1.00  0.00    -0.256 N 
HETATM    4  H   UNL     1      11.236  30.351  56.158  1.00  0.00     0.191 HD
HETATM    5  C   UNL     1       9.259  29.655  56.563  1.00  0.00     0.175 A 
HETATM    6  C   UNL     1       8.468  29.890  57.662  1.00  0.00     0.040 A 
HETATM    7  C   UNL     1       7.087  29.321  57.704  1.00  0.00     0.105 C 
HETATM    8  C   UNL     1       6.891  28.338  56.549  1.00  0.00     0.067 C 
HETATM    9  C   UNL     1       5.720  27.373  56.637  1.00  0.00     0.020 C 
HETATM   10  N   UNL     1       4.750  26.572  56.710  1.00  0.00    -0.096 N 
HETATM   11  C   UNL     1       7.789  28.186  55.536  1.00  0.00     0.139 C 
HETATM   12  O   UNL     1       8.979  28.931  55.487  1.00  0.00    -0.279 OA
ENDROOT
BRANCH   7  13
HETATM   13  C   UNL     1       6.153  30.522  57.630  1.00  0.00    -0.044 A 
HETATM   14  C   UNL     1       5.689  31.034  56.406  1.00  0.00     0.010 A 
HETATM   15  C   UNL     1       4.874  32.171  56.356  1.00  0.00     0.030 A 
HETATM   16  C   UNL     1       4.496  32.823  57.528  1.00  0.00     0.034 A 
HETATM   17  C   UNL     1       4.932  32.306  58.754  1.00  0.00     0.030 A 
HETATM   18  C   UNL     1       5.746  31.168  58.806  1.00  0.00     0.010 A 
BRANCH  16  19
HETATM   19  N   UNL     1       3.711  33.993  57.561  1.00  0.00    -0.328 N 
HETATM   20  C   UNL     1       4.094  35.273  57.203  1.00  0.00     0.218 C 
HETATM   21  C   UNL     1       2.992  36.280  57.427  1.00  0.00     0.117 C 
HETATM   22  O   UNL     1       5.170  35.620  56.731  1.00  0.00    -0.274 OA
HETATM   23  H   UNL     1       2.762  33.878  57.895  1.00  0.00     0.169 HD
ENDBRANCH  16  19
ENDBRANCH   7  13
BRANCH  11  24
HETATM   24  N   UNL     1       7.670  27.304  54.487  1.00  0.00    -0.282 NA
HETATM   25  H   UNL     1       8.209  26.445  54.571  1.00  0.00     0.126 HD
HETATM   26  H   UNL     1       6.698  27.135  54.239  1.00  0.00     0.126 HD
ENDBRANCH  11  24
BRANCH   1  27
HETATM   27  C   UNL     1       8.978  31.220  59.857  1.00  0.00    -0.005 A 
HETATM   28  C   UNL     1       9.071  30.384  60.978  1.00  0.00     0.014 A 
HETATM   29  C   UNL     1       8.764  30.860  62.255  1.00  0.00     0.008 A 
HETATM   30  C   UNL     1       8.358  32.186  62.438  1.00  0.00    -0.058 A 
HETATM   31  C   UNL     1       8.263  33.024  61.321  1.00  0.00     0.008 A 
HETATM   32  C   UNL     1       8.559  32.543  60.040  1.00  0.00     0.014 A 
BRANCH  30  33
HETATM   33  C   UNL     1       8.019  32.699  63.818  1.00  0.00     0.042 C 
BRANCH  33  34
HETATM   34  C   UNL     1       6.640  33.381  63.906  1.00  0.00    -0.019 C 
HETATM   35  C   UNL     1       6.355  33.929  65.307  1.00  0.00     0.010 C 
HETATM   36  C   UNL     1       5.545  32.384  63.516  1.00  0.00     0.010 C 
ENDBRANCH  33  34
ENDBRANCH  30  33
ENDBRANCH   1  27
TORSDOF 6
ENDMDL
MODEL 2
REMARK VINA RESULT:      -8.7      3.621      8.057
REMARK  6 active torsions:
REMARK  status: ('A' for Active; 'I' for Inactive)
REMARK    1  A    between atoms: C_2  and  C_3 
REMARK    2  A    between atoms: C_3  and  C_4 
REMARK    3  A    between atoms: C_7  and  C_8 
REMARK    4  A    between atoms: C_14  and  C_15 
REMARK    5  A    between atoms: C_18  and  N_19 
REMARK       I    between atoms: N_19  and  C_20 
REMARK    6  A    between atoms: C_28  and  N_29 
ROOT
HETATM    1  C   UNL     1       2.742  34.447  63.928  1.00  0.00     0.099 A 
HETATM    2  N   UNL     1       1.530  33.947  64.247  1.00  0.00    -0.172 NA
HETATM    3  N   UNL     1       0.779  34.125  63.147  1.00  0.00    -0.256 N 
HETATM    4  H   UNL     1      -0.191  33.830  63.162  1.00  0.00     0.191 HD
HETATM    5  C   UNL     1       1.460  34.716  62.139  1.00  0.00     0.175 A 
HETATM    6  C   UNL     1       2.743  34.922  62.584  1.00  0.00     0.040 A 
HETATM    7  C   UNL     1       3.749  35.533  61.663  1.00  0.00     0.105 C 
HETATM    8  C   UNL     1       3.054  36.054  60.404  1.00  0.00     0.067 C 
HETATM    9  C   UNL     1       3.817  37.042  59.537  1.00  0.00     0.020 C 
HETATM   10  N   UNL     1       4.449  37.862  58.819  1.00  0.00    -0.096 N 
HETATM   11  C   UNL     1       1.750  35.797  60.108  1.00  0.00     0.139 C 
HETATM   12  O   UNL     1       0.939  35.027  60.958  1.00  0.00    -0.279 OA
ENDROOT
BRANCH   7  13
HETATM   13  C   UNL     1       4.757  34.429  61.375  1.00  0.00    -0.044 A 
HETATM   14  C   UNL     1       6.022  34.393  61.988  1.00  0.00     0.010 A 
HETATM   15  C   UNL     1       6.955  33.399  61.669  1.00  0.00     0.030 A 
HETATM   16  C   UNL     1       6.648  32.413  60.735  1.00  0.00     0.034 A 
HETATM   17  C   UNL     1       5.382  32.426  60.137  1.00  0.00     0.030 A 
HETATM   18  C   UNL     1       4.446  33.417  60.455  1.00  0.00     0.010 A 
BRANCH  16  19
HETATM   19  N   UNL     1       7.544  31.403  60.332  1.00  0.00    -0.328 N 
HETATM   20  C   UNL     1       8.715  31.556  59.611  1.00  0.00     0.218 C 
HETATM   21  C   UNL     1       9.381  30.233  59.321  1.00  0.00     0.117 C 
HETATM   22  O   UNL     1       9.225  32.606  59.240  1.00  0.00    -0.274 OA
HETATM   23  H   UNL     1       7.292  30.458  60.595  1.00  0.00     0.169 HD
ENDBRANCH  16  19
ENDBRANCH   7  13
BRANCH  11  24
HETATM   24  N   UNL     1       1.074  36.257  59.002  1.00  0.00    -0.282 NA
HETATM   25  H   UNL     1       0.068  36.103  59.006  1.00  0.00     0.126 HD
HETATM   26  H   UNL     1       1.325  37.215  58.773  1.00  0.00     0.126 HD
ENDBRANCH  11  24
BRANCH   1  27
HETATM   27  C   UNL     1       3.821  34.428  64.917  1.00  0.00    -0.005 A 
HETATM   28  C   UNL     1       3.824  35.367  65.957  1.00  0.00     0.014 A 
HETATM   29  C   UNL     1       4.856  35.393  66.898  1.00  0.00     0.008 A 
HETATM   30  C   UNL     1       5.909  34.475  66.819  1.00  0.00    -0.058 A 
HETATM   31  C   UNL     1       5.910  33.535  65.782  1.00  0.00     0.008 A 
HETATM   32  C   UNL     1       4.882  33.519  64.832  1.00  0.00     0.014 A 
BRANCH  30  33
HETATM   33  C   UNL     1       7.030  34.507  67.832  1.00  0.00     0.042 C 
BRANCH  33  34
HETATM   34  C   UNL     1       6.590  34.978  69.231  1.00  0.00    -0.019 C 
HETATM   35  C   UNL     1       7.697  35.750  69.956  1.00  0.00     0.010 C 
HETATM   36  C   UNL     1       6.175  33.770  70.076  1.00  0.00     0.010 C 
ENDBRANCH  33  34
ENDBRANCH  30  33
ENDBRANCH   1  27
TORSDOF 6
ENDMDL
MODEL 3
REMARK VINA RESULT:      -8.5      4.745      7.158
REMARK  6 active torsions:
REMARK  status: ('A' for Active; 'I' for Inactive)
REMARK    1  A    between atoms: C_2  and  C_3 
REMARK    2  A    between atoms: C_3  and  C_4 
REMARK    3  A    between atoms: C_7  and  C_8 
REMARK    4  A    between atoms: C_14  and  C_15 
REMARK    5  A    between atoms: C_18  and  N_19 
REMARK       I    between atoms: N_19  and  C_20 
REMARK    6  A    between atoms: C_28  and  N_29 
ROOT
HETATM    1  C   UNL     1       5.835  32.971  63.313  1.00  0.00     0.099 A 
HETATM    2  N   UNL     1       6.757  32.100  62.855  1.00  0.00    -0.172 NA
HETATM    3  N   UNL     1       6.429  31.888  61.569  1.00  0.00    -0.256 N 
HETATM    4  H   UNL     1       6.988  31.246  61.019  1.00  0.00     0.191 HD
HETATM    5  C   UNL     1       5.336  32.588  61.187  1.00  0.00     0.175 A 
HETATM    6  C   UNL     1       4.929  33.326  62.272  1.00  0.00     0.040 A 
HETATM    7  C   UNL     1       3.752  34.237  62.138  1.00  0.00     0.105 C 
HETATM    8  C   UNL     1       3.046  33.984  60.804  1.00  0.00     0.067 C 
HETATM    9  C   UNL     1       1.630  34.513  60.647  1.00  0.00     0.020 C 
HETATM   10  N   UNL     1       0.455  34.951  60.516  1.00  0.00    -0.096 N 
HETATM   11  C   UNL     1       3.559  33.190  59.825  1.00  0.00     0.139 C 
HETATM   12  O   UNL     1       4.792  32.533  59.978  1.00  0.00    -0.279 OA
ENDROOT
BRANCH   7  13
HETATM   13  C   UNL     1       4.316  35.646  62.257  1.00  0.00    -0.044 A 
HETATM   14  C   UNL     1       4.750  36.375  61.135  1.00  0.00     0.010 A 
HETATM   15  C   UNL     1       5.314  37.649  61.271  1.00  0.00     0.030 A 
HETATM   16  C   UNL     1       5.455  38.230  62.529  1.00  0.00     0.034 A 
HETATM   17  C   UNL     1       5.004  37.523  63.650  1.00  0.00     0.030 A 
HETATM   18  C   UNL     1       4.437  36.249  63.517  1.00  0.00     0.010 A 
BRANCH  16  19
HETATM   19  N   UNL     1       6.047  39.489  62.754  1.00  0.00    -0.328 N 
HETATM   20  C   UNL     1       7.187  40.001  62.159  1.00  0.00     0.218 C 
HETATM   21  C   UNL     1       7.544  41.366  62.696  1.00  0.00     0.117 C 
HETATM   22  O   UNL     1       7.862  39.479  61.280  1.00  0.00    -0.274 OA
HETATM   23  H   UNL     1       5.586  40.079  63.436  1.00  0.00     0.169 HD
ENDBRANCH  16  19
ENDBRANCH   7  13
BRANCH  11  24
HETATM   24  N   UNL     1       2.957  32.916  58.618  1.00  0.00    -0.282 NA
HETATM   25  H   UNL     1       3.490  33.175  57.792  1.00  0.00     0.126 HD
HETATM   26  H   UNL     1       2.604  31.963  58.577  1.00  0.00     0.126 HD
ENDBRANCH  11  24
BRANCH   1  27
HETATM   27  C   UNL     1       5.883  33.418  64.706  1.00  0.00    -0.005 A 
HETATM   28  C   UNL     1       4.691  33.574  65.426  1.00  0.00     0.014 A 
HETATM   29  C   UNL     1       4.705  34.028  66.747  1.00  0.00     0.008 A 
HETATM   30  C   UNL     1       5.915  34.334  67.379  1.00  0.00    -0.058 A 
HETATM   31  C   UNL     1       7.109  34.180  66.663  1.00  0.00     0.008 A 
HETATM   32  C   UNL     1       7.093  33.737  65.335  1.00  0.00     0.014 A 
BRANCH  30  33
HETATM   33  C   UNL     1       5.930  34.833  68.804  1.00  0.00     0.042 C 
BRANCH  33  34
HETATM   34  C   UNL     1       7.322  34.794  69.463  1.00  0.00    -0.019 C 
HETATM   35  C   UNL     1       7.396  33.771  70.600  1.00  0.00     0.010 C 
HETATM   36  C   UNL     1       7.677  36.183  70.002  1.00  0.00     0.010 C 
ENDBRANCH  33  34
ENDBRANCH  30  33
ENDBRANCH   1  27
TORSDOF 6
ENDMDL
MODEL 4
REMARK VINA RESULT:      -8.1      6.524     10.004
REMARK  6 active torsions:
REMARK  status: ('A' for Active; 'I' for Inactive)
REMARK    1  A    between atoms: C_2  and  C_3 
REMARK    2  A    between atoms: C_3  and  C_4 
REMARK    3  A    between atoms: C_7  and  C_8 
REMARK    4  A    between atoms: C_14  and  C_15 
REMARK    5  A    between atoms: C_18  and  N_19 
REMARK       I    between atoms: N_19  and  C_20 
REMARK    6  A    between atoms: C_28  and  N_29 
ROOT
HETATM    1  C   UNL     1       4.674  28.485  54.210  1.00  0.00     0.099 A 
HETATM    2  N   UNL     1       4.071  28.457  55.417  1.00  0.00    -0.172 NA
HETATM    3  N   UNL     1       3.478  29.657  55.539  1.00  0.00    -0.256 N 
HETATM    4  H   UNL     1       2.968  29.868  56.388  1.00  0.00     0.191 HD
HETATM    5  C   UNL     1       3.675  30.449  54.459  1.00  0.00     0.175 A 
HETATM    6  C   UNL     1       4.421  29.727  53.559  1.00  0.00     0.040 A 
HETATM    7  C   UNL     1       4.768  30.338  52.240  1.00  0.00     0.105 C 
HETATM    8  C   UNL     1       4.398  31.822  52.239  1.00  0.00     0.067 C 
HETATM    9  C   UNL     1       5.016  32.699  51.162  1.00  0.00     0.020 C 
HETATM   10  N   UNL     1       5.529  33.428  50.271  1.00  0.00    -0.096 N 
HETATM   11  C   UNL     1       3.676  32.414  53.230  1.00  0.00     0.139 C 
HETATM   12  O   UNL     1       3.218  31.690  54.343  1.00  0.00    -0.279 OA
ENDROOT
BRANCH   7  13
HETATM   13  C   UNL     1       3.996  29.530  51.205  1.00  0.00    -0.044 A 
HETATM   14  C   UNL     1       4.624  28.590  50.370  1.00  0.00     0.010 A 
HETATM   15  C   UNL     1       3.907  27.896  49.389  1.00  0.00     0.030 A 
HETATM   16  C   UNL     1       2.542  28.119  49.219  1.00  0.00     0.034 A 
HETATM   17  C   UNL     1       1.902  29.035  50.062  1.00  0.00     0.030 A 
HETATM   18  C   UNL     1       2.617  29.729  51.046  1.00  0.00     0.010 A 
BRANCH  16  19
HETATM   19  N   UNL     1       1.758  27.490  48.231  1.00  0.00    -0.328 N 
HETATM   20  C   UNL     1       1.344  28.022  47.022  1.00  0.00     0.218 C 
HETATM   21  C   UNL     1       0.468  27.064  46.251  1.00  0.00     0.117 C 
HETATM   22  O   UNL     1       1.633  29.117  46.556  1.00  0.00    -0.274 OA
HETATM   23  H   UNL     1       1.458  26.546  48.439  1.00  0.00     0.169 HD
ENDBRANCH  16  19
ENDBRANCH   7  13
BRANCH  11  24
HETATM   24  N   UNL     1       3.335  33.746  53.285  1.00  0.00    -0.282 NA
HETATM   25  H   UNL     1       2.797  34.028  54.101  1.00  0.00     0.126 HD
HETATM   26  H   UNL     1       4.133  34.351  53.113  1.00  0.00     0.126 HD
ENDBRANCH  11  24
BRANCH   1  27
HETATM   27  C   UNL     1       5.437  27.324  53.750  1.00  0.00    -0.005 A 
HETATM   28  C   UNL     1       4.762  26.154  53.376  1.00  0.00     0.014 A 
HETATM   29  C   UNL     1       5.466  25.020  52.962  1.00  0.00     0.008 A 
HETATM   30  C   UNL     1       6.864  25.034  52.911  1.00  0.00    -0.058 A 
HETATM   31  C   UNL     1       7.543  26.200  53.284  1.00  0.00     0.008 A 
HETATM   32  C   UNL     1       6.837  27.332  53.711  1.00  0.00     0.014 A 
BRANCH  30  33
HETATM   33  C   UNL     1       7.625  23.806  52.471  1.00  0.00     0.042 C 
BRANCH  33  34
HETATM   34  C   UNL     1       7.650  22.679  53.522  1.00  0.00    -0.019 C 
HETATM   35  C   UNL     1       8.620  22.978  54.668  1.00  0.00     0.010 C 
HETATM   36  C   UNL     1       8.042  21.359  52.852  1.00  0.00     0.010 C 
ENDBRANCH  33  34
ENDBRANCH  30  33
ENDBRANCH   1  27
TORSDOF 6
ENDMDL
MODEL 5
REMARK VINA RESULT:      -7.6      6.179      9.848
REMARK  6 active torsions:
REMARK  status: ('A' for Active; 'I' for Inactive)
REMARK    1  A    between atoms: C_2  and  C_3 
REMARK    2  A    between atoms: C_3  and  C_4 
REMARK    3  A    between atoms: C_7  and  C_8 
REMARK    4  A    between atoms: C_14  and  C_15 
REMARK    5  A    between atoms: C_18  and  N_19 
REMARK       I    between atoms: N_19  and  C_20 
REMARK    6  A    between atoms: C_28  and  N_29 
ROOT
HETATM    1  C   UNL     1       4.098  29.863  54.359  1.00  0.00     0.099 A 
HETATM    2  N   UNL     1       3.246  30.096  55.379  1.00  0.00    -0.172 NA
HETATM    3  N   UNL     1       2.631  31.248  55.064  1.00  0.00    -0.256 N 
HETATM    4  H   UNL     1       1.945  31.630  55.705  1.00  0.00     0.191 HD
HETATM    5  C   UNL     1       3.053  31.760  53.884  1.00  0.00     0.175 A 
HETATM    6  C   UNL     1       3.984  30.887  53.375  1.00  0.00     0.040 A 
HETATM    7  C   UNL     1       4.606  31.174  52.047  1.00  0.00     0.105 C 
HETATM    8  C   UNL     1       4.233  32.585  51.590  1.00  0.00     0.067 C 
HETATM    9  C   UNL     1       5.064  33.207  50.479  1.00  0.00     0.020 C 
HETATM   10  N   UNL     1       5.754  33.724  49.560  1.00  0.00    -0.096 N 
HETATM   11  C   UNL     1       3.307  33.356  52.223  1.00  0.00     0.139 C 
HETATM   12  O   UNL     1       2.623  32.902  53.362  1.00  0.00    -0.279 OA
ENDROOT
BRANCH   7  13
HETATM   13  C   UNL     1       4.086  30.088  51.114  1.00  0.00    -0.044 A 
HETATM   14  C   UNL     1       2.720  29.955  50.810  1.00  0.00     0.010 A 
HETATM   15  C   UNL     1       2.256  28.918  49.992  1.00  0.00     0.030 A 
HETATM   16  C   UNL     1       3.143  27.990  49.453  1.00  0.00     0.034 A 
HETATM   17  C   UNL     1       4.509  28.128  49.730  1.00  0.00     0.030 A 
HETATM   18  C   UNL     1       4.976  29.166  50.546  1.00  0.00     0.010 A 
BRANCH  16  19
HETATM   19  N   UNL     1       2.752  26.897  48.653  1.00  0.00    -0.328 N 
HETATM   20  C   UNL     1       3.433  26.355  47.578  1.00  0.00     0.218 C 
HETATM   21  C   UNL     1       2.671  25.223  46.934  1.00  0.00     0.117 C 
HETATM   22  O   UNL     1       4.535  26.685  47.156  1.00  0.00    -0.274 OA
HETATM   23  H   UNL     1       1.866  26.470  48.892  1.00  0.00     0.169 HD
ENDBRANCH  16  19
ENDBRANCH   7  13
BRANCH  11  24
HETATM   24  N   UNL     1       2.951  34.636  51.864  1.00  0.00    -0.282 NA
HETATM   25  H   UNL     1       1.975  34.880  52.016  1.00  0.00     0.126 HD
HETATM   26  H   UNL     1       3.592  35.330  52.241  1.00  0.00     0.126 HD
ENDBRANCH  11  24
BRANCH   1  27
HETATM   27  C   UNL     1       4.953  28.675  54.381  1.00  0.00    -0.005 A 
HETATM   28  C   UNL     1       4.505  27.487  53.789  1.00  0.00     0.014 A 
HETATM   29  C   UNL     1       5.286  26.329  53.821  1.00  0.00     0.008 A 
HETATM   30  C   UNL     1       6.538  26.337  54.445  1.00  0.00    -0.058 A 
HETATM   31  C   UNL     1       6.990  27.522  55.038  1.00  0.00     0.008 A 
HETATM   32  C   UNL     1       6.200  28.678  55.017  1.00  0.00     0.014 A 
BRANCH  30  33
HETATM   33  C   UNL     1       7.380  25.084  54.487  1.00  0.00     0.042 C 
BRANCH  33  34
HETATM   34  C   UNL     1       7.206  24.176  53.254  1.00  0.00    -0.019 C 
HETATM   35  C   UNL     1       7.790  22.778  53.479  1.00  0.00     0.010 C 
HETATM   36  C   UNL     1       7.878  24.821  52.039  1.00  0.00     0.010 C 
ENDBRANCH  33  34
ENDBRANCH  30  33
ENDBRANCH   1  27
TORSDOF 6
ENDMDL
MODEL 6
REMARK VINA RESULT:      -7.5      2.844      6.771
REMARK  6 active torsions:
REMARK  status: ('A' for Active; 'I' for Inactive)
REMARK    1  A    between atoms: C_2  and  C_3 
REMARK    2  A    between atoms: C_3  and  C_4 
REMARK    3  A    between atoms: C_7  and  C_8 
REMARK    4  A    between atoms: C_14  and  C_15 
REMARK    5  A    between atoms: C_18  and  N_19 
REMARK       I    between atoms: N_19  and  C_20 
REMARK    6  A    between atoms: C_28  and  N_29 
ROOT
HETATM    1  C   UNL     1       2.434  34.766  59.300  1.00  0.00     0.099 A 
HETATM    2  N   UNL     1       1.155  35.165  59.461  1.00  0.00    -0.172 NA
HETATM    3  N   UNL     1       0.768  35.593  58.248  1.00  0.00    -0.256 N 
HETATM    4  H   UNL     1      -0.172  35.957  58.133  1.00  0.00     0.191 HD
HETATM    5  C   UNL     1       1.744  35.483  57.318  1.00  0.00     0.175 A 
HETATM    6  C   UNL     1       2.835  34.929  57.942  1.00  0.00     0.040 A 
HETATM    7  C   UNL     1       4.069  34.650  57.147  1.00  0.00     0.105 C 
HETATM    8  C   UNL     1       3.952  35.286  55.761  1.00  0.00     0.067 C 
HETATM    9  C   UNL     1       5.229  35.457  54.955  1.00  0.00     0.020 C 
HETATM   10  N   UNL     1       6.289  35.600  54.286  1.00  0.00    -0.096 N 
HETATM   11  C   UNL     1       2.801  35.836  55.285  1.00  0.00     0.139 C 
HETATM   12  O   UNL     1       1.624  35.863  56.052  1.00  0.00    -0.279 OA
ENDROOT
BRANCH   7  13
HETATM   13  C   UNL     1       4.186  33.132  57.099  1.00  0.00    -0.044 A 
HETATM   14  C   UNL     1       3.255  32.333  56.414  1.00  0.00     0.010 A 
HETATM   15  C   UNL     1       3.350  30.936  56.426  1.00  0.00     0.030 A 
HETATM   16  C   UNL     1       4.379  30.302  57.118  1.00  0.00     0.034 A 
HETATM   17  C   UNL     1       5.325  31.091  57.783  1.00  0.00     0.030 A 
HETATM   18  C   UNL     1       5.234  32.488  57.771  1.00  0.00     0.010 A 
BRANCH  16  19
HETATM   19  N   UNL     1       4.521  28.903  57.211  1.00  0.00    -0.328 N 
HETATM   20  C   UNL     1       5.275  28.079  56.394  1.00  0.00     0.218 C 
HETATM   21  C   UNL     1       5.136  26.624  56.771  1.00  0.00     0.117 C 
HETATM   22  O   UNL     1       6.010  28.418  55.474  1.00  0.00    -0.274 OA
HETATM   23  H   UNL     1       4.003  28.455  57.955  1.00  0.00     0.169 HD
ENDBRANCH  16  19
ENDBRANCH   7  13
BRANCH  11  24
HETATM   24  N   UNL     1       2.649  36.437  54.056  1.00  0.00    -0.282 NA
HETATM   25  H   UNL     1       2.347  35.824  53.302  1.00  0.00     0.126 HD
HETATM   26  H   UNL     1       2.099  37.290  54.115  1.00  0.00     0.126 HD
ENDBRANCH  11  24
BRANCH   1  27
HETATM   27  C   UNL     1       3.184  34.245  60.443  1.00  0.00    -0.005 A 
HETATM   28  C   UNL     1       3.985  35.111  61.200  1.00  0.00     0.014 A 
HETATM   29  C   UNL     1       4.736  34.637  62.278  1.00  0.00     0.008 A 
HETATM   30  C   UNL     1       4.700  33.282  62.625  1.00  0.00    -0.058 A 
HETATM   31  C   UNL     1       3.901  32.413  61.872  1.00  0.00     0.008 A 
HETATM   32  C   UNL     1       3.159  32.887  60.783  1.00  0.00     0.014 A 
BRANCH  30  33
HETATM   33  C   UNL     1       5.517  32.767  63.785  1.00  0.00     0.042 C 
BRANCH  33  34
HETATM   34  C   UNL     1       6.906  33.423  63.907  1.00  0.00    -0.019 C 
HETATM   35  C   UNL     1       8.022  32.516  63.380  1.00  0.00     0.010 C 
HETATM   36  C   UNL     1       7.184  33.774  65.372  1.00  0.00     0.010 C 
ENDBRANCH  33  34
ENDBRANCH  30  33
ENDBRANCH   1  27
TORSDOF 6
ENDMDL
MODEL 7
REMARK VINA RESULT:      -7.2      7.890     10.264
REMARK  6 active torsions:
REMARK  status: ('A' for Active; 'I' for Inactive)
REMARK    1  A    between atoms: C_2  and  C_3 
REMARK    2  A    between atoms: C_3  and  C_4 
REMARK    3  A    between atoms: C_7  and  C_8 
REMARK    4  A    between atoms: C_14  and  C_15 
REMARK    5  A    between atoms: C_18  and  N_19 
REMARK       I    between atoms: N_19  and  C_20 
REMARK    6  A    between atoms: C_28  and  N_29 
ROOT
HETATM    1  C   UNL     1       4.422  28.114  50.451  1.00  0.00     0.099 A 
HETATM    2  N   UNL     1       5.456  27.278  50.684  1.00  0.00    -0.172 NA
HETATM    3  N   UNL     1       5.408  26.379  49.688  1.00  0.00    -0.256 N 
HETATM    4  H   UNL     1       6.095  25.633  49.666  1.00  0.00     0.191 HD
HETATM    5  C   UNL     1       4.389  26.605  48.827  1.00  0.00     0.175 A 
HETATM    6  C   UNL     1       3.736  27.733  49.262  1.00  0.00     0.040 A 
HETATM    7  C   UNL     1       2.575  28.253  48.479  1.00  0.00     0.105 C 
HETATM    8  C   UNL     1       2.171  27.239  47.407  1.00  0.00     0.067 C 
HETATM    9  C   UNL     1       0.797  27.392  46.776  1.00  0.00     0.020 C 
HETATM   10  N   UNL     1      -0.344  27.518  46.254  1.00  0.00    -0.096 N 
HETATM   11  C   UNL     1       2.908  26.135  47.106  1.00  0.00     0.139 C 
HETATM   12  O   UNL     1       4.109  25.845  47.775  1.00  0.00    -0.279 OA
ENDROOT
BRANCH   7  13
HETATM   13  C   UNL     1       3.042  29.581  47.897  1.00  0.00    -0.044 A 
HETATM   14  C   UNL     1       4.180  29.679  47.078  1.00  0.00     0.010 A 
HETATM   15  C   UNL     1       4.624  30.916  46.596  1.00  0.00     0.030 A 
HETATM   16  C   UNL     1       3.940  32.087  46.916  1.00  0.00     0.034 A 
HETATM   17  C   UNL     1       2.791  31.997  47.711  1.00  0.00     0.030 A 
HETATM   18  C   UNL     1       2.344  30.760  48.192  1.00  0.00     0.010 A 
BRANCH  16  19
HETATM   19  N   UNL     1       4.343  33.373  46.504  1.00  0.00    -0.328 N 
HETATM   20  C   UNL     1       5.381  34.133  47.013  1.00  0.00     0.218 C 
HETATM   21  C   UNL     1       5.473  35.486  46.352  1.00  0.00     0.117 C 
HETATM   22  O   UNL     1       6.184  33.804  47.878  1.00  0.00    -0.274 OA
HETATM   23  H   UNL     1       3.801  33.787  45.755  1.00  0.00     0.169 HD
ENDBRANCH  16  19
ENDBRANCH   7  13
BRANCH  11  24
HETATM   24  N   UNL     1       2.580  25.184  46.168  1.00  0.00    -0.282 NA
HETATM   25  H   UNL     1       1.851  24.528  46.442  1.00  0.00     0.126 HD
HETATM   26  H   UNL     1       2.416  25.593  45.252  1.00  0.00     0.126 HD
ENDBRANCH  11  24
BRANCH   1  27
HETATM   27  C   UNL     1       4.164  29.226  51.367  1.00  0.00    -0.005 A 
HETATM   28  C   UNL     1       4.515  30.530  50.990  1.00  0.00     0.014 A 
HETATM   29  C   UNL     1       4.308  31.607  51.855  1.00  0.00     0.008 A 
HETATM   30  C   UNL     1       3.741  31.403  53.118  1.00  0.00    -0.058 A 
HETATM   31  C   UNL     1       3.389  30.103  53.498  1.00  0.00     0.008 A 
HETATM   32  C   UNL     1       3.609  29.022  52.636  1.00  0.00     0.014 A 
BRANCH  30  33
HETATM   33  C   UNL     1       3.525  32.566  54.056  1.00  0.00     0.042 C 
BRANCH  33  34
HETATM   34  C   UNL     1       2.544  32.264  55.206  1.00  0.00    -0.019 C 
HETATM   35  C   UNL     1       1.178  32.922  54.988  1.00  0.00     0.010 C 
HETATM   36  C   UNL     1       3.139  32.749  56.531  1.00  0.00     0.010 C 
ENDBRANCH  33  34
ENDBRANCH  30  33
ENDBRANCH   1  27
TORSDOF 6
ENDMDL
MODEL 8
REMARK VINA RESULT:      -7.1      3.188      6.201
REMARK  6 active torsions:
REMARK  status: ('A' for Active; 'I' for Inactive)
REMARK    1  A    between atoms: C_2  and  C_3 
REMARK    2  A    between atoms: C_3  and  C_4 
REMARK    3  A    between atoms: C_7  and  C_8 
REMARK    4  A    between atoms: C_14  and  C_15 
REMARK    5  A    between atoms: C_18  and  N_19 
REMARK       I    between atoms: N_19  and  C_20 
REMARK    6  A    between atoms: C_28  and  N_29 
ROOT
HETATM    1  C   UNL     1       4.035  33.650  57.841  1.00  0.00     0.099 A 
HETATM    2  N   UNL     1       2.962  33.282  57.109  1.00  0.00    -0.172 NA
HETATM    3  N   UNL     1       3.156  31.981  56.836  1.00  0.00    -0.256 N 
HETATM    4  H   UNL     1       2.469  31.490  56.276  1.00  0.00     0.191 HD
HETATM    5  C   UNL     1       4.306  31.502  57.365  1.00  0.00     0.175 A 
HETATM    6  C   UNL     1       4.899  32.536  58.047  1.00  0.00     0.040 A 
HETATM    7  C   UNL     1       6.181  32.292  58.774  1.00  0.00     0.105 C 
HETATM    8  C   UNL     1       6.737  30.915  58.406  1.00  0.00     0.067 C 
HETATM    9  C   UNL     1       8.198  30.640  58.720  1.00  0.00     0.020 C 
HETATM   10  N   UNL     1       9.410  30.411  58.979  1.00  0.00    -0.096 N 
HETATM   11  C   UNL     1       6.039  29.996  57.683  1.00  0.00     0.139 C 
HETATM   12  O   UNL     1       4.740  30.256  57.216  1.00  0.00    -0.279 OA
ENDROOT
BRANCH   7  13
HETATM   13  C   UNL     1       5.839  32.420  60.253  1.00  0.00    -0.044 A 
HETATM   14  C   UNL     1       4.589  32.033  60.767  1.00  0.00     0.010 A 
HETATM   15  C   UNL     1       4.274  32.208  62.120  1.00  0.00     0.030 A 
HETATM   16  C   UNL     1       5.201  32.770  62.995  1.00  0.00     0.034 A 
HETATM   17  C   UNL     1       6.457  33.136  62.498  1.00  0.00     0.030 A 
HETATM   18  C   UNL     1       6.775  32.960  61.145  1.00  0.00     0.010 A 
BRANCH  16  19
HETATM   19  N   UNL     1       4.948  33.014  64.360  1.00  0.00    -0.328 N 
HETATM   20  C   UNL     1       4.384  34.146  64.921  1.00  0.00     0.218 C 
HETATM   21  C   UNL     1       4.324  34.065  66.427  1.00  0.00     0.117 C 
HETATM   22  O   UNL     1       3.940  35.123  64.330  1.00  0.00    -0.274 OA
HETATM   23  H   UNL     1       5.222  32.278  64.998  1.00  0.00     0.169 HD
ENDBRANCH  16  19
ENDBRANCH   7  13
BRANCH  11  24
HETATM   24  N   UNL     1       6.500  28.755  57.309  1.00  0.00    -0.282 NA
HETATM   25  H   UNL     1       6.690  28.108  58.072  1.00  0.00     0.126 HD
HETATM   26  H   UNL     1       5.930  28.342  56.576  1.00  0.00     0.126 HD
ENDBRANCH  11  24
BRANCH   1  27
HETATM   27  C   UNL     1       4.159  35.032  58.308  1.00  0.00    -0.005 A 
HETATM   28  C   UNL     1       3.931  35.331  59.658  1.00  0.00     0.014 A 
HETATM   29  C   UNL     1       4.013  36.644  60.126  1.00  0.00     0.008 A 
HETATM   30  C   UNL     1       4.329  37.690  59.251  1.00  0.00    -0.058 A 
HETATM   31  C   UNL     1       4.558  37.396  57.902  1.00  0.00     0.008 A 
HETATM   32  C   UNL     1       4.462  36.080  57.431  1.00  0.00     0.014 A 
BRANCH  30  33
HETATM   33  C   UNL     1       4.411  39.111  59.755  1.00  0.00     0.042 C 
BRANCH  33  34
HETATM   34  C   UNL     1       5.110  39.248  61.121  1.00  0.00    -0.019 C 
HETATM   35  C   UNL     1       4.692  40.523  61.859  1.00  0.00     0.010 C 
HETATM   36  C   UNL     1       6.629  39.246  60.925  1.00  0.00     0.010 C 
ENDBRANCH  33  34
ENDBRANCH  30  33
ENDBRANCH   1  27
TORSDOF 6
ENDMDL
MODEL 9
REMARK VINA RESULT:      -7.0     14.920     18.294
REMARK  6 active torsions:
REMARK  status: ('A' for Active; 'I' for Inactive)
REMARK    1  A    between atoms: C_2  and  C_3 
REMARK    2  A    between atoms: C_3  and  C_4 
REMARK    3  A    between atoms: C_7  and  C_8 
REMARK    4  A    between atoms: C_14  and  C_15 
REMARK    5  A    between atoms: C_18  and  N_19 
REMARK       I    between atoms: N_19  and  C_20 
REMARK    6  A    between atoms: C_28  and  N_29 
ROOT
HETATM    1  C   UNL     1      22.345  28.528  50.706  1.00  0.00     0.099 A 
HETATM    2  N   UNL     1      22.093  27.465  51.499  1.00  0.00    -0.172 NA
HETATM    3  N   UNL     1      22.535  27.824  52.715  1.00  0.00    -0.256 N 
HETATM    4  H   UNL     1      22.458  27.163  53.480  1.00  0.00     0.191 HD
HETATM    5  C   UNL     1      23.058  29.072  52.734  1.00  0.00     0.175 A 
HETATM    6  C   UNL     1      22.935  29.581  51.464  1.00  0.00     0.040 A 
HETATM    7  C   UNL     1      23.399  30.974  51.186  1.00  0.00     0.105 C 
HETATM    8  C   UNL     1      24.177  31.514  52.387  1.00  0.00     0.067 C 
HETATM    9  C   UNL     1      25.054  32.736  52.165  1.00  0.00     0.020 C 
HETATM   10  N   UNL     1      25.783  33.747  51.981  1.00  0.00    -0.096 N 
HETATM   11  C   UNL     1      24.240  30.874  53.587  1.00  0.00     0.139 C 
HETATM   12  O   UNL     1      23.587  29.650  53.806  1.00  0.00    -0.279 OA
ENDROOT
BRANCH   7  13
HETATM   13  C   UNL     1      22.135  31.769  50.888  1.00  0.00    -0.044 A 
HETATM   14  C   UNL     1      21.089  31.887  51.820  1.00  0.00     0.010 A 
HETATM   15  C   UNL     1      19.912  32.578  51.507  1.00  0.00     0.030 A 
HETATM   16  C   UNL     1      19.752  33.173  50.258  1.00  0.00     0.034 A 
HETATM   17  C   UNL     1      20.798  33.083  49.332  1.00  0.00     0.030 A 
HETATM   18  C   UNL     1      21.976  32.394  49.643  1.00  0.00     0.010 A 
BRANCH  16  19
HETATM   19  N   UNL     1      18.585  33.853  49.853  1.00  0.00    -0.328 N 
HETATM   20  C   UNL     1      18.290  35.194  50.025  1.00  0.00     0.218 C 
HETATM   21  C   UNL     1      16.917  35.544  49.506  1.00  0.00     0.117 C 
HETATM   22  O   UNL     1      19.015  36.056  50.506  1.00  0.00    -0.274 OA
HETATM   23  H   UNL     1      17.883  33.287  49.393  1.00  0.00     0.169 HD
ENDBRANCH  16  19
ENDBRANCH   7  13
BRANCH  11  24
HETATM   24  N   UNL     1      24.941  31.307  54.690  1.00  0.00    -0.282 NA
HETATM   25  H   UNL     1      25.237  30.579  55.336  1.00  0.00     0.126 HD
HETATM   26  H   UNL     1      25.696  31.939  54.437  1.00  0.00     0.126 HD
ENDBRANCH  11  24
BRANCH   1  27
HETATM   27  C   UNL     1      21.997  28.477  49.286  1.00  0.00    -0.005 A 
HETATM   28  C   UNL     1      20.700  28.816  48.878  1.00  0.00     0.014 A 
HETATM   29  C   UNL     1      20.329  28.748  47.533  1.00  0.00     0.008 A 
HETATM   30  C   UNL     1      21.253  28.341  46.564  1.00  0.00    -0.058 A 
HETATM   31  C   UNL     1      22.549  28.001  46.966  1.00  0.00     0.008 A 
HETATM   32  C   UNL     1      22.916  28.057  48.317  1.00  0.00     0.014 A 
BRANCH  30  33
HETATM   33  C   UNL     1      20.851  28.260  45.110  1.00  0.00     0.042 C 
BRANCH  33  34
HETATM   34  C   UNL     1      19.331  28.130  44.891  1.00  0.00    -0.019 C 
HETATM   35  C   UNL     1      18.962  26.844  44.146  1.00  0.00     0.010 C 
HETATM   36  C   UNL     1      18.818  29.340  44.105  1.00  0.00     0.010 C 
ENDBRANCH  33  34
ENDBRANCH  30  33
ENDBRANCH   1  27
TORSDOF 6
ENDMDL
MODEL 10
REMARK VINA RESULT:      -6.9      5.874      7.977
REMARK  6 active torsions:
REMARK  status: ('A' for Active; 'I' for Inactive)
REMARK    1  A    between atoms: C_2  and  C_3 
REMARK    2  A    between atoms: C_3  and  C_4 
REMARK    3  A    between atoms: C_7  and  C_8 
REMARK    4  A    between atoms: C_14  and  C_15 
REMARK    5  A    between atoms: C_18  and  N_19 
REMARK       I    between atoms: N_19  and  C_20 
REMARK    6  A    between atoms: C_28  and  N_29 
ROOT
HETATM    1  C   UNL     1       5.377  27.372  52.309  1.00  0.00     0.099 A 
HETATM    2  N   UNL     1       6.249  26.347  52.201  1.00  0.00    -0.172 NA
HETATM    3  N   UNL     1       6.128  25.918  50.935  1.00  0.00    -0.256 N 
HETATM    4  H   UNL     1       6.690  25.132  50.627  1.00  0.00     0.191 HD
HETATM    5  C   UNL     1       5.217  26.625  50.227  1.00  0.00     0.175 A 
HETATM    6  C   UNL     1       4.721  27.595  51.064  1.00  0.00     0.040 A 
HETATM    7  C   UNL     1       3.710  28.564  50.542  1.00  0.00     0.105 C 
HETATM    8  C   UNL     1       3.225  28.119  49.161  1.00  0.00     0.067 C 
HETATM    9  C   UNL     1       1.936  28.733  48.638  1.00  0.00     0.020 C 
HETATM   10  N   UNL     1       0.867  29.240  48.204  1.00  0.00    -0.096 N 
HETATM   11  C   UNL     1       3.799  27.105  48.458  1.00  0.00     0.139 C 
HETATM   12  O   UNL     1       4.892  26.382  48.963  1.00  0.00    -0.279 OA
ENDROOT
BRANCH   7  13
HETATM   13  C   UNL     1       4.417  29.913  50.520  1.00  0.00    -0.044 A 
HETATM   14  C   UNL     1       4.023  30.977  51.349  1.00  0.00     0.010 A 
HETATM   15  C   UNL     1       4.651  32.226  51.276  1.00  0.00     0.030 A 
HETATM   16  C   UNL     1       5.692  32.443  50.376  1.00  0.00     0.034 A 
HETATM   17  C   UNL     1       6.109  31.382  49.563  1.00  0.00     0.030 A 
HETATM   18  C   UNL     1       5.483  30.131  49.636  1.00  0.00     0.010 A 
BRANCH  16  19
HETATM   19  N   UNL     1       6.350  33.679  50.215  1.00  0.00    -0.328 N 
HETATM   20  C   UNL     1       6.164  34.605  49.203  1.00  0.00     0.218 C 
HETATM   21  C   UNL     1       7.091  35.788  49.337  1.00  0.00     0.117 C 
HETATM   22  O   UNL     1       5.347  34.552  48.291  1.00  0.00    -0.274 OA
HETATM   23  H   UNL     1       7.043  33.906  50.916  1.00  0.00     0.169 HD
ENDBRANCH  16  19
ENDBRANCH   7  13
BRANCH  11  24
HETATM   24  N   UNL     1       3.388  26.654  47.224  1.00  0.00    -0.282 NA
HETATM   25  H   UNL     1       2.390  26.480  47.129  1.00  0.00     0.126 HD
HETATM   26  H   UNL     1       3.762  27.222  46.468  1.00  0.00     0.126 HD
ENDBRANCH  11  24
BRANCH   1  27
HETATM   27  C   UNL     1       5.236  28.078  53.583  1.00  0.00    -0.005 A 
HETATM   28  C   UNL     1       6.374  28.351  54.354  1.00  0.00     0.014 A 
HETATM   29  C   UNL     1       6.267  28.996  55.588  1.00  0.00     0.008 A 
HETATM   30  C   UNL     1       5.015  29.386  56.078  1.00  0.00    -0.058 A 
HETATM   31  C   UNL     1       3.876  29.115  55.311  1.00  0.00     0.008 A 
HETATM   32  C   UNL     1       3.983  28.456  54.080  1.00  0.00     0.014 A 
BRANCH  30  33
HETATM   33  C   UNL     1       4.898  30.077  57.416  1.00  0.00     0.042 C 
BRANCH  33  34
HETATM   34  C   UNL     1       5.681  31.401  57.503  1.00  0.00    -0.019 C 
HETATM   35  C   UNL     1       5.838  31.886  58.947  1.00  0.00     0.010 C 
HETATM   36  C   UNL     1       4.968  32.477  56.678  1.00  0.00     0.010 C 
ENDBRANCH  33  34
ENDBRANCH  30  33
ENDBRANCH   1  27
TORSDOF 6
ENDMDL
