MODEL 1
REMARK VINA RESULT:      -9.7      0.000      0.000
REMARK  8 active torsions:
REMARK  status: ('A' for Active; 'I' for Inactive)
REMARK    1  A    between atoms: C_6  and  N_7 
REMARK    2  A    between atoms: N_7  and  C_8 
REMARK    3  A    between atoms: C_8  and  N_9 
REMARK    4  A    between atoms: N_9  and  C_10 
REMARK    5  A    between atoms: N_9  and  C_25 
REMARK    6  A    between atoms: C_10  and  C_11 
REMARK    7  A    between atoms: C_25  and  C_26 
REMARK    8  A    between atoms: C_26  and  N_27 
ROOT
HETATM    1  N   UNL     1       6.491  28.769  56.503  1.00  0.00    -0.352 N 
ENDROOT
BRANCH   1   2
HETATM    2  C   UNL     1       5.572  28.880  55.482  1.00  0.00     0.174 C 
HETATM    3  S   UNL     1       3.947  29.124  55.818  1.00  0.00    -0.041 SA
BRANCH   2   4
HETATM    4  N   UNL     1       5.969  29.078  54.200  1.00  0.00    -0.333 N 
HETATM    5  H   UNL     1       6.368  30.004  54.050  1.00  0.00     0.168 HD
BRANCH   4   6
HETATM    6  C   UNL     1       5.640  28.410  53.002  1.00  0.00     0.035 A 
HETATM    7  C   UNL     1       5.379  27.038  53.094  1.00  0.00     0.053 A 
HETATM    8  C   UNL     1       5.050  26.306  51.952  1.00  0.00     0.036 A 
HETATM    9  C   UNL     1       5.003  26.924  50.707  1.00  0.00     0.024 A 
HETATM   10 CL   UNL     1       4.695  24.629  52.093  1.00  0.00    -0.084 Cl
HETATM   11  C   UNL     1       5.299  28.281  50.603  1.00  0.00     0.004 A 
HETATM   12  C   UNL     1       5.624  29.019  51.746  1.00  0.00     0.029 A 
ENDBRANCH   4   6
ENDBRANCH   2   4
ENDBRANCH   1   2
BRANCH   1  13
HETATM   13  C   UNL     1       7.771  28.089  56.200  1.00  0.00     0.169 C 
BRANCH  13  14
HETATM   14  C   UNL     1       7.661  26.591  56.120  1.00  0.00     0.029 A 
HETATM   15  C   UNL     1       7.770  25.823  57.398  1.00  0.00     0.253 A 
HETATM   16  O   UNL     1       7.750  26.388  58.489  1.00  0.00    -0.268 OA
HETATM   17  N   UNL     1       7.874  24.463  57.319  1.00  0.00    -0.322 N 
HETATM   18  C   UNL     1       7.878  23.750  56.115  1.00  0.00     0.048 A 
HETATM   19  H   UNL     1       7.985  23.967  58.195  1.00  0.00     0.169 HD
HETATM   20  C   UNL     1       7.748  24.462  54.904  1.00  0.00    -0.006 A 
HETATM   21  C   UNL     1       8.018  22.362  56.132  1.00  0.00     0.070 A 
HETATM   22  C   UNL     1       7.756  23.773  53.685  1.00  0.00     0.053 A 
HETATM   23  C   UNL     1       7.663  25.923  54.952  1.00  0.00     0.028 A 
HETATM   24  C   UNL     1       7.899  22.401  53.727  1.00  0.00     0.106 A 
HETATM   25  C   UNL     1       8.029  21.718  54.914  1.00  0.00     0.107 A 
HETATM   26  O   UNL     1       7.943  21.575  52.647  1.00  0.00    -0.323 OA
HETATM   27  O   UNL     1       8.170  20.377  54.728  1.00  0.00    -0.323 OA
HETATM   28  C   UNL     1       8.141  20.295  53.286  1.00  0.00     0.352 A 
ENDBRANCH  13  14
ENDBRANCH   1  13
BRANCH   1  29
HETATM   29  C   UNL     1       6.497  29.674  57.675  1.00  0.00     0.153 C 
BRANCH  29  30
HETATM   30  C   UNL     1       7.850  29.839  58.391  1.00  0.00     0.254 C 
BRANCH  30  31
HETATM   31  N   UNL     1       7.707  30.463  59.766  1.00  0.00    -0.066 N 
HETATM   32  H   UNL     1       7.129  29.820  60.329  1.00  0.00     0.280 HD
HETATM   33  C   UNL     1       9.024  30.615  60.518  1.00  0.00     0.261 C 
HETATM   34  C   UNL     1       8.757  31.260  61.884  1.00  0.00     0.195 C 
HETATM   35  O   UNL     1       8.103  32.526  61.735  1.00  0.00    -0.388 OA
HETATM   36  C   UNL     1       6.828  32.387  61.100  1.00  0.00     0.195 C 
HETATM   37  C   UNL     1       6.981  31.799  59.695  1.00  0.00     0.261 C 
ENDBRANCH  30  31
ENDBRANCH  29  30
ENDBRANCH   1  29
TORSDOF 8
ENDMDL
MODEL 2
REMARK VINA RESULT:      -9.7      2.742      6.502
REMARK  8 active torsions:
REMARK  status: ('A' for Active; 'I' for Inactive)
REMARK    1  A    between atoms: C_6  and  N_7 
REMARK    2  A    between atoms: N_7  and  C_8 
REMARK    3  A    between atoms: C_8  and  N_9 
REMARK    4  A    between atoms: N_9  and  C_10 
REMARK    5  A    between atoms: N_9  and  C_25 
REMARK    6  A    between atoms: C_10  and  C_11 
REMARK    7  A    between atoms: C_25  and  C_26 
REMARK    8  A    between atoms: C_26  and  N_27 
ROOT
HETATM    1  N   UNL     1       6.148  28.469  56.106  1.00  0.00    -0.352 N 
ENDROOT
BRANCH   1   2
HETATM    2  C   UNL     1       6.054  29.341  57.169  1.00  0.00     0.174 C 
HETATM    3  S   UNL     1       4.672  30.263  57.400  1.00  0.00    -0.041 SA
BRANCH   2   4
HETATM    4  N   UNL     1       6.930  29.281  58.204  1.00  0.00    -0.333 N 
HETATM    5  H   UNL     1       6.673  28.580  58.898  1.00  0.00     0.168 HD
BRANCH   4   6
HETATM    6  C   UNL     1       7.901  30.195  58.666  1.00  0.00     0.035 A 
HETATM    7  C   UNL     1       7.604  30.890  59.844  1.00  0.00     0.053 A 
HETATM    8  C   UNL     1       8.511  31.816  60.362  1.00  0.00     0.036 A 
HETATM    9  C   UNL     1       9.708  32.076  59.702  1.00  0.00     0.024 A 
HETATM   10 CL   UNL     1       8.145  32.631  61.831  1.00  0.00    -0.084 Cl
HETATM   11  C   UNL     1       9.992  31.414  58.509  1.00  0.00     0.004 A 
HETATM   12  C   UNL     1       9.086  30.484  57.990  1.00  0.00     0.029 A 
ENDBRANCH   4   6
ENDBRANCH   2   4
ENDBRANCH   1   2
BRANCH   1  13
HETATM   13  C   UNL     1       7.483  27.909  55.796  1.00  0.00     0.169 C 
BRANCH  13  14
HETATM   14  C   UNL     1       7.547  26.408  55.879  1.00  0.00     0.029 A 
HETATM   15  C   UNL     1       7.772  25.802  57.227  1.00  0.00     0.253 A 
HETATM   16  O   UNL     1       7.709  26.476  58.251  1.00  0.00    -0.268 OA
HETATM   17  N   UNL     1       8.032  24.461  57.288  1.00  0.00    -0.322 N 
HETATM   18  C   UNL     1       8.094  23.627  56.166  1.00  0.00     0.048 A 
HETATM   19  H   UNL     1       8.220  24.080  58.207  1.00  0.00     0.169 HD
HETATM   20  C   UNL     1       7.857  24.183  54.892  1.00  0.00    -0.006 A 
HETATM   21  C   UNL     1       8.397  22.273  56.325  1.00  0.00     0.070 A 
HETATM   22  C   UNL     1       7.919  23.371  53.753  1.00  0.00     0.053 A 
HETATM   23  C   UNL     1       7.602  25.621  54.788  1.00  0.00     0.028 A 
HETATM   24  C   UNL     1       8.223  22.037  53.935  1.00  0.00     0.106 A 
HETATM   25  C   UNL     1       8.457  21.506  55.182  1.00  0.00     0.107 A 
HETATM   26  O   UNL     1       8.340  21.109  52.948  1.00  0.00    -0.323 OA
HETATM   27  O   UNL     1       8.750  20.178  55.134  1.00  0.00    -0.323 OA
HETATM   28  C   UNL     1       8.700  19.937  53.711  1.00  0.00     0.352 A 
ENDBRANCH  13  14
ENDBRANCH   1  13
BRANCH   1  29
HETATM   29  C   UNL     1       4.988  27.704  55.596  1.00  0.00     0.153 C 
BRANCH  29  30
HETATM   30  C   UNL     1       4.390  28.196  54.264  1.00  0.00     0.254 C 
BRANCH  30  31
HETATM   31  N   UNL     1       5.014  27.515  53.061  1.00  0.00    -0.066 N 
HETATM   32  H   UNL     1       6.037  27.591  53.170  1.00  0.00     0.280 HD
HETATM   33  C   UNL     1       4.709  26.026  52.963  1.00  0.00     0.261 C 
HETATM   34  C   UNL     1       5.382  25.450  51.710  1.00  0.00     0.195 C 
HETATM   35  O   UNL     1       4.949  26.140  50.532  1.00  0.00    -0.388 OA
HETATM   36  C   UNL     1       5.299  27.527  50.576  1.00  0.00     0.195 C 
HETATM   37  C   UNL     1       4.632  28.220  51.767  1.00  0.00     0.261 C 
ENDBRANCH  30  31
ENDBRANCH  29  30
ENDBRANCH   1  29
TORSDOF 8
ENDMDL
MODEL 3
REMARK VINA RESULT:      -9.6      3.063      5.776
REMARK  8 active torsions:
REMARK  status: ('A' for Active; 'I' for Inactive)
REMARK    1  A    between atoms: C_6  and  N_7 
REMARK    2  A    between atoms: N_7  and  C_8 
REMARK    3  A    between atoms: C_8  and  N_9 
REMARK    4  A    between atoms: N_9  and  C_10 
REMARK    5  A    between atoms: N_9  and  C_25 
REMARK    6  A    between atoms: C_10  and  C_11 
REMARK    7  A    between atoms: C_25  and  C_26 
REMARK    8  A    between atoms: C_26  and  N_27 
ROOT
HETATM    1  N   UNL     1       6.916  26.582  56.524  1.00  0.00    -0.352 N 
ENDROOT
BRANCH   1   2
HETATM    2  C   UNL     1       7.430  25.305  56.471  1.00  0.00     0.174 C 
HETATM    3  S   UNL     1       8.691  24.848  57.478  1.00  0.00    -0.041 SA
BRANCH   2   4
HETATM    4  N   UNL     1       6.771  24.310  55.825  1.00  0.00    -0.333 N 
HETATM    5  H   UNL     1       5.847  24.130  56.218  1.00  0.00     0.168 HD
BRANCH   4   6
HETATM    6  C   UNL     1       7.225  23.283  54.972  1.00  0.00     0.035 A 
HETATM    7  C   UNL     1       7.635  22.091  55.580  1.00  0.00     0.053 A 
HETATM    8  C   UNL     1       8.102  21.029  54.804  1.00  0.00     0.036 A 
HETATM    9  C   UNL     1       8.189  21.151  53.421  1.00  0.00     0.024 A 
HETATM   10 CL   UNL     1       8.565  19.560  55.567  1.00  0.00    -0.084 Cl
HETATM   11  C   UNL     1       7.817  22.348  52.813  1.00  0.00     0.004 A 
HETATM   12  C   UNL     1       7.345  23.412  53.588  1.00  0.00     0.029 A 
ENDBRANCH   4   6
ENDBRANCH   2   4
ENDBRANCH   1   2
BRANCH   1  13
HETATM   13  C   UNL     1       5.572  26.804  55.942  1.00  0.00     0.169 C 
BRANCH  13  14
HETATM   14  C   UNL     1       5.598  27.378  54.552  1.00  0.00     0.029 A 
HETATM   15  C   UNL     1       5.529  28.866  54.420  1.00  0.00     0.253 A 
HETATM   16  O   UNL     1       5.646  29.602  55.397  1.00  0.00    -0.268 OA
HETATM   17  N   UNL     1       5.349  29.388  53.170  1.00  0.00    -0.322 N 
HETATM   18  C   UNL     1       5.232  28.613  52.011  1.00  0.00     0.048 A 
HETATM   19  H   UNL     1       5.266  30.395  53.110  1.00  0.00     0.169 HD
HETATM   20  C   UNL     1       5.323  27.210  52.120  1.00  0.00    -0.006 A 
HETATM   21  C   UNL     1       5.020  29.236  50.780  1.00  0.00     0.070 A 
HETATM   22  C   UNL     1       5.203  26.412  50.975  1.00  0.00     0.053 A 
HETATM   23  C   UNL     1       5.488  26.616  53.448  1.00  0.00     0.028 A 
HETATM   24  C   UNL     1       4.991  27.050  49.771  1.00  0.00     0.106 A 
HETATM   25  C   UNL     1       4.900  28.419  49.677  1.00  0.00     0.107 A 
HETATM   26  O   UNL     1       4.837  26.438  48.566  1.00  0.00    -0.323 OA
HETATM   27  O   UNL     1       4.677  28.838  48.402  1.00  0.00    -0.323 OA
HETATM   28  C   UNL     1       4.612  27.575  47.704  1.00  0.00     0.352 A 
ENDBRANCH  13  14
ENDBRANCH   1  13
BRANCH   1  29
HETATM   29  C   UNL     1       7.368  27.585  57.515  1.00  0.00     0.153 C 
BRANCH  29  30
HETATM   30  C   UNL     1       8.529  28.494  57.071  1.00  0.00     0.254 C 
BRANCH  30  31
HETATM   31  N   UNL     1       8.823  29.593  58.075  1.00  0.00    -0.066 N 
HETATM   32  H   UNL     1       9.159  29.132  58.935  1.00  0.00     0.280 HD
HETATM   33  C   UNL     1       9.932  30.544  57.646  1.00  0.00     0.261 C 
HETATM   34  C   UNL     1      10.135  31.611  58.730  1.00  0.00     0.195 C 
HETATM   35  O   UNL     1       8.918  32.324  58.983  1.00  0.00    -0.388 OA
HETATM   36  C   UNL     1       7.888  31.452  59.462  1.00  0.00     0.195 C 
HETATM   37  C   UNL     1       7.564  30.372  58.428  1.00  0.00     0.261 C 
ENDBRANCH  30  31
ENDBRANCH  29  30
ENDBRANCH   1  29
TORSDOF 8
ENDMDL
MODEL 4
REMARK VINA RESULT:      -9.3      3.035      8.633
REMARK  8 active torsions:
REMARK  status: ('A' for Active; 'I' for Inactive)
REMARK    1  A    between atoms: C_6  and  N_7 
REMARK    2  A    between atoms: N_7  and  C_8 
REMARK    3  A    between atoms: C_8  and  N_9 
REMARK    4  A    between atoms: N_9  and  C_10 
REMARK    5  A    between atoms: N_9  and  C_25 
REMARK    6  A    between atoms: C_10  and  C_11 
REMARK    7  A    between atoms: C_25  and  C_26 
REMARK    8  A    between atoms: C_26  and  N_27 
ROOT
HETATM    1  N   UNL     1       6.707  27.129  54.657  1.00  0.00    -0.352 N 
ENDROOT
BRANCH   1   2
HETATM    2  C   UNL     1       6.778  26.088  55.557  1.00  0.00     0.174 C 
HETATM    3  S   UNL     1       5.483  25.738  56.563  1.00  0.00    -0.041 SA
BRANCH   2   4
HETATM    4  N   UNL     1       7.757  25.153  55.470  1.00  0.00    -0.333 N 
HETATM    5  H   UNL     1       8.680  25.526  55.688  1.00  0.00     0.168 HD
BRANCH   4   6
HETATM    6  C   UNL     1       7.800  23.896  54.831  1.00  0.00     0.035 A 
HETATM    7  C   UNL     1       7.840  22.767  55.658  1.00  0.00     0.053 A 
HETATM    8  C   UNL     1       7.889  21.488  55.101  1.00  0.00     0.036 A 
HETATM    9  C   UNL     1       7.923  21.321  53.721  1.00  0.00     0.024 A 
HETATM   10 CL   UNL     1       7.899  20.114  56.134  1.00  0.00    -0.084 Cl
HETATM   11  C   UNL     1       7.922  22.442  52.893  1.00  0.00     0.004 A 
HETATM   12  C   UNL     1       7.869  23.724  53.448  1.00  0.00     0.029 A 
ENDBRANCH   4   6
ENDBRANCH   2   4
ENDBRANCH   1   2
BRANCH   1  13
HETATM   13  C   UNL     1       7.563  28.311  54.908  1.00  0.00     0.169 C 
BRANCH  13  14
HETATM   14  C   UNL     1       7.173  29.097  56.129  1.00  0.00     0.029 A 
HETATM   15  C   UNL     1       5.979  29.991  56.021  1.00  0.00     0.253 A 
HETATM   16  O   UNL     1       5.229  29.943  55.049  1.00  0.00    -0.268 OA
HETATM   17  N   UNL     1       5.734  30.857  57.050  1.00  0.00    -0.322 N 
HETATM   18  C   UNL     1       6.530  30.949  58.197  1.00  0.00     0.048 A 
HETATM   19  H   UNL     1       4.944  31.479  56.937  1.00  0.00     0.169 HD
HETATM   20  C   UNL     1       7.643  30.091  58.323  1.00  0.00    -0.006 A 
HETATM   21  C   UNL     1       6.217  31.886  59.184  1.00  0.00     0.070 A 
HETATM   22  C   UNL     1       8.459  30.168  59.458  1.00  0.00     0.053 A 
HETATM   23  C   UNL     1       7.950  29.171  57.226  1.00  0.00     0.028 A 
HETATM   24  C   UNL     1       8.131  31.104  60.418  1.00  0.00     0.106 A 
HETATM   25  C   UNL     1       7.046  31.938  60.283  1.00  0.00     0.107 A 
HETATM   26  O   UNL     1       8.815  31.328  61.572  1.00  0.00    -0.323 OA
HETATM   27  O   UNL     1       6.913  32.790  61.336  1.00  0.00    -0.323 OA
HETATM   28  C   UNL     1       8.053  32.417  62.138  1.00  0.00     0.352 A 
ENDBRANCH  13  14
ENDBRANCH   1  13
BRANCH   1  29
HETATM   29  C   UNL     1       6.239  26.951  53.263  1.00  0.00     0.153 C 
BRANCH  29  30
HETATM   30  C   UNL     1       4.733  26.686  53.087  1.00  0.00     0.254 C 
BRANCH  30  31
HETATM   31  N   UNL     1       4.251  26.983  51.680  1.00  0.00    -0.066 N 
HETATM   32  H   UNL     1       3.260  26.700  51.635  1.00  0.00     0.280 HD
HETATM   33  C   UNL     1       4.284  28.461  51.313  1.00  0.00     0.261 C 
HETATM   34  C   UNL     1       3.785  28.639  49.873  1.00  0.00     0.195 C 
HETATM   35  O   UNL     1       4.572  27.867  48.958  1.00  0.00    -0.388 OA
HETATM   36  C   UNL     1       4.487  26.467  49.244  1.00  0.00     0.195 C 
HETATM   37  C   UNL     1       5.015  26.165  50.649  1.00  0.00     0.261 C 
ENDBRANCH  30  31
ENDBRANCH  29  30
ENDBRANCH   1  29
TORSDOF 8
ENDMDL
MODEL 5
REMARK VINA RESULT:      -9.2      3.245      6.122
REMARK  8 active torsions:
REMARK  status: ('A' for Active; 'I' for Inactive)
REMARK    1  A    between atoms: C_6  and  N_7 
REMARK    2  A    between atoms: N_7  and  C_8 
REMARK    3  A    between atoms: C_8  and  N_9 
REMARK    4  A    between atoms: N_9  and  C_10 
REMARK    5  A    between atoms: N_9  and  C_25 
REMARK    6  A    between atoms: C_10  and  C_11 
REMARK    7  A    between atoms: C_25  and  C_26 
REMARK    8  A    between atoms: C_26  and  N_27 
ROOT
HETATM    1  N   UNL     1       6.645  27.140  55.337  1.00  0.00    -0.352 N 
ENDROOT
BRANCH   1   2
HETATM    2  C   UNL     1       6.979  25.950  55.947  1.00  0.00     0.174 C 
HETATM    3  S   UNL     1       5.973  25.269  57.103  1.00  0.00    -0.041 SA
BRANCH   2   4
HETATM    4  N   UNL     1       7.962  25.158  55.447  1.00  0.00    -0.333 N 
HETATM    5  H   UNL     1       8.836  25.660  55.301  1.00  0.00     0.168 HD
BRANCH   4   6
HETATM    6  C   UNL     1       7.918  23.909  54.793  1.00  0.00     0.035 A 
HETATM    7  C   UNL     1       7.958  22.769  55.605  1.00  0.00     0.053 A 
HETATM    8  C   UNL     1       7.924  21.497  55.033  1.00  0.00     0.036 A 
HETATM    9  C   UNL     1       7.875  21.346  53.651  1.00  0.00     0.024 A 
HETATM   10 CL   UNL     1       7.936  20.110  56.049  1.00  0.00    -0.084 Cl
HETATM   11  C   UNL     1       7.873  22.476  52.836  1.00  0.00     0.004 A 
HETATM   12  C   UNL     1       7.903  23.753  53.407  1.00  0.00     0.029 A 
ENDBRANCH   4   6
ENDBRANCH   2   4
ENDBRANCH   1   2
BRANCH   1  13
HETATM   13  C   UNL     1       5.224  27.348  54.977  1.00  0.00     0.169 C 
BRANCH  13  14
HETATM   14  C   UNL     1       4.944  27.220  53.505  1.00  0.00     0.029 A 
HETATM   15  C   UNL     1       4.804  25.839  52.948  1.00  0.00     0.253 A 
HETATM   16  O   UNL     1       4.720  24.858  53.682  1.00  0.00    -0.268 OA
HETATM   17  N   UNL     1       4.752  25.701  51.590  1.00  0.00    -0.322 N 
HETATM   18  C   UNL     1       4.816  26.774  50.694  1.00  0.00     0.048 A 
HETATM   19  H   UNL     1       4.696  24.754  51.234  1.00  0.00     0.169 HD
HETATM   20  C   UNL     1       4.921  28.083  51.208  1.00  0.00    -0.006 A 
HETATM   21  C   UNL     1       4.784  26.532  49.319  1.00  0.00     0.070 A 
HETATM   22  C   UNL     1       4.993  29.173  50.333  1.00  0.00     0.053 A 
HETATM   23  C   UNL     1       5.007  28.265  52.658  1.00  0.00     0.028 A 
HETATM   24  C   UNL     1       4.963  28.909  48.979  1.00  0.00     0.106 A 
HETATM   25  C   UNL     1       4.865  27.628  48.488  1.00  0.00     0.107 A 
HETATM   26  O   UNL     1       5.038  29.838  47.988  1.00  0.00    -0.323 OA
HETATM   27  O   UNL     1       4.865  27.592  47.128  1.00  0.00    -0.323 OA
HETATM   28  C   UNL     1       5.001  28.995  46.815  1.00  0.00     0.352 A 
ENDBRANCH  13  14
ENDBRANCH   1  13
BRANCH   1  29
HETATM   29  C   UNL     1       7.468  28.363  55.467  1.00  0.00     0.153 C 
BRANCH  29  30
HETATM   30  C   UNL     1       8.500  28.364  56.610  1.00  0.00     0.254 C 
BRANCH  30  31
HETATM   31  N   UNL     1       8.651  29.728  57.256  1.00  0.00    -0.066 N 
HETATM   32  H   UNL     1       8.337  30.425  56.563  1.00  0.00     0.280 HD
HETATM   33  C   UNL     1       7.776  29.932  58.486  1.00  0.00     0.261 C 
HETATM   34  C   UNL     1       8.018  31.337  59.054  1.00  0.00     0.195 C 
HETATM   35  O   UNL     1       9.402  31.530  59.372  1.00  0.00    -0.388 OA
HETATM   36  C   UNL     1      10.228  31.419  58.209  1.00  0.00     0.195 C 
HETATM   37  C   UNL     1      10.107  30.026  57.586  1.00  0.00     0.261 C 
ENDBRANCH  30  31
ENDBRANCH  29  30
ENDBRANCH   1  29
TORSDOF 8
ENDMDL
MODEL 6
REMARK VINA RESULT:      -9.1      3.046      5.577
REMARK  8 active torsions:
REMARK  status: ('A' for Active; 'I' for Inactive)
REMARK    1  A    between atoms: C_6  and  N_7 
REMARK    2  A    between atoms: N_7  and  C_8 
REMARK    3  A    between atoms: C_8  and  N_9 
REMARK    4  A    between atoms: N_9  and  C_10 
REMARK    5  A    between atoms: N_9  and  C_25 
REMARK    6  A    between atoms: C_10  and  C_11 
REMARK    7  A    between atoms: C_25  and  C_26 
REMARK    8  A    between atoms: C_26  and  N_27 
ROOT
HETATM    1  N   UNL     1       5.871  28.058  56.196  1.00  0.00    -0.352 N 
ENDROOT
BRANCH   1   2
HETATM    2  C   UNL     1       6.293  26.753  56.330  1.00  0.00     0.174 C 
HETATM    3  S   UNL     1       5.290  25.596  57.014  1.00  0.00    -0.041 SA
BRANCH   2   4
HETATM    4  N   UNL     1       7.392  26.301  55.674  1.00  0.00    -0.333 N 
HETATM    5  H   UNL     1       8.219  26.866  55.856  1.00  0.00     0.168 HD
BRANCH   4   6
HETATM    6  C   UNL     1       7.535  25.440  54.566  1.00  0.00     0.035 A 
HETATM    7  C   UNL     1       7.572  24.067  54.832  1.00  0.00     0.053 A 
HETATM    8  C   UNL     1       7.717  23.151  53.789  1.00  0.00     0.036 A 
HETATM    9  C   UNL     1       7.849  23.593  52.476  1.00  0.00     0.024 A 
HETATM   10 CL   UNL     1       7.722  21.467  54.133  1.00  0.00    -0.084 Cl
HETATM   11  C   UNL     1       7.851  24.960  52.209  1.00  0.00     0.004 A 
HETATM   12  C   UNL     1       7.702  25.880  53.252  1.00  0.00     0.029 A 
ENDBRANCH   4   6
ENDBRANCH   2   4
ENDBRANCH   1   2
BRANCH   1  13
HETATM   13  C   UNL     1       4.474  28.284  55.758  1.00  0.00     0.169 C 
BRANCH  13  14
HETATM   14  C   UNL     1       4.335  28.559  54.286  1.00  0.00     0.029 A 
HETATM   15  C   UNL     1       3.540  29.759  53.881  1.00  0.00     0.253 A 
HETATM   16  O   UNL     1       3.182  30.597  54.704  1.00  0.00    -0.268 OA
HETATM   17  N   UNL     1       3.238  29.907  52.557  1.00  0.00    -0.322 N 
HETATM   18  C   UNL     1       3.633  29.007  51.561  1.00  0.00     0.048 A 
HETATM   19  H   UNL     1       2.666  30.706  52.311  1.00  0.00     0.169 HD
HETATM   20  C   UNL     1       4.407  27.885  51.927  1.00  0.00    -0.006 A 
HETATM   21  C   UNL     1       3.251  29.227  50.237  1.00  0.00     0.070 A 
HETATM   22  C   UNL     1       4.810  26.967  50.951  1.00  0.00     0.053 A 
HETATM   23  C   UNL     1       4.725  27.682  53.342  1.00  0.00     0.028 A 
HETATM   24  C   UNL     1       4.417  27.204  49.649  1.00  0.00     0.106 A 
HETATM   25  C   UNL     1       3.659  28.298  49.304  1.00  0.00     0.107 A 
HETATM   26  O   UNL     1       4.703  26.414  48.579  1.00  0.00    -0.323 OA
HETATM   27  O   UNL     1       3.374  28.333  47.974  1.00  0.00    -0.323 OA
HETATM   28  C   UNL     1       4.017  27.121  47.523  1.00  0.00     0.352 A 
ENDBRANCH  13  14
ENDBRANCH   1  13
BRANCH   1  29
HETATM   29  C   UNL     1       6.520  29.185  56.904  1.00  0.00     0.153 C 
BRANCH  29  30
HETATM   30  C   UNL     1       7.552  28.799  57.979  1.00  0.00     0.254 C 
BRANCH  30  31
HETATM   31  N   UNL     1       7.855  29.942  58.930  1.00  0.00    -0.066 N 
HETATM   32  H   UNL     1       7.677  29.594  59.885  1.00  0.00     0.280 HD
HETATM   33  C   UNL     1       9.308  30.397  58.910  1.00  0.00     0.261 C 
HETATM   34  C   UNL     1       9.493  31.555  59.899  1.00  0.00     0.195 C 
HETATM   35  O   UNL     1       8.612  32.642  59.587  1.00  0.00    -0.388 OA
HETATM   36  C   UNL     1       7.239  32.247  59.679  1.00  0.00     0.195 C 
HETATM   37  C   UNL     1       6.927  31.124  58.687  1.00  0.00     0.261 C 
ENDBRANCH  30  31
ENDBRANCH  29  30
ENDBRANCH   1  29
TORSDOF 8
ENDMDL
MODEL 7
REMARK VINA RESULT:      -9.0      3.438      6.505
REMARK  8 active torsions:
REMARK  status: ('A' for Active; 'I' for Inactive)
REMARK    1  A    between atoms: C_6  and  N_7 
REMARK    2  A    between atoms: N_7  and  C_8 
REMARK    3  A    between atoms: C_8  and  N_9 
REMARK    4  A    between atoms: N_9  and  C_10 
REMARK    5  A    between atoms: N_9  and  C_25 
REMARK    6  A    between atoms: C_10  and  C_11 
REMARK    7  A    between atoms: C_25  and  C_26 
REMARK    8  A    between atoms: C_26  and  N_27 
ROOT
HETATM    1  N   UNL     1       7.199  26.861  55.481  1.00  0.00    -0.352 N 
ENDROOT
BRANCH   1   2
HETATM    2  C   UNL     1       6.534  25.686  55.758  1.00  0.00     0.174 C 
HETATM    3  S   UNL     1       5.263  25.660  56.852  1.00  0.00    -0.041 SA
BRANCH   2   4
HETATM    4  N   UNL     1       6.686  24.591  54.970  1.00  0.00    -0.333 N 
HETATM    5  H   UNL     1       5.991  24.542  54.226  1.00  0.00     0.168 HD
BRANCH   4   6
HETATM    6  C   UNL     1       7.375  23.377  55.173  1.00  0.00     0.035 A 
HETATM    7  C   UNL     1       7.525  22.543  54.059  1.00  0.00     0.053 A 
HETATM    8  C   UNL     1       8.191  21.321  54.180  1.00  0.00     0.036 A 
HETATM    9  C   UNL     1       8.689  20.909  55.411  1.00  0.00     0.024 A 
HETATM   10 CL   UNL     1       8.399  20.329  52.792  1.00  0.00    -0.084 Cl
HETATM   11  C   UNL     1       8.509  21.718  56.531  1.00  0.00     0.004 A 
HETATM   12  C   UNL     1       7.847  22.944  56.412  1.00  0.00     0.029 A 
ENDBRANCH   4   6
ENDBRANCH   2   4
ENDBRANCH   1   2
BRANCH   1  13
HETATM   13  C   UNL     1       7.730  27.040  54.110  1.00  0.00     0.169 C 
BRANCH  13  14
HETATM   14  C   UNL     1       6.672  27.020  53.041  1.00  0.00     0.029 A 
HETATM   15  C   UNL     1       6.837  26.038  51.926  1.00  0.00     0.253 A 
HETATM   16  O   UNL     1       7.684  25.150  51.975  1.00  0.00    -0.268 OA
HETATM   17  N   UNL     1       6.000  26.146  50.851  1.00  0.00    -0.322 N 
HETATM   18  C   UNL     1       4.997  27.115  50.738  1.00  0.00     0.048 A 
HETATM   19  H   UNL     1       6.155  25.495  50.091  1.00  0.00     0.169 HD
HETATM   20  C   UNL     1       4.814  28.031  51.795  1.00  0.00    -0.006 A 
HETATM   21  C   UNL     1       4.209  27.166  49.586  1.00  0.00     0.070 A 
HETATM   22  C   UNL     1       3.822  29.014  51.703  1.00  0.00     0.053 A 
HETATM   23  C   UNL     1       5.712  27.961  52.949  1.00  0.00     0.028 A 
HETATM   24  C   UNL     1       3.058  29.046  50.555  1.00  0.00     0.106 A 
HETATM   25  C   UNL     1       3.248  28.152  49.528  1.00  0.00     0.107 A 
HETATM   26  O   UNL     1       2.065  29.937  50.288  1.00  0.00    -0.323 OA
HETATM   27  O   UNL     1       2.398  28.368  48.488  1.00  0.00    -0.323 OA
HETATM   28  C   UNL     1       1.667  29.518  48.964  1.00  0.00     0.352 A 
ENDBRANCH  13  14
ENDBRANCH   1  13
BRANCH   1  29
HETATM   29  C   UNL     1       6.992  28.100  56.264  1.00  0.00     0.153 C 
BRANCH  29  30
HETATM   30  C   UNL     1       7.515  28.077  57.712  1.00  0.00     0.254 C 
BRANCH  30  31
HETATM   31  N   UNL     1       8.753  28.935  57.895  1.00  0.00    -0.066 N 
HETATM   32  H   UNL     1       9.347  28.460  58.592  1.00  0.00     0.280 HD
HETATM   33  C   UNL     1       9.604  29.071  56.639  1.00  0.00     0.261 C 
HETATM   34  C   UNL     1      10.818  29.961  56.941  1.00  0.00     0.195 C 
HETATM   35  O   UNL     1      10.405  31.245  57.422  1.00  0.00    -0.388 OA
HETATM   36  C   UNL     1       9.671  31.137  58.646  1.00  0.00     0.195 C 
HETATM   37  C   UNL     1       8.399  30.308  58.446  1.00  0.00     0.261 C 
ENDBRANCH  30  31
ENDBRANCH  29  30
ENDBRANCH   1  29
TORSDOF 8
ENDMDL
MODEL 8
REMARK VINA RESULT:      -8.8      2.646      3.919
REMARK  8 active torsions:
REMARK  status: ('A' for Active; 'I' for Inactive)
REMARK    1  A    between atoms: C_6  and  N_7 
REMARK    2  A    between atoms: N_7  and  C_8 
REMARK    3  A    between atoms: C_8  and  N_9 
REMARK    4  A    between atoms: N_9  and  C_10 
REMARK    5  A    between atoms: N_9  and  C_25 
REMARK    6  A    between atoms: C_10  and  C_11 
REMARK    7  A    between atoms: C_25  and  C_26 
REMARK    8  A    between atoms: C_26  and  N_27 
ROOT
HETATM    1  N   UNL     1       5.255  28.307  53.472  1.00  0.00    -0.352 N 
ENDROOT
BRANCH   1   2
HETATM    2  C   UNL     1       4.839  29.123  52.443  1.00  0.00     0.174 C 
HETATM    3  S   UNL     1       3.893  30.473  52.750  1.00  0.00    -0.041 SA
BRANCH   2   4
HETATM    4  N   UNL     1       5.398  29.035  51.209  1.00  0.00    -0.333 N 
HETATM    5  H   UNL     1       6.399  29.230  51.215  1.00  0.00     0.168 HD
BRANCH   4   6
HETATM    6  C   UNL     1       4.831  29.063  49.918  1.00  0.00     0.035 A 
HETATM    7  C   UNL     1       3.755  28.200  49.681  1.00  0.00     0.053 A 
HETATM    8  C   UNL     1       3.143  28.165  48.428  1.00  0.00     0.036 A 
HETATM    9  C   UNL     1       3.609  28.968  47.392  1.00  0.00     0.024 A 
HETATM   10 CL   UNL     1       1.797  27.127  48.169  1.00  0.00    -0.084 Cl
HETATM   11  C   UNL     1       4.705  29.802  47.610  1.00  0.00     0.004 A 
HETATM   12  C   UNL     1       5.318  29.842  48.867  1.00  0.00     0.029 A 
ENDBRANCH   4   6
ENDBRANCH   2   4
ENDBRANCH   1   2
BRANCH   1  13
HETATM   13  C   UNL     1       4.672  26.948  53.547  1.00  0.00     0.169 C 
BRANCH  13  14
HETATM   14  C   UNL     1       5.696  25.847  53.573  1.00  0.00     0.029 A 
HETATM   15  C   UNL     1       6.207  25.351  52.258  1.00  0.00     0.253 A 
HETATM   16  O   UNL     1       5.960  25.941  51.210  1.00  0.00    -0.268 OA
HETATM   17  N   UNL     1       6.980  24.223  52.258  1.00  0.00    -0.322 N 
HETATM   18  C   UNL     1       7.323  23.513  53.415  1.00  0.00     0.048 A 
HETATM   19  H   UNL     1       7.283  23.884  51.354  1.00  0.00     0.169 HD
HETATM   20  C   UNL     1       6.869  23.988  54.663  1.00  0.00    -0.006 A 
HETATM   21  C   UNL     1       8.094  22.354  53.312  1.00  0.00     0.070 A 
HETATM   22  C   UNL     1       7.193  23.292  55.834  1.00  0.00     0.053 A 
HETATM   23  C   UNL     1       6.016  25.177  54.696  1.00  0.00     0.028 A 
HETATM   24  C   UNL     1       7.953  22.147  55.707  1.00  0.00     0.106 A 
HETATM   25  C   UNL     1       8.387  21.691  54.485  1.00  0.00     0.107 A 
HETATM   26  O   UNL     1       8.348  21.341  56.730  1.00  0.00    -0.323 OA
HETATM   27  O   UNL     1       9.109  20.543  54.585  1.00  0.00    -0.323 OA
HETATM   28  C   UNL     1       9.059  20.311  56.010  1.00  0.00     0.352 A 
ENDBRANCH  13  14
ENDBRANCH   1  13
BRANCH   1  29
HETATM   29  C   UNL     1       6.544  28.500  54.174  1.00  0.00     0.153 C 
BRANCH  29  30
HETATM   30  C   UNL     1       6.453  28.785  55.685  1.00  0.00     0.254 C 
BRANCH  30  31
HETATM   31  N   UNL     1       7.699  29.460  56.225  1.00  0.00    -0.066 N 
HETATM   32  H   UNL     1       7.570  30.476  56.097  1.00  0.00     0.280 HD
HETATM   33  C   UNL     1       7.922  29.247  57.717  1.00  0.00     0.261 C 
HETATM   34  C   UNL     1       9.209  29.965  58.146  1.00  0.00     0.195 C 
HETATM   35  O   UNL     1      10.333  29.502  57.388  1.00  0.00    -0.388 OA
HETATM   36  C   UNL     1      10.170  29.767  55.991  1.00  0.00     0.195 C 
HETATM   37  C   UNL     1       8.936  29.048  55.440  1.00  0.00     0.261 C 
ENDBRANCH  30  31
ENDBRANCH  29  30
ENDBRANCH   1  29
TORSDOF 8
ENDMDL
MODEL 9
REMARK VINA RESULT:      -8.7      3.547      6.561
REMARK  8 active torsions:
REMARK  status: ('A' for Active; 'I' for Inactive)
REMARK    1  A    between atoms: C_6  and  N_7 
REMARK    2  A    between atoms: N_7  and  C_8 
REMARK    3  A    between atoms: C_8  and  N_9 
REMARK    4  A    between atoms: N_9  and  C_10 
REMARK    5  A    between atoms: N_9  and  C_25 
REMARK    6  A    between atoms: C_10  and  C_11 
REMARK    7  A    between atoms: C_25  and  C_26 
REMARK    8  A    between atoms: C_26  and  N_27 
ROOT
HETATM    1  N   UNL     1       6.059  27.225  54.384  1.00  0.00    -0.352 N 
ENDROOT
BRANCH   1   2
HETATM    2  C   UNL     1       6.105  25.864  54.176  1.00  0.00     0.174 C 
HETATM    3  S   UNL     1       4.774  25.048  53.562  1.00  0.00    -0.041 SA
BRANCH   2   4
HETATM    4  N   UNL     1       7.284  25.192  54.187  1.00  0.00    -0.333 N 
HETATM    5  H   UNL     1       8.077  25.784  53.944  1.00  0.00     0.168 HD
BRANCH   4   6
HETATM    6  C   UNL     1       7.579  23.814  54.134  1.00  0.00     0.035 A 
HETATM    7  C   UNL     1       7.774  23.162  55.358  1.00  0.00     0.053 A 
HETATM    8  C   UNL     1       8.074  21.800  55.389  1.00  0.00     0.036 A 
HETATM    9  C   UNL     1       8.208  21.079  54.207  1.00  0.00     0.024 A 
HETATM   10 CL   UNL     1       8.272  21.010  56.904  1.00  0.00    -0.084 Cl
HETATM   11  C   UNL     1       8.052  21.730  52.985  1.00  0.00     0.004 A 
HETATM   12  C   UNL     1       7.747  23.095  52.950  1.00  0.00     0.029 A 
ENDBRANCH   4   6
ENDBRANCH   2   4
ENDBRANCH   1   2
BRANCH   1  13
HETATM   13  C   UNL     1       6.568  28.100  53.304  1.00  0.00     0.169 C 
BRANCH  13  14
HETATM   14  C   UNL     1       5.643  28.211  52.124  1.00  0.00     0.029 A 
HETATM   15  C   UNL     1       4.573  29.253  52.182  1.00  0.00     0.253 A 
HETATM   16  O   UNL     1       4.565  30.115  53.058  1.00  0.00    -0.268 OA
HETATM   17  N   UNL     1       3.607  29.232  51.216  1.00  0.00    -0.322 N 
HETATM   18  C   UNL     1       3.566  28.298  50.175  1.00  0.00     0.048 A 
HETATM   19  H   UNL     1       2.871  29.923  51.298  1.00  0.00     0.169 HD
HETATM   20  C   UNL     1       4.585  27.326  50.093  1.00  0.00    -0.006 A 
HETATM   21  C   UNL     1       2.521  28.337  49.249  1.00  0.00     0.070 A 
HETATM   22  C   UNL     1       4.563  26.376  49.065  1.00  0.00     0.053 A 
HETATM   23  C   UNL     1       5.620  27.304  51.129  1.00  0.00     0.028 A 
HETATM   24  C   UNL     1       3.520  26.433  48.165  1.00  0.00     0.106 A 
HETATM   25  C   UNL     1       2.529  27.382  48.256  1.00  0.00     0.107 A 
HETATM   26  O   UNL     1       3.330  25.586  47.117  1.00  0.00    -0.323 OA
HETATM   27  O   UNL     1       1.593  27.251  47.277  1.00  0.00    -0.323 OA
HETATM   28  C   UNL     1       2.092  26.093  46.572  1.00  0.00     0.352 A 
ENDBRANCH  13  14
ENDBRANCH   1  13
BRANCH   1  29
HETATM   29  C   UNL     1       5.126  27.856  55.346  1.00  0.00     0.153 C 
BRANCH  29  30
HETATM   30  C   UNL     1       5.314  27.464  56.823  1.00  0.00     0.254 C 
BRANCH  30  31
HETATM   31  N   UNL     1       5.967  28.565  57.637  1.00  0.00    -0.066 N 
HETATM   32  H   UNL     1       5.592  28.493  58.595  1.00  0.00     0.280 HD
HETATM   33  C   UNL     1       7.479  28.429  57.763  1.00  0.00     0.261 C 
HETATM   34  C   UNL     1       8.027  29.596  58.596  1.00  0.00     0.195 C 
HETATM   35  O   UNL     1       7.673  30.855  58.010  1.00  0.00    -0.388 OA
HETATM   36  C   UNL     1       6.254  31.029  57.957  1.00  0.00     0.195 C 
HETATM   37  C   UNL     1       5.603  29.942  57.099  1.00  0.00     0.261 C 
ENDBRANCH  30  31
ENDBRANCH  29  30
ENDBRANCH   1  29
TORSDOF 8
ENDMDL
MODEL 10
REMARK VINA RESULT:      -8.6      3.412      8.239
REMARK  8 active torsions:
REMARK  status: ('A' for Active; 'I' for Inactive)
REMARK    1  A    between atoms: C_6  and  N_7 
REMARK    2  A    between atoms: N_7  and  C_8 
REMARK    3  A    between atoms: C_8  and  N_9 
REMARK    4  A    between atoms: N_9  and  C_10 
REMARK    5  A    between atoms: N_9  and  C_25 
REMARK    6  A    between atoms: C_10  and  C_11 
REMARK    7  A    between atoms: C_25  and  C_26 
REMARK    8  A    between atoms: C_26  and  N_27 
ROOT
HETATM    1  N   UNL     1       6.913  25.431  55.567  1.00  0.00    -0.352 N 
ENDROOT
BRANCH   1   2
HETATM    2  C   UNL     1       7.346  26.324  56.524  1.00  0.00     0.174 C 
HETATM    3  S   UNL     1       7.845  25.786  58.032  1.00  0.00    -0.041 SA
BRANCH   2   4
HETATM    4  N   UNL     1       7.650  27.606  56.199  1.00  0.00    -0.333 N 
HETATM    5  H   UNL     1       7.601  27.781  55.197  1.00  0.00     0.168 HD
BRANCH   4   6
HETATM    6  C   UNL     1       8.327  28.618  56.911  1.00  0.00     0.035 A 
HETATM    7  C   UNL     1       7.548  29.442  57.732  1.00  0.00     0.053 A 
HETATM    8  C   UNL     1       8.143  30.470  58.465  1.00  0.00     0.036 A 
HETATM    9  C   UNL     1       9.511  30.704  58.370  1.00  0.00     0.024 A 
HETATM   10 CL   UNL     1       7.175  31.447  59.497  1.00  0.00    -0.084 Cl
HETATM   11  C   UNL     1      10.286  29.911  57.526  1.00  0.00     0.004 A 
HETATM   12  C   UNL     1       9.693  28.877  56.793  1.00  0.00     0.029 A 
ENDBRANCH   4   6
ENDBRANCH   2   4
ENDBRANCH   1   2
BRANCH   1  13
HETATM   13  C   UNL     1       5.496  25.512  55.147  1.00  0.00     0.169 C 
BRANCH  13  14
HETATM   14  C   UNL     1       5.271  26.361  53.926  1.00  0.00     0.029 A 
HETATM   15  C   UNL     1       4.765  27.752  54.137  1.00  0.00     0.253 A 
HETATM   16  O   UNL     1       4.722  28.255  55.257  1.00  0.00    -0.268 OA
HETATM   17  N   UNL     1       4.367  28.460  53.038  1.00  0.00    -0.322 N 
HETATM   18  C   UNL     1       4.410  27.961  51.731  1.00  0.00     0.048 A 
HETATM   19  H   UNL     1       3.992  29.385  53.209  1.00  0.00     0.169 HD
HETATM   20  C   UNL     1       4.911  26.660  51.517  1.00  0.00    -0.006 A 
HETATM   21  C   UNL     1       3.953  28.749  50.673  1.00  0.00     0.070 A 
HETATM   22  C   UNL     1       4.959  26.136  50.220  1.00  0.00     0.053 A 
HETATM   23  C   UNL     1       5.320  25.864  52.675  1.00  0.00     0.028 A 
HETATM   24  C   UNL     1       4.499  26.932  49.191  1.00  0.00     0.106 A 
HETATM   25  C   UNL     1       4.009  28.198  49.412  1.00  0.00     0.107 A 
HETATM   26  O   UNL     1       4.457  26.583  47.877  1.00  0.00    -0.323 OA
HETATM   27  O   UNL     1       3.598  28.803  48.264  1.00  0.00    -0.323 OA
HETATM   28  C   UNL     1       3.860  27.763  47.296  1.00  0.00     0.352 A 
ENDBRANCH  13  14
ENDBRANCH   1  13
BRANCH   1  29
HETATM   29  C   UNL     1       7.835  24.768  54.617  1.00  0.00     0.153 C 
BRANCH  29  30
HETATM   30  C   UNL     1       8.772  23.704  55.219  1.00  0.00     0.254 C 
BRANCH  30  31
HETATM   31  N   UNL     1       8.358  22.292  54.853  1.00  0.00    -0.066 N 
HETATM   32  H   UNL     1       7.336  22.235  54.983  1.00  0.00     0.280 HD
HETATM   33  C   UNL     1       8.619  21.927  53.397  1.00  0.00     0.261 C 
HETATM   34  C   UNL     1       8.169  20.481  53.147  1.00  0.00     0.195 C 
HETATM   35  O   UNL     1       8.841  19.575  54.030  1.00  0.00    -0.388 OA
HETATM   36  C   UNL     1       8.541  19.858  55.401  1.00  0.00     0.195 C 
HETATM   37  C   UNL     1       9.001  21.269  55.778  1.00  0.00     0.261 C 
ENDBRANCH  30  31
ENDBRANCH  29  30
ENDBRANCH   1  29
TORSDOF 8
ENDMDL
