MODEL 1
REMARK VINA RESULT:      -9.0      0.000      0.000
REMARK  5 active torsions:
REMARK  status: ('A' for Active; 'I' for Inactive)
REMARK    1  A    between atoms: C_8  and  C_9 
REMARK    2  A    between atoms: C_9  and  C_10 
REMARK       I    between atoms: C_10  and  N_11 
REMARK    3  A    between atoms: N_11  and  C_12 
REMARK    4  A    between atoms: C_12  and  C_13 
REMARK    5  A    between atoms: C_13  and  C_14 
ROOT
HETATM    1  C   UNL     1       7.117  28.704  57.927  1.00  0.00     0.226 C 
HETATM    2  N   UNL     1       6.196  28.331  56.971  1.00  0.00    -0.360 N 
HETATM    3  O   UNL     1       7.858  27.881  58.464  1.00  0.00    -0.273 OA
HETATM    4  H   UNL     1       5.614  29.022  56.519  1.00  0.00     0.162 HD
ENDROOT
BRANCH   2   5
HETATM    5  C   UNL     1       6.084  26.952  56.527  1.00  0.00     0.127 C 
BRANCH   5   6
HETATM    6  C   UNL     1       7.166  26.563  55.515  1.00  0.00     0.060 C 
BRANCH   6   7
HETATM    7  C   UNL     1       7.724  25.202  55.785  1.00  0.00    -0.029 A 
HETATM    8  C   UNL     1       7.834  24.126  54.846  1.00  0.00    -0.002 A 
HETATM    9  C   UNL     1       8.400  23.042  55.517  1.00  0.00     0.044 A 
HETATM   10  C   UNL     1       7.497  23.978  53.485  1.00  0.00     0.016 A 
HETATM   11  C   UNL     1       8.646  21.811  54.895  1.00  0.00     0.054 A 
HETATM   12  N   UNL     1       8.633  23.443  56.811  1.00  0.00    -0.365 N 
HETATM   13  C   UNL     1       8.300  21.693  53.545  1.00  0.00     0.036 A 
HETATM   14 CL   UNL     1       8.581  20.198  52.735  1.00  0.00    -0.084 Cl
HETATM   15  C   UNL     1       7.735  22.755  52.845  1.00  0.00     0.025 A 
HETATM   16  H   UNL     1       9.045  22.861  57.527  1.00  0.00     0.165 HD
HETATM   17  C   UNL     1       8.229  24.740  56.985  1.00  0.00     0.096 A 
ENDBRANCH   6   7
ENDBRANCH   5   6
ENDBRANCH   2   5
BRANCH   1  18
HETATM   18  C   UNL     1       7.202  30.201  58.263  1.00  0.00     0.111 C 
HETATM   19  C   UNL     1       6.231  31.097  57.495  1.00  0.00     0.025 C 
BRANCH  18  20
HETATM   20  C   UNL     1       8.618  30.710  58.195  1.00  0.00     0.004 A 
HETATM   21  C   UNL     1       9.568  30.382  57.239  1.00  0.00     0.033 A 
HETATM   22  C   UNL     1       9.509  29.505  56.047  1.00  0.00     0.070 C 
HETATM   23  N   UNL     1      10.696  31.076  57.572  1.00  0.00    -0.282 N 
HETATM   24  H   UNL     1      11.587  31.093  57.089  1.00  0.00     0.189 HD
HETATM   25  N   UNL     1      10.567  31.809  58.683  1.00  0.00    -0.179 NA
HETATM   26  C   UNL     1       9.301  31.613  59.066  1.00  0.00     0.060 A 
HETATM   27  C   UNL     1       8.798  32.317  60.272  1.00  0.00     0.073 C 
ENDBRANCH  18  20
ENDBRANCH   1  18
TORSDOF 5
ENDMDL
MODEL 2
REMARK VINA RESULT:      -9.0      5.853      8.359
REMARK  5 active torsions:
REMARK  status: ('A' for Active; 'I' for Inactive)
REMARK    1  A    between atoms: C_8  and  C_9 
REMARK    2  A    between atoms: C_9  and  C_10 
REMARK       I    between atoms: C_10  and  N_11 
REMARK    3  A    between atoms: N_11  and  C_12 
REMARK    4  A    between atoms: C_12  and  C_13 
REMARK    5  A    between atoms: C_13  and  C_14 
ROOT
HETATM    1  C   UNL     1       5.323  27.608  49.726  1.00  0.00     0.226 C 
HETATM    2  N   UNL     1       5.528  26.419  50.393  1.00  0.00    -0.360 N 
HETATM    3  O   UNL     1       5.615  28.691  50.233  1.00  0.00    -0.273 OA
HETATM    4  H   UNL     1       5.309  25.537  49.953  1.00  0.00     0.162 HD
ENDROOT
BRANCH   2   5
HETATM    5  C   UNL     1       6.135  26.388  51.713  1.00  0.00     0.127 C 
BRANCH   5   6
HETATM    6  C   UNL     1       7.212  25.308  51.846  1.00  0.00     0.060 C 
BRANCH   6   7
HETATM    7  C   UNL     1       7.385  24.858  53.262  1.00  0.00    -0.029 A 
HETATM    8  C   UNL     1       7.652  23.521  53.704  1.00  0.00    -0.002 A 
HETATM    9  C   UNL     1       7.728  23.549  55.096  1.00  0.00     0.044 A 
HETATM   10  C   UNL     1       7.833  22.290  53.040  1.00  0.00     0.016 A 
HETATM   11  C   UNL     1       7.974  22.403  55.864  1.00  0.00     0.054 A 
HETATM   12  N   UNL     1       7.523  24.851  55.487  1.00  0.00    -0.365 N 
HETATM   13  C   UNL     1       8.147  21.196  55.178  1.00  0.00     0.036 A 
HETATM   14 CL   UNL     1       8.449  19.757  56.078  1.00  0.00    -0.084 Cl
HETATM   15  C   UNL     1       8.079  21.133  53.790  1.00  0.00     0.025 A 
HETATM   16  H   UNL     1       7.528  25.168  56.447  1.00  0.00     0.165 HD
HETATM   17  C   UNL     1       7.313  25.647  54.393  1.00  0.00     0.096 A 
ENDBRANCH   6   7
ENDBRANCH   5   6
ENDBRANCH   2   5
BRANCH   1  18
HETATM   18  C   UNL     1       4.746  27.518  48.305  1.00  0.00     0.111 C 
HETATM   19  C   UNL     1       5.217  28.607  47.342  1.00  0.00     0.025 C 
BRANCH  18  20
HETATM   20  C   UNL     1       3.247  27.379  48.316  1.00  0.00     0.004 A 
HETATM   21  C   UNL     1       2.522  26.233  48.023  1.00  0.00     0.033 A 
HETATM   22  C   UNL     1       2.946  24.863  47.649  1.00  0.00     0.070 C 
HETATM   23  N   UNL     1       1.207  26.570  48.163  1.00  0.00    -0.282 N 
HETATM   24  H   UNL     1       0.391  25.980  48.042  1.00  0.00     0.189 HD
HETATM   25  N   UNL     1       1.013  27.850  48.496  1.00  0.00    -0.179 NA
HETATM   26  C   UNL     1       2.247  28.354  48.612  1.00  0.00     0.060 A 
HETATM   27  C   UNL     1       2.408  29.774  49.012  1.00  0.00     0.073 C 
ENDBRANCH  18  20
ENDBRANCH   1  18
TORSDOF 5
ENDMDL
MODEL 3
REMARK VINA RESULT:      -8.8      0.987      1.961
REMARK  5 active torsions:
REMARK  status: ('A' for Active; 'I' for Inactive)
REMARK    1  A    between atoms: C_8  and  C_9 
REMARK    2  A    between atoms: C_9  and  C_10 
REMARK       I    between atoms: C_10  and  N_11 
REMARK    3  A    between atoms: N_11  and  C_12 
REMARK    4  A    between atoms: C_12  and  C_13 
REMARK    5  A    between atoms: C_13  and  C_14 
ROOT
HETATM    1  C   UNL     1       7.413  29.111  57.681  1.00  0.00     0.226 C 
HETATM    2  N   UNL     1       7.310  28.998  56.311  1.00  0.00    -0.360 N 
HETATM    3  O   UNL     1       7.914  28.219  58.366  1.00  0.00    -0.273 OA
HETATM    4  H   UNL     1       6.922  29.750  55.760  1.00  0.00     0.162 HD
ENDROOT
BRANCH   2   5
HETATM    5  C   UNL     1       7.821  27.834  55.608  1.00  0.00     0.127 C 
BRANCH   5   6
HETATM    6  C   UNL     1       6.728  26.816  55.269  1.00  0.00     0.060 C 
BRANCH   6   7
HETATM    7  C   UNL     1       7.106  25.428  55.678  1.00  0.00    -0.029 A 
HETATM    8  C   UNL     1       7.386  24.330  54.802  1.00  0.00    -0.002 A 
HETATM    9  C   UNL     1       7.686  23.226  55.599  1.00  0.00     0.044 A 
HETATM   10  C   UNL     1       7.407  24.179  53.400  1.00  0.00     0.016 A 
HETATM   11  C   UNL     1       8.005  21.970  55.064  1.00  0.00     0.054 A 
HETATM   12  N   UNL     1       7.600  23.636  56.908  1.00  0.00    -0.365 N 
HETATM   13  C   UNL     1       8.016  21.849  53.672  1.00  0.00     0.036 A 
HETATM   14 CL   UNL     1       8.400  20.325  52.965  1.00  0.00    -0.084 Cl
HETATM   15  C   UNL     1       7.723  22.931  52.846  1.00  0.00     0.025 A 
HETATM   16  H   UNL     1       7.773  23.041  57.707  1.00  0.00     0.165 HD
HETATM   17  C   UNL     1       7.250  24.958  56.969  1.00  0.00     0.096 A 
ENDBRANCH   6   7
ENDBRANCH   5   6
ENDBRANCH   2   5
BRANCH   1  18
HETATM   18  C   UNL     1       6.910  30.419  58.311  1.00  0.00     0.111 C 
HETATM   19  C   UNL     1       6.097  31.318  57.381  1.00  0.00     0.025 C 
BRANCH  18  20
HETATM   20  C   UNL     1       8.018  31.171  59.001  1.00  0.00     0.004 A 
HETATM   21  C   UNL     1       7.914  31.897  60.178  1.00  0.00     0.033 A 
HETATM   22  C   UNL     1       6.772  32.144  61.090  1.00  0.00     0.070 C 
HETATM   23  N   UNL     1       9.159  32.400  60.425  1.00  0.00    -0.282 N 
HETATM   24  H   UNL     1       9.462  32.968  61.208  1.00  0.00     0.189 HD
HETATM   25  N   UNL     1      10.061  32.083  59.491  1.00  0.00    -0.179 NA
HETATM   26  C   UNL     1       9.387  31.318  58.624  1.00  0.00     0.060 A 
HETATM   27  C   UNL     1      10.107  30.753  57.456  1.00  0.00     0.073 C 
ENDBRANCH  18  20
ENDBRANCH   1  18
TORSDOF 5
ENDMDL
MODEL 4
REMARK VINA RESULT:      -8.8      2.327      3.086
REMARK  5 active torsions:
REMARK  status: ('A' for Active; 'I' for Inactive)
REMARK    1  A    between atoms: C_8  and  C_9 
REMARK    2  A    between atoms: C_9  and  C_10 
REMARK       I    between atoms: C_10  and  N_11 
REMARK    3  A    between atoms: N_11  and  C_12 
REMARK    4  A    between atoms: C_12  and  C_13 
REMARK    5  A    between atoms: C_13  and  C_14 
ROOT
HETATM    1  C   UNL     1       7.705  28.397  55.446  1.00  0.00     0.226 C 
HETATM    2  N   UNL     1       6.327  28.363  55.457  1.00  0.00    -0.360 N 
HETATM    3  O   UNL     1       8.337  28.606  54.410  1.00  0.00    -0.273 OA
HETATM    4  H   UNL     1       5.822  28.218  56.320  1.00  0.00     0.162 HD
ENDROOT
BRANCH   2   5
HETATM    5  C   UNL     1       5.555  28.610  54.251  1.00  0.00     0.127 C 
BRANCH   5   6
HETATM    6  C   UNL     1       4.801  27.369  53.764  1.00  0.00     0.060 C 
BRANCH   6   7
HETATM    7  C   UNL     1       5.689  26.431  53.011  1.00  0.00    -0.029 A 
HETATM    8  C   UNL     1       6.421  25.328  53.558  1.00  0.00    -0.002 A 
HETATM    9  C   UNL     1       7.122  24.731  52.510  1.00  0.00     0.044 A 
HETATM   10  C   UNL     1       6.550  24.787  54.854  1.00  0.00     0.016 A 
HETATM   11  C   UNL     1       7.953  23.617  52.693  1.00  0.00     0.054 A 
HETATM   12  N   UNL     1       6.824  25.437  51.369  1.00  0.00    -0.365 N 
HETATM   13  C   UNL     1       8.063  23.104  53.989  1.00  0.00     0.036 A 
HETATM   14 CL   UNL     1       9.074  21.736  54.266  1.00  0.00    -0.084 Cl
HETATM   15  C   UNL     1       7.376  23.674  55.057  1.00  0.00     0.025 A 
HETATM   16  H   UNL     1       7.189  25.223  50.451  1.00  0.00     0.165 HD
HETATM   17  C   UNL     1       5.965  26.463  51.657  1.00  0.00     0.096 A 
ENDBRANCH   6   7
ENDBRANCH   5   6
ENDBRANCH   2   5
BRANCH   1  18
HETATM   18  C   UNL     1       8.417  28.200  56.793  1.00  0.00     0.111 C 
HETATM   19  C   UNL     1       7.724  27.240  57.760  1.00  0.00     0.025 C 
BRANCH  18  20
HETATM   20  C   UNL     1       8.757  29.515  57.445  1.00  0.00     0.004 A 
HETATM   21  C   UNL     1      10.021  30.071  57.569  1.00  0.00     0.033 A 
HETATM   22  C   UNL     1      11.355  29.606  57.121  1.00  0.00     0.070 C 
HETATM   23  N   UNL     1       9.850  31.259  58.219  1.00  0.00    -0.282 N 
HETATM   24  H   UNL     1      10.554  31.944  58.469  1.00  0.00     0.189 HD
HETATM   25  N   UNL     1       8.580  31.511  58.554  1.00  0.00    -0.179 NA
HETATM   26  C   UNL     1       7.897  30.466  58.073  1.00  0.00     0.060 A 
HETATM   27  C   UNL     1       6.423  30.433  58.242  1.00  0.00     0.073 C 
ENDBRANCH  18  20
ENDBRANCH   1  18
TORSDOF 5
ENDMDL
MODEL 5
REMARK VINA RESULT:      -8.7      4.009      8.642
REMARK  5 active torsions:
REMARK  status: ('A' for Active; 'I' for Inactive)
REMARK    1  A    between atoms: C_8  and  C_9 
REMARK    2  A    between atoms: C_9  and  C_10 
REMARK       I    between atoms: C_10  and  N_11 
REMARK    3  A    between atoms: N_11  and  C_12 
REMARK    4  A    between atoms: C_12  and  C_13 
REMARK    5  A    between atoms: C_13  and  C_14 
ROOT
HETATM    1  C   UNL     1       7.235  27.092  55.246  1.00  0.00     0.226 C 
HETATM    2  N   UNL     1       7.425  27.781  56.425  1.00  0.00    -0.360 N 
HETATM    3  O   UNL     1       7.636  27.534  54.169  1.00  0.00    -0.273 OA
HETATM    4  H   UNL     1       7.115  27.393  57.304  1.00  0.00     0.162 HD
ENDROOT
BRANCH   2   5
HETATM    5  C   UNL     1       8.141  29.045  56.455  1.00  0.00     0.127 C 
BRANCH   5   6
HETATM    6  C   UNL     1       8.728  29.362  57.834  1.00  0.00     0.060 C 
BRANCH   6   7
HETATM    7  C   UNL     1       7.869  30.313  58.605  1.00  0.00    -0.029 A 
HETATM    8  C   UNL     1       8.133  30.827  59.916  1.00  0.00    -0.002 A 
HETATM    9  C   UNL     1       7.075  31.670  60.255  1.00  0.00     0.044 A 
HETATM   10  C   UNL     1       9.180  30.647  60.844  1.00  0.00     0.016 A 
HETATM   11  C   UNL     1       7.006  32.342  61.483  1.00  0.00     0.054 A 
HETATM   12  N   UNL     1       6.204  31.674  59.191  1.00  0.00    -0.365 N 
HETATM   13  C   UNL     1       8.056  32.142  62.384  1.00  0.00     0.036 A 
HETATM   14 CL   UNL     1       8.017  32.945  63.908  1.00  0.00    -0.084 Cl
HETATM   15  C   UNL     1       9.129  31.311  62.076  1.00  0.00     0.025 A 
HETATM   16  H   UNL     1       5.345  32.206  59.157  1.00  0.00     0.165 HD
HETATM   17  C   UNL     1       6.670  30.861  58.193  1.00  0.00     0.096 A 
ENDBRANCH   6   7
ENDBRANCH   5   6
ENDBRANCH   2   5
BRANCH   1  18
HETATM   18  C   UNL     1       6.533  25.729  55.342  1.00  0.00     0.111 C 
HETATM   19  C   UNL     1       5.616  25.554  56.552  1.00  0.00     0.025 C 
BRANCH  18  20
HETATM   20  C   UNL     1       7.504  24.587  55.197  1.00  0.00     0.004 A 
HETATM   21  C   UNL     1       7.646  23.761  54.093  1.00  0.00     0.033 A 
HETATM   22  C   UNL     1       6.958  23.736  52.781  1.00  0.00     0.070 C 
HETATM   23  N   UNL     1       8.640  22.878  54.405  1.00  0.00    -0.282 N 
HETATM   24  H   UNL     1       9.024  22.136  53.830  1.00  0.00     0.189 HD
HETATM   25  N   UNL     1       9.140  23.044  55.634  1.00  0.00    -0.179 NA
HETATM   26  C   UNL     1       8.472  24.094  56.124  1.00  0.00     0.060 A 
HETATM   27  C   UNL     1       8.803  24.583  57.486  1.00  0.00     0.073 C 
ENDBRANCH  18  20
ENDBRANCH   1  18
TORSDOF 5
ENDMDL
MODEL 6
REMARK VINA RESULT:      -8.5      5.430      7.990
REMARK  5 active torsions:
REMARK  status: ('A' for Active; 'I' for Inactive)
REMARK    1  A    between atoms: C_8  and  C_9 
REMARK    2  A    between atoms: C_9  and  C_10 
REMARK       I    between atoms: C_10  and  N_11 
REMARK    3  A    between atoms: N_11  and  C_12 
REMARK    4  A    between atoms: C_12  and  C_13 
REMARK    5  A    between atoms: C_13  and  C_14 
ROOT
HETATM    1  C   UNL     1       5.138  26.784  50.682  1.00  0.00     0.226 C 
HETATM    2  N   UNL     1       5.608  27.710  51.590  1.00  0.00    -0.360 N 
HETATM    3  O   UNL     1       4.907  25.620  51.009  1.00  0.00    -0.273 OA
HETATM    4  H   UNL     1       5.767  28.668  51.312  1.00  0.00     0.162 HD
ENDROOT
BRANCH   2   5
HETATM    5  C   UNL     1       5.817  27.362  52.985  1.00  0.00     0.127 C 
BRANCH   5   6
HETATM    6  C   UNL     1       7.225  26.826  53.259  1.00  0.00     0.060 C 
BRANCH   6   7
HETATM    7  C   UNL     1       7.228  25.775  54.323  1.00  0.00    -0.029 A 
HETATM    8  C   UNL     1       7.570  24.394  54.155  1.00  0.00    -0.002 A 
HETATM    9  C   UNL     1       7.431  23.775  55.396  1.00  0.00     0.044 A 
HETATM   10  C   UNL     1       7.983  23.617  53.053  1.00  0.00     0.016 A 
HETATM   11  C   UNL     1       7.681  22.410  55.594  1.00  0.00     0.054 A 
HETATM   12  N   UNL     1       7.027  24.740  56.288  1.00  0.00    -0.365 N 
HETATM   13  C   UNL     1       8.086  21.665  54.483  1.00  0.00     0.036 A 
HETATM   14 CL   UNL     1       8.405  19.981  54.674  1.00  0.00    -0.084 Cl
HETATM   15  C   UNL     1       8.238  22.251  53.230  1.00  0.00     0.025 A 
HETATM   16  H   UNL     1       6.852  24.577  57.270  1.00  0.00     0.165 HD
HETATM   17  C   UNL     1       6.901  25.947  55.654  1.00  0.00     0.096 A 
ENDBRANCH   6   7
ENDBRANCH   5   6
ENDBRANCH   2   5
BRANCH   1  18
HETATM   18  C   UNL     1       4.880  27.281  49.252  1.00  0.00     0.111 C 
HETATM   19  C   UNL     1       5.605  28.571  48.870  1.00  0.00     0.025 C 
BRANCH  18  20
HETATM   20  C   UNL     1       3.408  27.344  48.938  1.00  0.00     0.004 A 
HETATM   21  C   UNL     1       2.496  28.260  49.438  1.00  0.00     0.033 A 
HETATM   22  C   UNL     1       2.653  29.408  50.363  1.00  0.00     0.070 C 
HETATM   23  N   UNL     1       1.291  27.939  48.883  1.00  0.00    -0.282 N 
HETATM   24  H   UNL     1       0.398  28.402  49.009  1.00  0.00     0.189 HD
HETATM   25  N   UNL     1       1.338  26.870  48.081  1.00  0.00    -0.179 NA
HETATM   26  C   UNL     1       2.625  26.505  48.088  1.00  0.00     0.060 A 
HETATM   27  C   UNL     1       3.047  25.348  47.260  1.00  0.00     0.073 C 
ENDBRANCH  18  20
ENDBRANCH   1  18
TORSDOF 5
ENDMDL
MODEL 7
REMARK VINA RESULT:      -8.4      3.336      7.328
REMARK  5 active torsions:
REMARK  status: ('A' for Active; 'I' for Inactive)
REMARK    1  A    between atoms: C_8  and  C_9 
REMARK    2  A    between atoms: C_9  and  C_10 
REMARK       I    between atoms: C_10  and  N_11 
REMARK    3  A    between atoms: N_11  and  C_12 
REMARK    4  A    between atoms: C_12  and  C_13 
REMARK    5  A    between atoms: C_13  and  C_14 
ROOT
HETATM    1  C   UNL     1       6.483  24.868  54.004  1.00  0.00     0.226 C 
HETATM    2  N   UNL     1       6.419  26.195  54.375  1.00  0.00    -0.360 N 
HETATM    3  O   UNL     1       5.493  24.266  53.589  1.00  0.00    -0.273 OA
HETATM    4  H   UNL     1       7.246  26.682  54.688  1.00  0.00     0.162 HD
ENDROOT
BRANCH   2   5
HETATM    5  C   UNL     1       5.186  26.954  54.258  1.00  0.00     0.127 C 
BRANCH   5   6
HETATM    6  C   UNL     1       5.379  28.448  54.533  1.00  0.00     0.060 C 
BRANCH   6   7
HETATM    7  C   UNL     1       6.117  28.693  55.811  1.00  0.00    -0.029 A 
HETATM    8  C   UNL     1       7.518  28.960  55.947  1.00  0.00    -0.002 A 
HETATM    9  C   UNL     1       7.783  29.117  57.307  1.00  0.00     0.044 A 
HETATM   10  C   UNL     1       8.584  29.078  55.031  1.00  0.00     0.016 A 
HETATM   11  C   UNL     1       9.066  29.385  57.802  1.00  0.00     0.054 A 
HETATM   12  N   UNL     1       6.590  28.960  57.973  1.00  0.00    -0.365 N 
HETATM   13  C   UNL     1      10.103  29.494  56.871  1.00  0.00     0.036 A 
HETATM   14 CL   UNL     1      11.701  29.821  57.430  1.00  0.00    -0.084 Cl
HETATM   15  C   UNL     1       9.874  29.345  55.507  1.00  0.00     0.025 A 
HETATM   16  H   UNL     1       6.481  29.028  58.975  1.00  0.00     0.165 HD
HETATM   17  C   UNL     1       5.581  28.703  57.084  1.00  0.00     0.096 A 
ENDBRANCH   6   7
ENDBRANCH   5   6
ENDBRANCH   2   5
BRANCH   1  18
HETATM   18  C   UNL     1       7.856  24.186  54.096  1.00  0.00     0.111 C 
HETATM   19  C   UNL     1       8.222  23.297  52.908  1.00  0.00     0.025 C 
BRANCH  18  20
HETATM   20  C   UNL     1       8.043  23.478  55.413  1.00  0.00     0.004 A 
HETATM   21  C   UNL     1       8.314  24.071  56.637  1.00  0.00     0.033 A 
HETATM   22  C   UNL     1       8.479  25.489  57.034  1.00  0.00     0.070 C 
HETATM   23  N   UNL     1       8.398  23.052  57.542  1.00  0.00    -0.282 N 
HETATM   24  H   UNL     1       8.570  23.111  58.539  1.00  0.00     0.189 HD
HETATM   25  N   UNL     1       8.231  21.840  57.002  1.00  0.00    -0.179 NA
HETATM   26  C   UNL     1       7.995  22.082  55.708  1.00  0.00     0.060 A 
HETATM   27  C   UNL     1       7.727  20.938  54.801  1.00  0.00     0.073 C 
ENDBRANCH  18  20
ENDBRANCH   1  18
TORSDOF 5
ENDMDL
MODEL 8
REMARK VINA RESULT:      -8.2      3.424      8.435
REMARK  5 active torsions:
REMARK  status: ('A' for Active; 'I' for Inactive)
REMARK    1  A    between atoms: C_8  and  C_9 
REMARK    2  A    between atoms: C_9  and  C_10 
REMARK       I    between atoms: C_10  and  N_11 
REMARK    3  A    between atoms: N_11  and  C_12 
REMARK    4  A    between atoms: C_12  and  C_13 
REMARK    5  A    between atoms: C_13  and  C_14 
ROOT
HETATM    1  C   UNL     1       7.068  24.895  54.759  1.00  0.00     0.226 C 
HETATM    2  N   UNL     1       7.582  26.090  55.215  1.00  0.00    -0.360 N 
HETATM    3  O   UNL     1       5.864  24.646  54.819  1.00  0.00    -0.273 OA
HETATM    4  H   UNL     1       8.569  26.290  55.133  1.00  0.00     0.162 HD
ENDROOT
BRANCH   2   5
HETATM    5  C   UNL     1       6.721  27.127  55.754  1.00  0.00     0.127 C 
BRANCH   5   6
HETATM    6  C   UNL     1       7.028  28.513  55.180  1.00  0.00     0.060 C 
BRANCH   6   7
HETATM    7  C   UNL     1       8.253  29.116  55.792  1.00  0.00    -0.029 A 
HETATM    8  C   UNL     1       8.345  29.728  57.084  1.00  0.00    -0.002 A 
HETATM    9  C   UNL     1       9.660  30.161  57.248  1.00  0.00     0.044 A 
HETATM   10  C   UNL     1       7.423  29.954  58.127  1.00  0.00     0.016 A 
HETATM   11  C   UNL     1      10.104  30.814  58.406  1.00  0.00     0.054 A 
HETATM   12  N   UNL     1      10.345  29.820  56.105  1.00  0.00    -0.365 N 
HETATM   13  C   UNL     1       9.167  31.027  59.422  1.00  0.00     0.036 A 
HETATM   14 CL   UNL     1       9.662  31.828  60.865  1.00  0.00    -0.084 Cl
HETATM   15  C   UNL     1       7.847  30.605  59.292  1.00  0.00     0.025 A 
HETATM   16  H   UNL     1      11.325  30.008  55.947  1.00  0.00     0.165 HD
HETATM   17  C   UNL     1       9.508  29.193  55.222  1.00  0.00     0.096 A 
ENDBRANCH   6   7
ENDBRANCH   5   6
ENDBRANCH   2   5
BRANCH   1  18
HETATM   18  C   UNL     1       8.061  23.901  54.137  1.00  0.00     0.111 C 
HETATM   19  C   UNL     1       7.867  23.636  52.644  1.00  0.00     0.025 C 
BRANCH  18  20
HETATM   20  C   UNL     1       8.152  22.626  54.933  1.00  0.00     0.004 A 
HETATM   21  C   UNL     1       8.373  22.519  56.298  1.00  0.00     0.033 A 
HETATM   22  C   UNL     1       8.560  23.543  57.352  1.00  0.00     0.070 C 
HETATM   23  N   UNL     1       8.373  21.183  56.579  1.00  0.00    -0.282 N 
HETATM   24  H   UNL     1       8.491  20.732  57.478  1.00  0.00     0.189 HD
HETATM   25  N   UNL     1       8.198  20.409  55.503  1.00  0.00    -0.179 NA
HETATM   26  C   UNL     1       8.042  21.272  54.494  1.00  0.00     0.060 A 
HETATM   27  C   UNL     1       7.789  20.744  53.130  1.00  0.00     0.073 C 
ENDBRANCH  18  20
ENDBRANCH   1  18
TORSDOF 5
ENDMDL
MODEL 9
REMARK VINA RESULT:      -8.2      3.639      7.701
REMARK  5 active torsions:
REMARK  status: ('A' for Active; 'I' for Inactive)
REMARK    1  A    between atoms: C_8  and  C_9 
REMARK    2  A    between atoms: C_9  and  C_10 
REMARK       I    between atoms: C_10  and  N_11 
REMARK    3  A    between atoms: N_11  and  C_12 
REMARK    4  A    between atoms: C_12  and  C_13 
REMARK    5  A    between atoms: C_13  and  C_14 
ROOT
HETATM    1  C   UNL     1       7.750  23.781  53.649  1.00  0.00     0.226 C 
HETATM    2  N   UNL     1       6.614  23.987  54.402  1.00  0.00    -0.360 N 
HETATM    3  O   UNL     1       7.952  24.398  52.603  1.00  0.00    -0.273 OA
HETATM    4  H   UNL     1       6.476  23.494  55.272  1.00  0.00     0.162 HD
ENDROOT
BRANCH   2   5
HETATM    5  C   UNL     1       5.617  24.970  54.012  1.00  0.00     0.127 C 
BRANCH   5   6
HETATM    6  C   UNL     1       5.483  26.113  55.023  1.00  0.00     0.060 C 
BRANCH   6   7
HETATM    7  C   UNL     1       6.590  27.111  54.892  1.00  0.00    -0.029 A 
HETATM    8  C   UNL     1       7.230  27.816  55.962  1.00  0.00    -0.002 A 
HETATM    9  C   UNL     1       8.196  28.647  55.395  1.00  0.00     0.044 A 
HETATM   10  C   UNL     1       7.069  27.822  57.363  1.00  0.00     0.016 A 
HETATM   11  C   UNL     1       9.012  29.491  56.161  1.00  0.00     0.054 A 
HETATM   12  N   UNL     1       8.151  28.452  54.035  1.00  0.00    -0.365 N 
HETATM   13  C   UNL     1       8.828  29.477  57.547  1.00  0.00     0.036 A 
HETATM   14 CL   UNL     1       9.806  30.499  58.532  1.00  0.00    -0.084 Cl
HETATM   15  C   UNL     1       7.876  28.658  58.145  1.00  0.00     0.025 A 
HETATM   16  H   UNL     1       8.748  28.922  53.369  1.00  0.00     0.165 HD
HETATM   17  C   UNL     1       7.189  27.531  53.720  1.00  0.00     0.096 A 
ENDBRANCH   6   7
ENDBRANCH   5   6
ENDBRANCH   2   5
BRANCH   1  18
HETATM   18  C   UNL     1       8.774  22.774  54.196  1.00  0.00     0.111 C 
HETATM   19  C   UNL     1       8.925  21.492  53.379  1.00  0.00     0.025 C 
BRANCH  18  20
HETATM   20  C   UNL     1       8.555  22.493  55.660  1.00  0.00     0.004 A 
HETATM   21  C   UNL     1       8.726  23.386  56.706  1.00  0.00     0.033 A 
HETATM   22  C   UNL     1       9.130  24.811  56.734  1.00  0.00     0.070 C 
HETATM   23  N   UNL     1       8.414  22.700  57.845  1.00  0.00    -0.282 N 
HETATM   24  H   UNL     1       8.411  23.039  58.800  1.00  0.00     0.189 HD
HETATM   25  N   UNL     1       8.080  21.424  57.629  1.00  0.00    -0.179 NA
HETATM   26  C   UNL     1       8.143  21.285  56.300  1.00  0.00     0.060 A 
HETATM   27  C   UNL     1       7.794  19.974  55.698  1.00  0.00     0.073 C 
ENDBRANCH  18  20
ENDBRANCH   1  18
TORSDOF 5
ENDMDL
MODEL 10
REMARK VINA RESULT:      -8.2      6.218      8.072
REMARK  5 active torsions:
REMARK  status: ('A' for Active; 'I' for Inactive)
REMARK    1  A    between atoms: C_8  and  C_9 
REMARK    2  A    between atoms: C_9  and  C_10 
REMARK       I    between atoms: C_10  and  N_11 
REMARK    3  A    between atoms: N_11  and  C_12 
REMARK    4  A    between atoms: C_12  and  C_13 
REMARK    5  A    between atoms: C_13  and  C_14 
ROOT
HETATM    1  C   UNL     1       4.495  27.494  50.116  1.00  0.00     0.226 C 
HETATM    2  N   UNL     1       4.551  26.848  51.332  1.00  0.00    -0.360 N 
HETATM    3  O   UNL     1       4.970  26.992  49.096  1.00  0.00    -0.273 OA
HETATM    4  H   UNL     1       4.133  27.260  52.154  1.00  0.00     0.162 HD
ENDROOT
BRANCH   2   5
HETATM    5  C   UNL     1       5.142  25.527  51.460  1.00  0.00     0.127 C 
BRANCH   5   6
HETATM    6  C   UNL     1       6.589  25.568  51.960  1.00  0.00     0.060 C 
BRANCH   6   7
HETATM    7  C   UNL     1       6.728  24.977  53.327  1.00  0.00    -0.029 A 
HETATM    8  C   UNL     1       7.252  23.683  53.645  1.00  0.00    -0.002 A 
HETATM    9  C   UNL     1       7.192  23.537  55.031  1.00  0.00     0.044 A 
HETATM   10  C   UNL     1       7.769  22.621  52.874  1.00  0.00     0.016 A 
HETATM   11  C   UNL     1       7.622  22.377  55.689  1.00  0.00     0.054 A 
HETATM   12  N   UNL     1       6.660  24.699  55.538  1.00  0.00    -0.365 N 
HETATM   13  C   UNL     1       8.127  21.340  54.899  1.00  0.00     0.036 A 
HETATM   14 CL   UNL     1       8.667  19.891  55.662  1.00  0.00    -0.084 Cl
HETATM   15  C   UNL     1       8.204  21.453  53.514  1.00  0.00     0.025 A 
HETATM   16  H   UNL     1       6.505  24.877  56.521  1.00  0.00     0.165 HD
HETATM   17  C   UNL     1       6.376  25.572  54.523  1.00  0.00     0.096 A 
ENDBRANCH   6   7
ENDBRANCH   5   6
ENDBRANCH   2   5
BRANCH   1  18
HETATM   18  C   UNL     1       3.779  28.852  50.082  1.00  0.00     0.111 C 
HETATM   19  C   UNL     1       2.702  29.047  51.148  1.00  0.00     0.025 C 
BRANCH  18  20
HETATM   20  C   UNL     1       3.277  29.187  48.701  1.00  0.00     0.004 A 
HETATM   21  C   UNL     1       3.762  30.182  47.866  1.00  0.00     0.033 A 
HETATM   22  C   UNL     1       4.861  31.162  48.030  1.00  0.00     0.070 C 
HETATM   23  N   UNL     1       3.014  30.118  46.726  1.00  0.00    -0.282 N 
HETATM   24  H   UNL     1       3.095  30.685  45.890  1.00  0.00     0.189 HD
HETATM   25  N   UNL     1       2.062  29.180  46.760  1.00  0.00    -0.179 NA
HETATM   26  C   UNL     1       2.221  28.589  47.950  1.00  0.00     0.060 A 
HETATM   27  C   UNL     1       1.333  27.457  48.313  1.00  0.00     0.073 C 
ENDBRANCH  18  20
ENDBRANCH   1  18
TORSDOF 5
ENDMDL
