MODEL 1
REMARK VINA RESULT:      -9.4      0.000      0.000
REMARK  6 active torsions:
REMARK  status: ('A' for Active; 'I' for Inactive)
REMARK    1  A    between atoms: C_4  and  C_5 
REMARK    2  A    between atoms: C_5  and  C_6 
REMARK    3  A    between atoms: C_6  and  C_7 
REMARK    4  A    between atoms: C_7  and  N_8 
REMARK    5  A    between atoms: C_11  and  C_13 
REMARK    6  A    between atoms: C_11  and  O_12 
ROOT
HETATM    1  N   UNL     1       7.428  26.094  57.148  1.00  0.00    -0.314 N 
HETATM    2  C   UNL     1       6.068  25.982  56.790  1.00  0.00     0.269 A 
HETATM    3  O   UNL     1       5.392  24.967  56.875  1.00  0.00    -0.269 OA
HETATM    4  C   UNL     1       5.588  27.415  56.377  1.00  0.00     0.198 A 
HETATM    5  C   UNL     1       6.862  28.218  56.491  1.00  0.00     0.017 A 
HETATM    6  C   UNL     1       7.896  27.402  56.964  1.00  0.00     0.047 A 
HETATM    7  C   UNL     1       7.073  29.571  56.255  1.00  0.00     0.013 A 
HETATM    8  C   UNL     1       8.348  30.092  56.480  1.00  0.00     0.001 A 
HETATM    9  C   UNL     1       9.384  29.266  56.944  1.00  0.00     0.002 A 
HETATM   10  C   UNL     1       9.163  27.908  57.193  1.00  0.00     0.030 A 
ENDROOT
BRANCH   4  11
HETATM   11  C   UNL     1       5.102  27.502  54.953  1.00  0.00     0.018 A 
HETATM   12  C   UNL     1       5.609  26.843  53.773  1.00  0.00     0.002 A 
HETATM   13  C   UNL     1       4.814  27.235  52.693  1.00  0.00     0.043 A 
HETATM   14  C   UNL     1       6.674  25.955  53.512  1.00  0.00     0.014 A 
HETATM   15  C   UNL     1       5.024  26.782  51.384  1.00  0.00     0.030 A 
HETATM   16  N   UNL     1       3.860  28.093  53.181  1.00  0.00    -0.365 N 
HETATM   17  C   UNL     1       6.087  25.903  51.162  1.00  0.00     0.002 A 
HETATM   18  C   UNL     1       6.903  25.495  52.209  1.00  0.00     0.001 A 
HETATM   19  H   UNL     1       3.140  28.528  52.621  1.00  0.00     0.165 HD
HETATM   20  C   UNL     1       4.023  28.263  54.524  1.00  0.00     0.100 A 
ENDBRANCH   4  11
BRANCH   4  21
HETATM   21  O   UNL     1       4.638  27.930  57.311  1.00  0.00    -0.371 OA
HETATM   22  H   UNL     1       5.129  28.519  57.905  1.00  0.00     0.212 HD
ENDBRANCH   4  21
BRANCH   1  23
HETATM   23  C   UNL     1       8.183  24.996  57.711  1.00  0.00     0.133 C 
BRANCH  23  24
HETATM   24  C   UNL     1       8.817  24.080  56.665  1.00  0.00     0.025 C 
BRANCH  24  25
HETATM   25  C   UNL     1       8.350  22.629  56.785  1.00  0.00     0.040 C 
BRANCH  25  26
HETATM   26  C   UNL     1       8.341  21.939  55.442  1.00  0.00    -0.058 A 
HETATM   27  C   UNL     1       7.907  22.621  54.298  1.00  0.00     0.007 A 
HETATM   28  C   UNL     1       7.881  21.981  53.058  1.00  0.00     0.001 A 
HETATM   29  C   UNL     1       8.281  20.649  52.953  1.00  0.00     0.000 A 
HETATM   30  C   UNL     1       8.705  19.960  54.087  1.00  0.00     0.001 A 
HETATM   31  C   UNL     1       8.735  20.599  55.327  1.00  0.00     0.007 A 
ENDBRANCH  25  26
ENDBRANCH  24  25
ENDBRANCH  23  24
ENDBRANCH   1  23
TORSDOF 6
ENDMDL
MODEL 2
REMARK VINA RESULT:      -9.3      2.689      7.103
REMARK  6 active torsions:
REMARK  status: ('A' for Active; 'I' for Inactive)
REMARK    1  A    between atoms: C_4  and  C_5 
REMARK    2  A    between atoms: C_5  and  C_6 
REMARK    3  A    between atoms: C_6  and  C_7 
REMARK    4  A    between atoms: C_7  and  N_8 
REMARK    5  A    between atoms: C_11  and  C_13 
REMARK    6  A    between atoms: C_11  and  O_12 
ROOT
HETATM    1  N   UNL     1       7.657  27.456  56.279  1.00  0.00    -0.314 N 
HETATM    2  C   UNL     1       7.842  26.073  56.481  1.00  0.00     0.269 A 
HETATM    3  O   UNL     1       8.670  25.568  57.226  1.00  0.00    -0.269 OA
HETATM    4  C   UNL     1       6.727  25.340  55.660  1.00  0.00     0.198 A 
HETATM    5  C   UNL     1       6.032  26.494  54.976  1.00  0.00     0.017 A 
HETATM    6  C   UNL     1       6.601  27.703  55.391  1.00  0.00     0.047 A 
HETATM    7  C   UNL     1       4.947  26.477  54.109  1.00  0.00     0.013 A 
HETATM    8  C   UNL     1       4.452  27.695  53.643  1.00  0.00     0.001 A 
HETATM    9  C   UNL     1       5.035  28.905  54.053  1.00  0.00     0.002 A 
HETATM   10  C   UNL     1       6.118  28.917  54.937  1.00  0.00     0.030 A 
ENDROOT
BRANCH   4  11
HETATM   11  C   UNL     1       7.267  24.419  54.596  1.00  0.00     0.018 A 
HETATM   12  C   UNL     1       7.555  23.006  54.672  1.00  0.00     0.002 A 
HETATM   13  C   UNL     1       8.025  22.601  53.421  1.00  0.00     0.043 A 
HETATM   14  C   UNL     1       7.469  22.028  55.686  1.00  0.00     0.014 A 
HETATM   15  C   UNL     1       8.403  21.282  53.135  1.00  0.00     0.030 A 
HETATM   16  N   UNL     1       8.026  23.708  52.609  1.00  0.00    -0.365 N 
HETATM   17  C   UNL     1       8.305  20.340  54.162  1.00  0.00     0.002 A 
HETATM   18  C   UNL     1       7.847  20.706  55.422  1.00  0.00     0.001 A 
HETATM   19  H   UNL     1       8.313  23.708  51.640  1.00  0.00     0.165 HD
HETATM   20  C   UNL     1       7.581  24.797  53.298  1.00  0.00     0.100 A 
ENDBRANCH   4  11
BRANCH   4  21
HETATM   21  O   UNL     1       5.794  24.690  56.523  1.00  0.00    -0.371 OA
HETATM   22  H   UNL     1       5.559  23.853  56.093  1.00  0.00     0.212 HD
ENDBRANCH   4  21
BRANCH   1  23
HETATM   23  C   UNL     1       8.421  28.461  56.986  1.00  0.00     0.133 C 
BRANCH  23  24
HETATM   24  C   UNL     1       7.738  28.981  58.250  1.00  0.00     0.025 C 
BRANCH  24  25
HETATM   25  C   UNL     1       7.622  30.505  58.279  1.00  0.00     0.040 C 
BRANCH  25  26
HETATM   26  C   UNL     1       7.967  31.059  59.640  1.00  0.00    -0.058 A 
HETATM   27  C   UNL     1       9.033  30.523  60.375  1.00  0.00     0.007 A 
HETATM   28  C   UNL     1       9.343  31.021  61.641  1.00  0.00     0.001 A 
HETATM   29  C   UNL     1       8.584  32.054  62.189  1.00  0.00     0.000 A 
HETATM   30  C   UNL     1       7.516  32.588  61.470  1.00  0.00     0.001 A 
HETATM   31  C   UNL     1       7.206  32.093  60.202  1.00  0.00     0.007 A 
ENDBRANCH  25  26
ENDBRANCH  24  25
ENDBRANCH  23  24
ENDBRANCH   1  23
TORSDOF 6
ENDMDL
MODEL 3
REMARK VINA RESULT:      -9.1      4.319      8.260
REMARK  6 active torsions:
REMARK  status: ('A' for Active; 'I' for Inactive)
REMARK    1  A    between atoms: C_4  and  C_5 
REMARK    2  A    between atoms: C_5  and  C_6 
REMARK    3  A    between atoms: C_6  and  C_7 
REMARK    4  A    between atoms: C_7  and  N_8 
REMARK    5  A    between atoms: C_11  and  C_13 
REMARK    6  A    between atoms: C_11  and  O_12 
ROOT
HETATM    1  N   UNL     1       7.382  30.547  58.296  1.00  0.00    -0.314 N 
HETATM    2  C   UNL     1       6.507  29.720  57.562  1.00  0.00     0.269 A 
HETATM    3  O   UNL     1       5.289  29.694  57.677  1.00  0.00    -0.269 OA
HETATM    4  C   UNL     1       7.382  28.941  56.521  1.00  0.00     0.198 A 
HETATM    5  C   UNL     1       8.775  29.408  56.872  1.00  0.00     0.017 A 
HETATM    6  C   UNL     1       8.712  30.358  57.897  1.00  0.00     0.047 A 
HETATM    7  C   UNL     1       9.989  29.067  56.289  1.00  0.00     0.013 A 
HETATM    8  C   UNL     1      11.148  29.679  56.767  1.00  0.00     0.001 A 
HETATM    9  C   UNL     1      11.081  30.623  57.804  1.00  0.00     0.002 A 
HETATM   10  C   UNL     1       9.855  30.972  58.377  1.00  0.00     0.030 A 
ENDROOT
BRANCH   4  11
HETATM   11  C   UNL     1       7.331  27.444  56.688  1.00  0.00     0.018 A 
HETATM   12  C   UNL     1       7.369  26.411  55.680  1.00  0.00     0.002 A 
HETATM   13  C   UNL     1       7.308  25.178  56.334  1.00  0.00     0.043 A 
HETATM   14  C   UNL     1       7.443  26.401  54.271  1.00  0.00     0.014 A 
HETATM   15  C   UNL     1       7.322  23.952  55.657  1.00  0.00     0.030 A 
HETATM   16  N   UNL     1       7.237  25.435  57.681  1.00  0.00    -0.365 N 
HETATM   17  C   UNL     1       7.396  23.979  54.263  1.00  0.00     0.002 A 
HETATM   18  C   UNL     1       7.453  25.185  53.576  1.00  0.00     0.001 A 
HETATM   19  H   UNL     1       7.190  24.725  58.398  1.00  0.00     0.165 HD
HETATM   20  C   UNL     1       7.247  26.780  57.904  1.00  0.00     0.100 A 
ENDBRANCH   4  11
BRANCH   4  21
HETATM   21  O   UNL     1       7.084  29.353  55.187  1.00  0.00    -0.371 OA
HETATM   22  H   UNL     1       7.937  29.488  54.744  1.00  0.00     0.212 HD
ENDBRANCH   4  21
BRANCH   1  23
HETATM   23  C   UNL     1       6.918  31.516  59.265  1.00  0.00     0.133 C 
BRANCH  23  24
HETATM   24  C   UNL     1       7.440  31.274  60.680  1.00  0.00     0.025 C 
BRANCH  24  25
HETATM   25  C   UNL     1       8.040  32.529  61.314  1.00  0.00     0.040 C 
BRANCH  25  26
HETATM   26  C   UNL     1       7.285  32.934  62.557  1.00  0.00    -0.058 A 
HETATM   27  C   UNL     1       7.929  32.959  63.801  1.00  0.00     0.007 A 
HETATM   28  C   UNL     1       7.229  33.316  64.954  1.00  0.00     0.001 A 
HETATM   29  C   UNL     1       5.876  33.642  64.877  1.00  0.00     0.000 A 
HETATM   30  C   UNL     1       5.224  33.610  63.645  1.00  0.00     0.001 A 
HETATM   31  C   UNL     1       5.923  33.257  62.490  1.00  0.00     0.007 A 
ENDBRANCH  25  26
ENDBRANCH  24  25
ENDBRANCH  23  24
ENDBRANCH   1  23
TORSDOF 6
ENDMDL
MODEL 4
REMARK VINA RESULT:      -9.1      2.452      5.212
REMARK  6 active torsions:
REMARK  status: ('A' for Active; 'I' for Inactive)
REMARK    1  A    between atoms: C_4  and  C_5 
REMARK    2  A    between atoms: C_5  and  C_6 
REMARK    3  A    between atoms: C_6  and  C_7 
REMARK    4  A    between atoms: C_7  and  N_8 
REMARK    5  A    between atoms: C_11  and  C_13 
REMARK    6  A    between atoms: C_11  and  O_12 
ROOT
HETATM    1  N   UNL     1       6.891  26.813  56.100  1.00  0.00    -0.314 N 
HETATM    2  C   UNL     1       7.764  27.695  56.769  1.00  0.00     0.269 A 
HETATM    3  O   UNL     1       8.687  27.364  57.501  1.00  0.00    -0.269 OA
HETATM    4  C   UNL     1       7.386  29.144  56.309  1.00  0.00     0.198 A 
HETATM    5  C   UNL     1       6.196  28.889  55.414  1.00  0.00     0.017 A 
HETATM    6  C   UNL     1       5.967  27.513  55.312  1.00  0.00     0.047 A 
HETATM    7  C   UNL     1       5.422  29.796  54.701  1.00  0.00     0.013 A 
HETATM    8  C   UNL     1       4.394  29.301  53.898  1.00  0.00     0.001 A 
HETATM    9  C   UNL     1       4.160  27.919  53.808  1.00  0.00     0.002 A 
HETATM   10  C   UNL     1       4.952  27.011  54.517  1.00  0.00     0.030 A 
ENDROOT
BRANCH   4  11
HETATM   11  C   UNL     1       6.944  30.041  57.436  1.00  0.00     0.018 A 
HETATM   12  C   UNL     1       7.745  30.793  58.373  1.00  0.00     0.002 A 
HETATM   13  C   UNL     1       6.873  31.481  59.220  1.00  0.00     0.043 A 
HETATM   14  C   UNL     1       9.130  30.952  58.591  1.00  0.00     0.014 A 
HETATM   15  C   UNL     1       7.312  32.314  60.257  1.00  0.00     0.030 A 
HETATM   16  N   UNL     1       5.594  31.172  58.826  1.00  0.00    -0.365 N 
HETATM   17  C   UNL     1       8.689  32.450  60.445  1.00  0.00     0.002 A 
HETATM   18  C   UNL     1       9.588  31.777  59.626  1.00  0.00     0.001 A 
HETATM   19  H   UNL     1       4.757  31.536  59.259  1.00  0.00     0.165 HD
HETATM   20  C   UNL     1       5.623  30.313  57.767  1.00  0.00     0.100 A 
ENDBRANCH   4  11
BRANCH   4  21
HETATM   21  O   UNL     1       8.430  29.725  55.526  1.00  0.00    -0.371 OA
HETATM   22  H   UNL     1       8.679  29.061  54.864  1.00  0.00     0.212 HD
ENDBRANCH   4  21
BRANCH   1  23
HETATM   23  C   UNL     1       7.023  25.374  56.173  1.00  0.00     0.133 C 
BRANCH  23  24
HETATM   24  C   UNL     1       7.793  24.763  55.003  1.00  0.00     0.025 C 
BRANCH  24  25
HETATM   25  C   UNL     1       6.960  23.764  54.200  1.00  0.00     0.040 C 
BRANCH  25  26
HETATM   26  C   UNL     1       7.577  22.387  54.222  1.00  0.00    -0.058 A 
HETATM   27  C   UNL     1       7.760  21.711  55.436  1.00  0.00     0.007 A 
HETATM   28  C   UNL     1       8.346  20.445  55.461  1.00  0.00     0.001 A 
HETATM   29  C   UNL     1       8.765  19.846  54.273  1.00  0.00     0.000 A 
HETATM   30  C   UNL     1       8.597  20.515  53.062  1.00  0.00     0.001 A 
HETATM   31  C   UNL     1       8.007  21.780  53.034  1.00  0.00     0.007 A 
ENDBRANCH  25  26
ENDBRANCH  24  25
ENDBRANCH  23  24
ENDBRANCH   1  23
TORSDOF 6
ENDMDL
MODEL 5
REMARK VINA RESULT:      -9.0      2.283      4.647
REMARK  6 active torsions:
REMARK  status: ('A' for Active; 'I' for Inactive)
REMARK    1  A    between atoms: C_4  and  C_5 
REMARK    2  A    between atoms: C_5  and  C_6 
REMARK    3  A    between atoms: C_6  and  C_7 
REMARK    4  A    between atoms: C_7  and  N_8 
REMARK    5  A    between atoms: C_11  and  C_13 
REMARK    6  A    between atoms: C_11  and  O_12 
ROOT
HETATM    1  N   UNL     1       6.855  26.239  56.648  1.00  0.00    -0.314 N 
HETATM    2  C   UNL     1       7.059  27.544  57.143  1.00  0.00     0.269 A 
HETATM    3  O   UNL     1       7.695  27.831  58.148  1.00  0.00    -0.269 OA
HETATM    4  C   UNL     1       6.414  28.529  56.110  1.00  0.00     0.198 A 
HETATM    5  C   UNL     1       5.807  27.577  55.106  1.00  0.00     0.017 A 
HETATM    6  C   UNL     1       6.113  26.258  55.458  1.00  0.00     0.047 A 
HETATM    7  C   UNL     1       5.097  27.859  53.946  1.00  0.00     0.013 A 
HETATM    8  C   UNL     1       4.677  26.792  53.151  1.00  0.00     0.001 A 
HETATM    9  C   UNL     1       4.977  25.469  53.515  1.00  0.00     0.002 A 
HETATM   10  C   UNL     1       5.704  25.193  54.676  1.00  0.00     0.030 A 
ENDROOT
BRANCH   4  11
HETATM   11  C   UNL     1       5.307  29.372  56.689  1.00  0.00     0.018 A 
HETATM   12  C   UNL     1       5.391  30.493  57.595  1.00  0.00     0.002 A 
HETATM   13  C   UNL     1       4.091  30.948  57.828  1.00  0.00     0.043 A 
HETATM   14  C   UNL     1       6.446  31.163  58.249  1.00  0.00     0.014 A 
HETATM   15  C   UNL     1       3.799  32.031  58.667  1.00  0.00     0.030 A 
HETATM   16  N   UNL     1       3.243  30.150  57.101  1.00  0.00    -0.365 N 
HETATM   17  C   UNL     1       4.867  32.673  59.298  1.00  0.00     0.002 A 
HETATM   18  C   UNL     1       6.173  32.246  59.095  1.00  0.00     0.001 A 
HETATM   19  H   UNL     1       2.239  30.255  57.073  1.00  0.00     0.165 HD
HETATM   20  C   UNL     1       3.955  29.205  56.421  1.00  0.00     0.100 A 
ENDBRANCH   4  11
BRANCH   4  21
HETATM   21  O   UNL     1       7.410  29.313  55.453  1.00  0.00    -0.371 OA
HETATM   22  H   UNL     1       8.235  29.178  55.947  1.00  0.00     0.212 HD
ENDBRANCH   4  21
BRANCH   1  23
HETATM   23  C   UNL     1       7.429  25.065  57.269  1.00  0.00     0.133 C 
BRANCH  23  24
HETATM   24  C   UNL     1       8.464  24.350  56.401  1.00  0.00     0.025 C 
BRANCH  24  25
HETATM   25  C   UNL     1       8.504  22.841  56.645  1.00  0.00     0.040 C 
BRANCH  25  26
HETATM   26  C   UNL     1       8.417  22.071  55.350  1.00  0.00    -0.058 A 
HETATM   27  C   UNL     1       8.741  20.708  55.314  1.00  0.00     0.007 A 
HETATM   28  C   UNL     1       8.679  19.997  54.114  1.00  0.00     0.001 A 
HETATM   29  C   UNL     1       8.300  20.644  52.939  1.00  0.00     0.000 A 
HETATM   30  C   UNL     1       7.985  22.001  52.963  1.00  0.00     0.001 A 
HETATM   31  C   UNL     1       8.044  22.713  54.162  1.00  0.00     0.007 A 
ENDBRANCH  25  26
ENDBRANCH  24  25
ENDBRANCH  23  24
ENDBRANCH   1  23
TORSDOF 6
ENDMDL
MODEL 6
REMARK VINA RESULT:      -8.8      2.386      6.352
REMARK  6 active torsions:
REMARK  status: ('A' for Active; 'I' for Inactive)
REMARK    1  A    between atoms: C_4  and  C_5 
REMARK    2  A    between atoms: C_5  and  C_6 
REMARK    3  A    between atoms: C_6  and  C_7 
REMARK    4  A    between atoms: C_7  and  N_8 
REMARK    5  A    between atoms: C_11  and  C_13 
REMARK    6  A    between atoms: C_11  and  O_12 
ROOT
HETATM    1  N   UNL     1       5.009  27.143  53.456  1.00  0.00    -0.314 N 
HETATM    2  C   UNL     1       5.614  25.945  53.023  1.00  0.00     0.269 A 
HETATM    3  O   UNL     1       5.152  25.176  52.192  1.00  0.00    -0.269 OA
HETATM    4  C   UNL     1       7.011  25.860  53.727  1.00  0.00     0.198 A 
HETATM    5  C   UNL     1       6.995  27.090  54.604  1.00  0.00     0.017 A 
HETATM    6  C   UNL     1       5.815  27.810  54.389  1.00  0.00     0.047 A 
HETATM    7  C   UNL     1       7.971  27.563  55.472  1.00  0.00     0.013 A 
HETATM    8  C   UNL     1       7.735  28.764  56.143  1.00  0.00     0.001 A 
HETATM    9  C   UNL     1       6.544  29.477  55.932  1.00  0.00     0.002 A 
HETATM   10  C   UNL     1       5.572  29.003  55.047  1.00  0.00     0.030 A 
ENDROOT
BRANCH   4  11
HETATM   11  C   UNL     1       7.169  24.652  54.614  1.00  0.00     0.018 A 
HETATM   12  C   UNL     1       7.484  23.290  54.253  1.00  0.00     0.002 A 
HETATM   13  C   UNL     1       7.533  22.540  55.430  1.00  0.00     0.043 A 
HETATM   14  C   UNL     1       7.728  22.616  53.038  1.00  0.00     0.014 A 
HETATM   15  C   UNL     1       7.816  21.168  55.452  1.00  0.00     0.030 A 
HETATM   16  N   UNL     1       7.263  23.395  56.469  1.00  0.00    -0.365 N 
HETATM   17  C   UNL     1       8.052  20.532  54.231  1.00  0.00     0.002 A 
HETATM   18  C   UNL     1       8.007  21.243  53.039  1.00  0.00     0.001 A 
HETATM   19  H   UNL     1       7.238  23.126  57.442  1.00  0.00     0.165 HD
HETATM   20  C   UNL     1       7.040  24.655  55.996  1.00  0.00     0.100 A 
ENDBRANCH   4  11
BRANCH   4  21
HETATM   21  O   UNL     1       8.073  25.987  52.782  1.00  0.00    -0.371 OA
HETATM   22  H   UNL     1       8.848  25.560  53.181  1.00  0.00     0.212 HD
ENDBRANCH   4  21
BRANCH   1  23
HETATM   23  C   UNL     1       3.758  27.631  52.916  1.00  0.00     0.133 C 
BRANCH  23  24
HETATM   24  C   UNL     1       3.921  28.779  51.921  1.00  0.00     0.025 C 
BRANCH  24  25
HETATM   25  C   UNL     1       4.734  28.386  50.687  1.00  0.00     0.040 C 
BRANCH  25  26
HETATM   26  C   UNL     1       3.875  27.692  49.658  1.00  0.00    -0.058 A 
HETATM   27  C   UNL     1       2.631  28.226  49.297  1.00  0.00     0.007 A 
HETATM   28  C   UNL     1       1.827  27.577  48.359  1.00  0.00     0.001 A 
HETATM   29  C   UNL     1       2.254  26.382  47.780  1.00  0.00     0.000 A 
HETATM   30  C   UNL     1       3.486  25.838  48.141  1.00  0.00     0.001 A 
HETATM   31  C   UNL     1       4.293  26.488  49.076  1.00  0.00     0.007 A 
ENDBRANCH  25  26
ENDBRANCH  24  25
ENDBRANCH  23  24
ENDBRANCH   1  23
TORSDOF 6
ENDMDL
MODEL 7
REMARK VINA RESULT:      -8.8      2.121      3.282
REMARK  6 active torsions:
REMARK  status: ('A' for Active; 'I' for Inactive)
REMARK    1  A    between atoms: C_4  and  C_5 
REMARK    2  A    between atoms: C_5  and  C_6 
REMARK    3  A    between atoms: C_6  and  C_7 
REMARK    4  A    between atoms: C_7  and  N_8 
REMARK    5  A    between atoms: C_11  and  C_13 
REMARK    6  A    between atoms: C_11  and  O_12 
ROOT
HETATM    1  N   UNL     1       6.617  26.649  54.819  1.00  0.00    -0.314 N 
HETATM    2  C   UNL     1       6.273  26.207  53.525  1.00  0.00     0.269 A 
HETATM    3  O   UNL     1       6.820  25.298  52.916  1.00  0.00    -0.269 OA
HETATM    4  C   UNL     1       5.011  27.024  53.086  1.00  0.00     0.198 A 
HETATM    5  C   UNL     1       4.821  27.961  54.256  1.00  0.00     0.017 A 
HETATM    6  C   UNL     1       5.772  27.683  55.244  1.00  0.00     0.047 A 
HETATM    7  C   UNL     1       3.850  28.935  54.454  1.00  0.00     0.013 A 
HETATM    8  C   UNL     1       3.861  29.646  55.655  1.00  0.00     0.001 A 
HETATM    9  C   UNL     1       4.824  29.371  56.639  1.00  0.00     0.002 A 
HETATM   10  C   UNL     1       5.790  28.380  56.439  1.00  0.00     0.030 A 
ENDROOT
BRANCH   4  11
HETATM   11  C   UNL     1       5.229  27.855  51.848  1.00  0.00     0.018 A 
HETATM   12  C   UNL     1       5.030  27.499  50.463  1.00  0.00     0.002 A 
HETATM   13  C   UNL     1       5.357  28.614  49.687  1.00  0.00     0.043 A 
HETATM   14  C   UNL     1       4.611  26.333  49.788  1.00  0.00     0.014 A 
HETATM   15  C   UNL     1       5.280  28.622  48.289  1.00  0.00     0.030 A 
HETATM   16  N   UNL     1       5.737  29.612  50.550  1.00  0.00    -0.365 N 
HETATM   17  C   UNL     1       4.860  27.452  47.653  1.00  0.00     0.002 A 
HETATM   18  C   UNL     1       4.532  26.320  48.390  1.00  0.00     0.001 A 
HETATM   19  H   UNL     1       6.021  30.539  50.265  1.00  0.00     0.165 HD
HETATM   20  C   UNL     1       5.669  29.172  51.839  1.00  0.00     0.100 A 
ENDBRANCH   4  11
BRANCH   4  21
HETATM   21  O   UNL     1       3.861  26.183  52.984  1.00  0.00    -0.371 OA
HETATM   22  H   UNL     1       3.108  26.768  52.808  1.00  0.00     0.212 HD
ENDBRANCH   4  21
BRANCH   1  23
HETATM   23  C   UNL     1       7.659  26.029  55.609  1.00  0.00     0.133 C 
BRANCH  23  24
HETATM   24  C   UNL     1       7.262  24.680  56.207  1.00  0.00     0.025 C 
BRANCH  24  25
HETATM   25  C   UNL     1       8.457  23.753  56.427  1.00  0.00     0.040 C 
BRANCH  25  26
HETATM   26  C   UNL     1       8.402  22.555  55.510  1.00  0.00    -0.058 A 
HETATM   27  C   UNL     1       8.391  21.257  56.039  1.00  0.00     0.007 A 
HETATM   28  C   UNL     1       8.358  20.148  55.193  1.00  0.00     0.001 A 
HETATM   29  C   UNL     1       8.345  20.325  53.810  1.00  0.00     0.000 A 
HETATM   30  C   UNL     1       8.366  21.612  53.275  1.00  0.00     0.001 A 
HETATM   31  C   UNL     1       8.396  22.723  54.119  1.00  0.00     0.007 A 
ENDBRANCH  25  26
ENDBRANCH  24  25
ENDBRANCH  23  24
ENDBRANCH   1  23
TORSDOF 6
ENDMDL
MODEL 8
REMARK VINA RESULT:      -8.7      2.593      7.008
REMARK  6 active torsions:
REMARK  status: ('A' for Active; 'I' for Inactive)
REMARK    1  A    between atoms: C_4  and  C_5 
REMARK    2  A    between atoms: C_5  and  C_6 
REMARK    3  A    between atoms: C_6  and  C_7 
REMARK    4  A    between atoms: C_7  and  N_8 
REMARK    5  A    between atoms: C_11  and  C_13 
REMARK    6  A    between atoms: C_11  and  O_12 
ROOT
HETATM    1  N   UNL     1       5.947  26.962  52.660  1.00  0.00    -0.314 N 
HETATM    2  C   UNL     1       5.450  27.527  53.852  1.00  0.00     0.269 A 
HETATM    3  O   UNL     1       4.742  28.521  53.927  1.00  0.00    -0.269 OA
HETATM    4  C   UNL     1       5.891  26.582  55.021  1.00  0.00     0.198 A 
HETATM    5  C   UNL     1       6.716  25.547  54.294  1.00  0.00     0.017 A 
HETATM    6  C   UNL     1       6.697  25.806  52.919  1.00  0.00     0.047 A 
HETATM    7  C   UNL     1       7.377  24.435  54.800  1.00  0.00     0.013 A 
HETATM    8  C   UNL     1       8.040  23.594  53.906  1.00  0.00     0.001 A 
HETATM    9  C   UNL     1       8.027  23.865  52.528  1.00  0.00     0.002 A 
HETATM   10  C   UNL     1       7.349  24.978  52.023  1.00  0.00     0.030 A 
ENDROOT
BRANCH   4  11
HETATM   11  C   UNL     1       6.772  27.254  56.043  1.00  0.00     0.018 A 
HETATM   12  C   UNL     1       7.934  28.086  55.840  1.00  0.00     0.002 A 
HETATM   13  C   UNL     1       8.397  28.481  57.098  1.00  0.00     0.043 A 
HETATM   14  C   UNL     1       8.647  28.538  54.709  1.00  0.00     0.014 A 
HETATM   15  C   UNL     1       9.519  29.302  57.277  1.00  0.00     0.030 A 
HETATM   16  N   UNL     1       7.561  27.924  58.033  1.00  0.00    -0.365 N 
HETATM   17  C   UNL     1      10.200  29.732  56.136  1.00  0.00     0.002 A 
HETATM   18  C   UNL     1       9.773  29.354  54.869  1.00  0.00     0.001 A 
HETATM   19  H   UNL     1       7.653  28.048  59.031  1.00  0.00     0.165 HD
HETATM   20  C   UNL     1       6.592  27.187  57.418  1.00  0.00     0.100 A 
ENDBRANCH   4  11
BRANCH   4  21
HETATM   21  O   UNL     1       4.764  25.934  55.613  1.00  0.00    -0.371 OA
HETATM   22  H   UNL     1       4.214  26.636  55.996  1.00  0.00     0.212 HD
ENDBRANCH   4  21
BRANCH   1  23
HETATM   23  C   UNL     1       5.628  27.488  51.350  1.00  0.00     0.133 C 
BRANCH  23  24
HETATM   24  C   UNL     1       4.897  26.496  50.447  1.00  0.00     0.025 C 
BRANCH  24  25
HETATM   25  C   UNL     1       4.899  26.917  48.977  1.00  0.00     0.040 C 
BRANCH  25  26
HETATM   26  C   UNL     1       3.495  27.046  48.438  1.00  0.00    -0.058 A 
HETATM   27  C   UNL     1       3.071  26.248  47.367  1.00  0.00     0.007 A 
HETATM   28  C   UNL     1       1.779  26.378  46.856  1.00  0.00     0.001 A 
HETATM   29  C   UNL     1       0.902  27.313  47.404  1.00  0.00     0.000 A 
HETATM   30  C   UNL     1       1.318  28.118  48.463  1.00  0.00     0.001 A 
HETATM   31  C   UNL     1       2.608  27.987  48.978  1.00  0.00     0.007 A 
ENDBRANCH  25  26
ENDBRANCH  24  25
ENDBRANCH  23  24
ENDBRANCH   1  23
TORSDOF 6
ENDMDL
MODEL 9
REMARK VINA RESULT:      -8.7      6.783      9.978
REMARK  6 active torsions:
REMARK  status: ('A' for Active; 'I' for Inactive)
REMARK    1  A    between atoms: C_4  and  C_5 
REMARK    2  A    between atoms: C_5  and  C_6 
REMARK    3  A    between atoms: C_6  and  C_7 
REMARK    4  A    between atoms: C_7  and  N_8 
REMARK    5  A    between atoms: C_11  and  C_13 
REMARK    6  A    between atoms: C_11  and  O_12 
ROOT
HETATM    1  N   UNL     1       5.417  32.461  60.175  1.00  0.00    -0.314 N 
HETATM    2  C   UNL     1       4.478  32.510  61.226  1.00  0.00     0.269 A 
HETATM    3  O   UNL     1       3.266  32.606  61.092  1.00  0.00    -0.269 OA
HETATM    4  C   UNL     1       5.277  32.312  62.559  1.00  0.00     0.198 A 
HETATM    5  C   UNL     1       6.702  32.241  62.064  1.00  0.00     0.017 A 
HETATM    6  C   UNL     1       6.722  32.312  60.667  1.00  0.00     0.047 A 
HETATM    7  C   UNL     1       7.876  32.066  62.786  1.00  0.00     0.013 A 
HETATM    8  C   UNL     1       9.079  31.986  62.084  1.00  0.00     0.001 A 
HETATM    9  C   UNL     1       9.095  32.069  60.682  1.00  0.00     0.002 A 
HETATM   10  C   UNL     1       7.909  32.230  59.960  1.00  0.00     0.030 A 
ENDROOT
BRANCH   4  11
HETATM   11  C   UNL     1       5.165  33.477  63.509  1.00  0.00     0.018 A 
HETATM   12  C   UNL     1       5.306  34.889  63.243  1.00  0.00     0.002 A 
HETATM   13  C   UNL     1       5.101  35.569  64.445  1.00  0.00     0.043 A 
HETATM   14  C   UNL     1       5.596  35.659  62.097  1.00  0.00     0.014 A 
HETATM   15  C   UNL     1       5.165  36.965  64.555  1.00  0.00     0.030 A 
HETATM   16  N   UNL     1       4.844  34.626  65.409  1.00  0.00    -0.365 N 
HETATM   17  C   UNL     1       5.453  37.696  63.401  1.00  0.00     0.002 A 
HETATM   18  C   UNL     1       5.669  37.055  62.188  1.00  0.00     0.001 A 
HETATM   19  H   UNL     1       4.649  34.833  66.378  1.00  0.00     0.165 HD
HETATM   20  C   UNL     1       4.883  33.376  64.865  1.00  0.00     0.100 A 
ENDBRANCH   4  11
BRANCH   4  21
HETATM   21  O   UNL     1       4.946  31.068  63.179  1.00  0.00    -0.371 OA
HETATM   22  H   UNL     1       4.482  31.287  64.002  1.00  0.00     0.212 HD
ENDBRANCH   4  21
BRANCH   1  23
HETATM   23  C   UNL     1       5.035  32.475  58.780  1.00  0.00     0.133 C 
BRANCH  23  24
HETATM   24  C   UNL     1       4.893  31.085  58.163  1.00  0.00     0.025 C 
BRANCH  24  25
HETATM   25  C   UNL     1       5.803  30.876  56.952  1.00  0.00     0.040 C 
BRANCH  25  26
HETATM   26  C   UNL     1       6.622  29.615  57.089  1.00  0.00    -0.058 A 
HETATM   27  C   UNL     1       8.021  29.680  57.132  1.00  0.00     0.007 A 
HETATM   28  C   UNL     1       8.781  28.514  57.241  1.00  0.00     0.001 A 
HETATM   29  C   UNL     1       8.150  27.272  57.298  1.00  0.00     0.000 A 
HETATM   30  C   UNL     1       6.759  27.197  57.247  1.00  0.00     0.001 A 
HETATM   31  C   UNL     1       5.997  28.362  57.141  1.00  0.00     0.007 A 
ENDBRANCH  25  26
ENDBRANCH  24  25
ENDBRANCH  23  24
ENDBRANCH   1  23
TORSDOF 6
ENDMDL
MODEL 10
REMARK VINA RESULT:      -8.5      2.030      3.324
REMARK  6 active torsions:
REMARK  status: ('A' for Active; 'I' for Inactive)
REMARK    1  A    between atoms: C_4  and  C_5 
REMARK    2  A    between atoms: C_5  and  C_6 
REMARK    3  A    between atoms: C_6  and  C_7 
REMARK    4  A    between atoms: C_7  and  N_8 
REMARK    5  A    between atoms: C_11  and  C_13 
REMARK    6  A    between atoms: C_11  and  O_12 
ROOT
HETATM    1  N   UNL     1       6.947  26.704  55.685  1.00  0.00    -0.314 N 
HETATM    2  C   UNL     1       5.680  26.795  55.075  1.00  0.00     0.269 A 
HETATM    3  O   UNL     1       5.195  25.968  54.315  1.00  0.00    -0.269 OA
HETATM    4  C   UNL     1       4.995  28.086  55.639  1.00  0.00     0.198 A 
HETATM    5  C   UNL     1       6.081  28.657  56.521  1.00  0.00     0.017 A 
HETATM    6  C   UNL     1       7.186  27.799  56.527  1.00  0.00     0.047 A 
HETATM    7  C   UNL     1       6.066  29.806  57.301  1.00  0.00     0.013 A 
HETATM    8  C   UNL     1       7.191  30.097  58.074  1.00  0.00     0.001 A 
HETATM    9  C   UNL     1       8.302  29.238  58.067  1.00  0.00     0.002 A 
HETATM   10  C   UNL     1       8.306  28.076  57.290  1.00  0.00     0.030 A 
ENDROOT
BRANCH   4  11
HETATM   11  C   UNL     1       4.664  29.107  54.581  1.00  0.00     0.018 A 
HETATM   12  C   UNL     1       3.799  30.261  54.664  1.00  0.00     0.002 A 
HETATM   13  C   UNL     1       3.829  30.902  53.423  1.00  0.00     0.043 A 
HETATM   14  C   UNL     1       2.986  30.821  55.671  1.00  0.00     0.014 A 
HETATM   15  C   UNL     1       3.099  32.066  53.146  1.00  0.00     0.030 A 
HETATM   16  N   UNL     1       4.671  30.182  52.612  1.00  0.00    -0.365 N 
HETATM   17  C   UNL     1       2.305  32.595  54.166  1.00  0.00     0.002 A 
HETATM   18  C   UNL     1       2.246  31.982  55.411  1.00  0.00     0.001 A 
HETATM   19  H   UNL     1       4.888  30.421  51.655  1.00  0.00     0.165 HD
HETATM   20  C   UNL     1       5.171  29.109  53.289  1.00  0.00     0.100 A 
ENDBRANCH   4  11
BRANCH   4  21
HETATM   21  O   UNL     1       3.869  27.759  56.454  1.00  0.00    -0.371 OA
HETATM   22  H   UNL     1       3.476  28.602  56.730  1.00  0.00     0.212 HD
ENDBRANCH   4  21
BRANCH   1  23
HETATM   23  C   UNL     1       7.823  25.565  55.509  1.00  0.00     0.133 C 
BRANCH  23  24
HETATM   24  C   UNL     1       7.435  24.351  56.351  1.00  0.00     0.025 C 
BRANCH  24  25
HETATM   25  C   UNL     1       8.546  23.303  56.431  1.00  0.00     0.040 C 
BRANCH  25  26
HETATM   26  C   UNL     1       8.426  22.286  55.322  1.00  0.00    -0.058 A 
HETATM   27  C   UNL     1       8.721  20.938  55.562  1.00  0.00     0.007 A 
HETATM   28  C   UNL     1       8.628  19.998  54.535  1.00  0.00     0.001 A 
HETATM   29  C   UNL     1       8.249  20.400  53.254  1.00  0.00     0.000 A 
HETATM   30  C   UNL     1       7.963  21.741  53.004  1.00  0.00     0.001 A 
HETATM   31  C   UNL     1       8.052  22.681  54.031  1.00  0.00     0.007 A 
ENDBRANCH  25  26
ENDBRANCH  24  25
ENDBRANCH  23  24
ENDBRANCH   1  23
TORSDOF 6
ENDMDL
