MODEL 1
REMARK VINA RESULT:      -8.6      0.000      0.000
REMARK  3 active torsions:
REMARK  status: ('A' for Active; 'I' for Inactive)
REMARK    1  A    between atoms: C_2  and  N_3 
REMARK       I    between atoms: N_3  and  C_4 
REMARK    2  A    between atoms: C_4  and  C_5 
REMARK    3  A    between atoms: C_5  and  C_6 
ROOT
HETATM    1  C   UNL     1       6.717  26.745  56.099  1.00  0.00     0.286 C 
HETATM    2  N   UNL     1       7.671  27.112  54.965  1.00  0.00    -0.056 N 
HETATM    3  H   UNL     1       7.996  28.070  55.151  1.00  0.00     0.278 HD
HETATM    4  H   UNL     1       8.534  26.538  55.074  1.00  0.00     0.278 HD
HETATM    5  C   UNL     1       7.148  27.060  53.560  1.00  0.00     0.209 C 
HETATM    6  C   UNL     1       5.792  27.798  53.490  1.00  0.00     0.115 C 
HETATM    7  N   UNL     1       4.872  27.382  54.545  1.00  0.00    -0.353 N 
HETATM    8  C   UNL     1       5.261  27.164  55.842  1.00  0.00     0.249 C 
HETATM    9  O   UNL     1       4.432  27.208  56.746  1.00  0.00    -0.271 OA
HETATM   10  C   UNL     1       7.092  25.620  53.052  1.00  0.00     0.035 C 
HETATM   11  C   UNL     1       6.481  25.553  51.655  1.00  0.00     0.002 C 
HETATM   12  C   UNL     1       5.099  26.199  51.629  1.00  0.00     0.002 C 
HETATM   13  C   UNL     1       5.147  27.650  52.107  1.00  0.00     0.027 C 
HETATM   14  H   UNL     1       3.903  27.695  54.482  1.00  0.00     0.163 HD
ENDROOT
BRANCH   1  15
HETATM   15  C   UNL     1       6.721  25.250  56.465  1.00  0.00     0.146 C 
BRANCH  15  16
HETATM   16  C   UNL     1       7.932  24.827  57.247  1.00  0.00     0.224 C 
HETATM   17  N   UNL     1       8.610  23.681  56.985  1.00  0.00    -0.327 N 
HETATM   18  H   UNL     1       9.380  23.556  57.638  1.00  0.00     0.169 HD
HETATM   19  O   UNL     1       8.358  25.576  58.138  1.00  0.00    -0.273 OA
BRANCH  17  20
HETATM   20  C   UNL     1       8.496  22.663  56.016  1.00  0.00     0.034 A 
HETATM   21  C   UNL     1       8.074  21.351  56.245  1.00  0.00     0.032 A 
HETATM   22  C   UNL     1       7.986  20.436  55.187  1.00  0.00     0.044 A 
HETATM   23  C   UNL     1       8.317  20.828  53.898  1.00  0.00     0.116 A 
HETATM   24  C   UNL     1       8.738  22.123  53.645  1.00  0.00     0.044 A 
HETATM   25  F   UNL     1       8.226  19.950  52.894  1.00  0.00    -0.206 F 
HETATM   26  C   UNL     1       8.826  23.036  54.700  1.00  0.00     0.032 A 
ENDBRANCH  17  20
ENDBRANCH  15  16
ENDBRANCH   1  15
TORSDOF 3
ENDMDL
MODEL 2
REMARK VINA RESULT:      -8.2      1.877      3.240
REMARK  3 active torsions:
REMARK  status: ('A' for Active; 'I' for Inactive)
REMARK    1  A    between atoms: C_2  and  N_3 
REMARK       I    between atoms: N_3  and  C_4 
REMARK    2  A    between atoms: C_4  and  C_5 
REMARK    3  A    between atoms: C_5  and  C_6 
ROOT
HETATM    1  C   UNL     1       5.725  26.090  55.738  1.00  0.00     0.286 C 
HETATM    2  N   UNL     1       5.084  26.664  56.999  1.00  0.00    -0.056 N 
HETATM    3  H   UNL     1       4.175  26.195  57.108  1.00  0.00     0.278 HD
HETATM    4  H   UNL     1       5.631  26.325  57.819  1.00  0.00     0.278 HD
HETATM    5  C   UNL     1       4.856  28.145  57.063  1.00  0.00     0.209 C 
HETATM    6  C   UNL     1       4.179  28.615  55.755  1.00  0.00     0.115 C 
HETATM    7  N   UNL     1       4.849  28.109  54.562  1.00  0.00    -0.353 N 
HETATM    8  C   UNL     1       5.322  26.826  54.450  1.00  0.00     0.249 C 
HETATM    9  O   UNL     1       5.508  26.335  53.341  1.00  0.00    -0.271 OA
HETATM   10  C   UNL     1       6.156  28.883  57.382  1.00  0.00     0.035 C 
HETATM   11  C   UNL     1       5.948  30.395  57.363  1.00  0.00     0.002 C 
HETATM   12  C   UNL     1       5.370  30.853  56.027  1.00  0.00     0.002 C 
HETATM   13  C   UNL     1       4.055  30.143  55.711  1.00  0.00     0.027 C 
HETATM   14  H   UNL     1       4.571  28.495  53.659  1.00  0.00     0.163 HD
ENDROOT
BRANCH   1  15
HETATM   15  C   UNL     1       7.263  26.028  55.787  1.00  0.00     0.146 C 
BRANCH  15  16
HETATM   16  C   UNL     1       7.793  25.155  56.888  1.00  0.00     0.224 C 
HETATM   17  N   UNL     1       8.076  23.840  56.708  1.00  0.00    -0.327 N 
HETATM   18  H   UNL     1       8.396  23.415  57.575  1.00  0.00     0.169 HD
HETATM   19  O   UNL     1       8.023  25.664  57.994  1.00  0.00    -0.273 OA
BRANCH  17  20
HETATM   20  C   UNL     1       8.046  22.963  55.604  1.00  0.00     0.034 A 
HETATM   21  C   UNL     1       8.141  23.326  54.259  1.00  0.00     0.032 A 
HETATM   22  C   UNL     1       8.117  22.350  53.254  1.00  0.00     0.044 A 
HETATM   23  C   UNL     1       7.997  21.009  53.588  1.00  0.00     0.116 A 
HETATM   24  C   UNL     1       7.899  20.623  54.914  1.00  0.00     0.044 A 
HETATM   25  F   UNL     1       7.978  20.085  52.622  1.00  0.00    -0.206 F 
HETATM   26  C   UNL     1       7.925  21.596  55.917  1.00  0.00     0.032 A 
ENDBRANCH  17  20
ENDBRANCH  15  16
ENDBRANCH   1  15
TORSDOF 3
ENDMDL
MODEL 3
REMARK VINA RESULT:      -8.0      3.954      6.682
REMARK  3 active torsions:
REMARK  status: ('A' for Active; 'I' for Inactive)
REMARK    1  A    between atoms: C_2  and  N_3 
REMARK       I    between atoms: N_3  and  C_4 
REMARK    2  A    between atoms: C_4  and  C_5 
REMARK    3  A    between atoms: C_5  and  C_6 
ROOT
HETATM    1  C   UNL     1       6.945  26.015  56.008  1.00  0.00     0.286 C 
HETATM    2  N   UNL     1       6.038  25.235  55.058  1.00  0.00    -0.056 N 
HETATM    3  H   UNL     1       5.180  25.017  55.581  1.00  0.00     0.278 HD
HETATM    4  H   UNL     1       5.711  25.891  54.318  1.00  0.00     0.278 HD
HETATM    5  C   UNL     1       6.565  23.960  54.470  1.00  0.00     0.209 C 
HETATM    6  C   UNL     1       7.174  23.091  55.595  1.00  0.00     0.115 C 
HETATM    7  N   UNL     1       8.089  23.842  56.450  1.00  0.00    -0.353 N 
HETATM    8  C   UNL     1       7.841  25.121  56.880  1.00  0.00     0.249 C 
HETATM    9  O   UNL     1       8.409  25.553  57.878  1.00  0.00    -0.271 OA
HETATM   10  C   UNL     1       7.531  24.246  53.322  1.00  0.00     0.035 C 
HETATM   11  C   UNL     1       8.135  22.955  52.777  1.00  0.00     0.002 C 
HETATM   12  C   UNL     1       8.819  22.159  53.883  1.00  0.00     0.002 C 
HETATM   13  C   UNL     1       7.855  21.841  55.025  1.00  0.00     0.027 C 
HETATM   14  H   UNL     1       8.658  23.318  57.114  1.00  0.00     0.163 HD
ENDROOT
BRANCH   1  15
HETATM   15  C   UNL     1       7.844  27.051  55.311  1.00  0.00     0.146 C 
BRANCH  15  16
HETATM   16  C   UNL     1       7.108  28.283  54.867  1.00  0.00     0.224 C 
HETATM   17  N   UNL     1       7.073  29.420  55.607  1.00  0.00    -0.327 N 
HETATM   18  H   UNL     1       6.502  30.131  55.154  1.00  0.00     0.169 HD
HETATM   19  O   UNL     1       6.546  28.277  53.762  1.00  0.00    -0.273 OA
BRANCH  17  20
HETATM   20  C   UNL     1       7.657  29.829  56.823  1.00  0.00     0.034 A 
HETATM   21  C   UNL     1       6.973  30.236  57.971  1.00  0.00     0.032 A 
HETATM   22  C   UNL     1       7.676  30.600  59.127  1.00  0.00     0.044 A 
HETATM   23  C   UNL     1       9.063  30.561  59.141  1.00  0.00     0.116 A 
HETATM   24  C   UNL     1       9.764  30.162  58.016  1.00  0.00     0.044 A 
HETATM   25  F   UNL     1       9.724  30.908  60.250  1.00  0.00    -0.206 F 
HETATM   26  C   UNL     1       9.064  29.797  56.863  1.00  0.00     0.032 A 
ENDBRANCH  17  20
ENDBRANCH  15  16
ENDBRANCH   1  15
TORSDOF 3
ENDMDL
MODEL 4
REMARK VINA RESULT:      -8.0      2.361      3.889
REMARK  3 active torsions:
REMARK  status: ('A' for Active; 'I' for Inactive)
REMARK    1  A    between atoms: C_2  and  N_3 
REMARK       I    between atoms: N_3  and  C_4 
REMARK    2  A    between atoms: C_4  and  C_5 
REMARK    3  A    between atoms: C_5  and  C_6 
ROOT
HETATM    1  C   UNL     1       5.778  25.871  54.377  1.00  0.00     0.286 C 
HETATM    2  N   UNL     1       5.843  25.535  55.865  1.00  0.00    -0.056 N 
HETATM    3  H   UNL     1       4.967  25.050  56.097  1.00  0.00     0.278 HD
HETATM    4  H   UNL     1       6.570  24.800  55.996  1.00  0.00     0.278 HD
HETATM    5  C   UNL     1       6.022  26.665  56.835  1.00  0.00     0.209 C 
HETATM    6  C   UNL     1       5.019  27.793  56.498  1.00  0.00     0.115 C 
HETATM    7  N   UNL     1       5.023  28.142  55.081  1.00  0.00    -0.353 N 
HETATM    8  C   UNL     1       5.091  27.211  54.075  1.00  0.00     0.249 C 
HETATM    9  O   UNL     1       4.701  27.498  52.947  1.00  0.00    -0.271 OA
HETATM   10  C   UNL     1       7.478  27.128  56.870  1.00  0.00     0.035 C 
HETATM   11  C   UNL     1       7.650  28.333  57.791  1.00  0.00     0.002 C 
HETATM   12  C   UNL     1       6.722  29.473  57.382  1.00  0.00     0.002 C 
HETATM   13  C   UNL     1       5.259  29.030  57.371  1.00  0.00     0.027 C 
HETATM   14  H   UNL     1       4.514  28.979  54.795  1.00  0.00     0.163 HD
ENDROOT
BRANCH   1  15
HETATM   15  C   UNL     1       7.147  25.871  53.672  1.00  0.00     0.146 C 
BRANCH  15  16
HETATM   16  C   UNL     1       7.187  25.012  52.440  1.00  0.00     0.224 C 
HETATM   17  N   UNL     1       7.610  23.723  52.460  1.00  0.00    -0.327 N 
HETATM   18  H   UNL     1       7.590  23.319  51.526  1.00  0.00     0.169 HD
HETATM   19  O   UNL     1       6.775  25.484  51.370  1.00  0.00    -0.273 OA
BRANCH  17  20
HETATM   20  C   UNL     1       8.038  22.837  53.469  1.00  0.00     0.034 A 
HETATM   21  C   UNL     1       8.498  23.193  54.739  1.00  0.00     0.032 A 
HETATM   22  C   UNL     1       8.878  22.209  55.662  1.00  0.00     0.044 A 
HETATM   23  C   UNL     1       8.800  20.867  55.320  1.00  0.00     0.116 A 
HETATM   24  C   UNL     1       8.348  20.487  54.068  1.00  0.00     0.044 A 
HETATM   25  F   UNL     1       9.161  19.936  56.209  1.00  0.00    -0.206 F 
HETATM   26  C   UNL     1       7.968  21.468  53.147  1.00  0.00     0.032 A 
ENDBRANCH  17  20
ENDBRANCH  15  16
ENDBRANCH   1  15
TORSDOF 3
ENDMDL
MODEL 5
REMARK VINA RESULT:      -7.9      3.189      5.152
REMARK  3 active torsions:
REMARK  status: ('A' for Active; 'I' for Inactive)
REMARK    1  A    between atoms: C_2  and  N_3 
REMARK       I    between atoms: N_3  and  C_4 
REMARK    2  A    between atoms: C_4  and  C_5 
REMARK    3  A    between atoms: C_5  and  C_6 
ROOT
HETATM    1  C   UNL     1       6.013  28.755  56.942  1.00  0.00     0.286 C 
HETATM    2  N   UNL     1       7.094  27.936  57.645  1.00  0.00    -0.056 N 
HETATM    3  H   UNL     1       6.681  27.594  58.523  1.00  0.00     0.278 HD
HETATM    4  H   UNL     1       7.244  27.065  57.092  1.00  0.00     0.278 HD
HETATM    5  C   UNL     1       8.392  28.613  57.970  1.00  0.00     0.209 C 
HETATM    6  C   UNL     1       8.104  29.970  58.652  1.00  0.00     0.115 C 
HETATM    7  N   UNL     1       7.117  30.765  57.927  1.00  0.00    -0.353 N 
HETATM    8  C   UNL     1       5.983  30.231  57.368  1.00  0.00     0.249 C 
HETATM    9  O   UNL     1       5.020  30.953  57.129  1.00  0.00    -0.271 OA
HETATM   10  C   UNL     1       9.275  28.724  56.728  1.00  0.00     0.035 C 
HETATM   11  C   UNL     1      10.560  29.488  57.035  1.00  0.00     0.002 C 
HETATM   12  C   UNL     1      10.255  30.866  57.615  1.00  0.00     0.002 C 
HETATM   13  C   UNL     1       9.395  30.766  58.875  1.00  0.00     0.027 C 
HETATM   14  H   UNL     1       6.984  31.735  58.212  1.00  0.00     0.163 HD
ENDROOT
BRANCH   1  15
HETATM   15  C   UNL     1       6.086  28.706  55.406  1.00  0.00     0.146 C 
BRANCH  15  16
HETATM   16  C   UNL     1       4.841  28.165  54.763  1.00  0.00     0.224 C 
HETATM   17  N   UNL     1       4.727  26.873  54.363  1.00  0.00    -0.327 N 
HETATM   18  H   UNL     1       3.822  26.706  53.927  1.00  0.00     0.169 HD
HETATM   19  O   UNL     1       3.863  28.914  54.633  1.00  0.00    -0.273 OA
BRANCH  17  20
HETATM   20  C   UNL     1       5.557  25.736  54.438  1.00  0.00     0.034 A 
HETATM   21  C   UNL     1       6.042  25.145  55.607  1.00  0.00     0.032 A 
HETATM   22  C   UNL     1       6.847  24.000  55.545  1.00  0.00     0.044 A 
HETATM   23  C   UNL     1       7.170  23.441  54.317  1.00  0.00     0.116 A 
HETATM   24  C   UNL     1       6.702  24.008  53.144  1.00  0.00     0.044 A 
HETATM   25  F   UNL     1       7.936  22.346  54.268  1.00  0.00    -0.206 F 
HETATM   26  C   UNL     1       5.898  25.150  53.205  1.00  0.00     0.032 A 
ENDBRANCH  17  20
ENDBRANCH  15  16
ENDBRANCH   1  15
TORSDOF 3
ENDMDL
MODEL 6
REMARK VINA RESULT:      -7.9      4.245      6.699
REMARK  3 active torsions:
REMARK  status: ('A' for Active; 'I' for Inactive)
REMARK    1  A    between atoms: C_2  and  N_3 
REMARK       I    between atoms: N_3  and  C_4 
REMARK    2  A    between atoms: C_4  and  C_5 
REMARK    3  A    between atoms: C_5  and  C_6 
ROOT
HETATM    1  C   UNL     1       6.449  25.700  56.600  1.00  0.00     0.286 C 
HETATM    2  N   UNL     1       5.385  25.360  55.559  1.00  0.00    -0.056 N 
HETATM    3  H   UNL     1       4.794  24.625  55.969  1.00  0.00     0.278 HD
HETATM    4  H   UNL     1       4.740  26.175  55.482  1.00  0.00     0.278 HD
HETATM    5  C   UNL     1       5.844  24.893  54.209  1.00  0.00     0.209 C 
HETATM    6  C   UNL     1       6.911  23.788  54.386  1.00  0.00     0.115 C 
HETATM    7  N   UNL     1       7.954  24.162  55.336  1.00  0.00    -0.353 N 
HETATM    8  C   UNL     1       7.699  24.810  56.518  1.00  0.00     0.249 C 
HETATM    9  O   UNL     1       8.511  24.751  57.437  1.00  0.00    -0.271 OA
HETATM   10  C   UNL     1       6.312  26.070  53.355  1.00  0.00     0.035 C 
HETATM   11  C   UNL     1       6.859  25.591  52.013  1.00  0.00     0.002 C 
HETATM   12  C   UNL     1       7.981  24.575  52.208  1.00  0.00     0.002 C 
HETATM   13  C   UNL     1       7.516  23.378  53.037  1.00  0.00     0.027 C 
HETATM   14  H   UNL     1       8.780  23.568  55.395  1.00  0.00     0.163 HD
ENDROOT
BRANCH   1  15
HETATM   15  C   UNL     1       6.909  27.168  56.573  1.00  0.00     0.146 C 
BRANCH  15  16
HETATM   16  C   UNL     1       5.855  28.135  57.029  1.00  0.00     0.224 C 
HETATM   17  N   UNL     1       6.152  29.287  57.684  1.00  0.00    -0.327 N 
HETATM   18  H   UNL     1       5.305  29.792  57.934  1.00  0.00     0.169 HD
HETATM   19  O   UNL     1       4.669  27.897  56.759  1.00  0.00    -0.273 OA
BRANCH  17  20
HETATM   20  C   UNL     1       7.348  29.929  58.064  1.00  0.00     0.034 A 
HETATM   21  C   UNL     1       8.640  29.563  57.678  1.00  0.00     0.032 A 
HETATM   22  C   UNL     1       9.749  30.301  58.112  1.00  0.00     0.044 A 
HETATM   23  C   UNL     1       9.573  31.405  58.933  1.00  0.00     0.116 A 
HETATM   24  C   UNL     1       8.304  31.788  59.331  1.00  0.00     0.044 A 
HETATM   25  F   UNL     1      10.638  32.105  59.339  1.00  0.00    -0.206 F 
HETATM   26  C   UNL     1       7.196  31.054  58.897  1.00  0.00     0.032 A 
ENDBRANCH  17  20
ENDBRANCH  15  16
ENDBRANCH   1  15
TORSDOF 3
ENDMDL
MODEL 7
REMARK VINA RESULT:      -7.9      3.388      6.383
REMARK  3 active torsions:
REMARK  status: ('A' for Active; 'I' for Inactive)
REMARK    1  A    between atoms: C_2  and  N_3 
REMARK       I    between atoms: N_3  and  C_4 
REMARK    2  A    between atoms: C_4  and  C_5 
REMARK    3  A    between atoms: C_5  and  C_6 
ROOT
HETATM    1  C   UNL     1       7.566  25.174  54.136  1.00  0.00     0.286 C 
HETATM    2  N   UNL     1       8.507  24.522  55.146  1.00  0.00    -0.056 N 
HETATM    3  H   UNL     1       9.431  24.952  55.009  1.00  0.00     0.278 HD
HETATM    4  H   UNL     1       8.229  24.843  56.097  1.00  0.00     0.278 HD
HETATM    5  C   UNL     1       8.674  23.032  55.094  1.00  0.00     0.209 C 
HETATM    6  C   UNL     1       8.935  22.596  53.634  1.00  0.00     0.115 C 
HETATM    7  N   UNL     1       7.981  23.180  52.695  1.00  0.00    -0.353 N 
HETATM    8  C   UNL     1       7.556  24.482  52.764  1.00  0.00     0.249 C 
HETATM    9  O   UNL     1       7.090  25.028  51.768  1.00  0.00    -0.271 OA
HETATM   10  C   UNL     1       7.483  22.328  55.743  1.00  0.00     0.035 C 
HETATM   11  C   UNL     1       7.606  20.812  55.617  1.00  0.00     0.002 C 
HETATM   12  C   UNL     1       7.763  20.393  54.158  1.00  0.00     0.002 C 
HETATM   13  C   UNL     1       8.969  21.069  53.507  1.00  0.00     0.027 C 
HETATM   14  H   UNL     1       7.976  22.824  51.739  1.00  0.00     0.163 HD
ENDROOT
BRANCH   1  15
HETATM   15  C   UNL     1       6.109  25.289  54.619  1.00  0.00     0.146 C 
BRANCH  15  16
HETATM   16  C   UNL     1       5.427  26.551  54.173  1.00  0.00     0.224 C 
HETATM   17  N   UNL     1       5.776  27.776  54.643  1.00  0.00    -0.327 N 
HETATM   18  H   UNL     1       5.182  28.500  54.245  1.00  0.00     0.169 HD
HETATM   19  O   UNL     1       4.542  26.478  53.310  1.00  0.00    -0.273 OA
BRANCH  17  20
HETATM   20  C   UNL     1       6.770  28.253  55.522  1.00  0.00     0.034 A 
HETATM   21  C   UNL     1       8.052  28.677  55.165  1.00  0.00     0.032 A 
HETATM   22  C   UNL     1       8.942  29.150  56.138  1.00  0.00     0.044 A 
HETATM   23  C   UNL     1       8.556  29.201  57.469  1.00  0.00     0.116 A 
HETATM   24  C   UNL     1       7.291  28.786  57.850  1.00  0.00     0.044 A 
HETATM   25  F   UNL     1       9.412  29.657  58.390  1.00  0.00    -0.206 F 
HETATM   26  C   UNL     1       6.402  28.315  56.879  1.00  0.00     0.032 A 
ENDBRANCH  17  20
ENDBRANCH  15  16
ENDBRANCH   1  15
TORSDOF 3
ENDMDL
MODEL 8
REMARK VINA RESULT:      -7.9      2.592      5.634
REMARK  3 active torsions:
REMARK  status: ('A' for Active; 'I' for Inactive)
REMARK    1  A    between atoms: C_2  and  N_3 
REMARK       I    between atoms: N_3  and  C_4 
REMARK    2  A    between atoms: C_4  and  C_5 
REMARK    3  A    between atoms: C_5  and  C_6 
ROOT
HETATM    1  C   UNL     1       7.392  25.424  57.084  1.00  0.00     0.286 C 
HETATM    2  N   UNL     1       6.288  25.010  56.114  1.00  0.00    -0.056 N 
HETATM    3  H   UNL     1       5.532  24.606  56.682  1.00  0.00     0.278 HD
HETATM    4  H   UNL     1       5.862  25.878  55.725  1.00  0.00     0.278 HD
HETATM    5  C   UNL     1       6.633  24.032  55.030  1.00  0.00     0.209 C 
HETATM    6  C   UNL     1       7.397  22.837  55.644  1.00  0.00     0.115 C 
HETATM    7  N   UNL     1       8.490  23.257  56.516  1.00  0.00    -0.353 N 
HETATM    8  C   UNL     1       8.389  24.299  57.403  1.00  0.00     0.249 C 
HETATM    9  O   UNL     1       9.153  24.363  58.361  1.00  0.00    -0.271 OA
HETATM   10  C   UNL     1       7.382  24.722  53.892  1.00  0.00     0.035 C 
HETATM   11  C   UNL     1       7.810  23.716  52.827  1.00  0.00     0.002 C 
HETATM   12  C   UNL     1       8.648  22.595  53.435  1.00  0.00     0.002 C 
HETATM   13  C   UNL     1       7.897  21.878  54.556  1.00  0.00     0.027 C 
HETATM   14  H   UNL     1       9.146  22.544  56.834  1.00  0.00     0.163 HD
ENDROOT
BRANCH   1  15
HETATM   15  C   UNL     1       8.197  26.656  56.633  1.00  0.00     0.146 C 
BRANCH  15  16
HETATM   16  C   UNL     1       7.606  27.959  57.091  1.00  0.00     0.224 C 
HETATM   17  N   UNL     1       6.748  28.682  56.327  1.00  0.00    -0.327 N 
HETATM   18  H   UNL     1       6.481  29.544  56.797  1.00  0.00     0.169 HD
HETATM   19  O   UNL     1       7.876  28.370  58.229  1.00  0.00    -0.273 OA
BRANCH  17  20
HETATM   20  C   UNL     1       6.144  28.493  55.067  1.00  0.00     0.034 A 
HETATM   21  C   UNL     1       6.810  28.311  53.853  1.00  0.00     0.032 A 
HETATM   22  C   UNL     1       6.088  28.113  52.668  1.00  0.00     0.044 A 
HETATM   23  C   UNL     1       4.702  28.097  52.691  1.00  0.00     0.116 A 
HETATM   24  C   UNL     1       4.018  28.275  53.882  1.00  0.00     0.044 A 
HETATM   25  F   UNL     1       4.022  27.904  51.556  1.00  0.00    -0.206 F 
HETATM   26  C   UNL     1       4.736  28.472  55.064  1.00  0.00     0.032 A 
ENDBRANCH  17  20
ENDBRANCH  15  16
ENDBRANCH   1  15
TORSDOF 3
ENDMDL
MODEL 9
REMARK VINA RESULT:      -7.8      3.628      6.992
REMARK  3 active torsions:
REMARK  status: ('A' for Active; 'I' for Inactive)
REMARK    1  A    between atoms: C_2  and  N_3 
REMARK       I    between atoms: N_3  and  C_4 
REMARK    2  A    between atoms: C_4  and  C_5 
REMARK    3  A    between atoms: C_5  and  C_6 
ROOT
HETATM    1  C   UNL     1       4.620  27.388  53.223  1.00  0.00     0.286 C 
HETATM    2  N   UNL     1       4.241  25.915  53.085  1.00  0.00    -0.056 N 
HETATM    3  H   UNL     1       3.393  25.774  53.650  1.00  0.00     0.278 HD
HETATM    4  H   UNL     1       3.911  25.760  52.109  1.00  0.00     0.278 HD
HETATM    5  C   UNL     1       5.252  24.886  53.495  1.00  0.00     0.209 C 
HETATM    6  C   UNL     1       5.818  25.251  54.887  1.00  0.00     0.115 C 
HETATM    7  N   UNL     1       6.236  26.647  54.974  1.00  0.00    -0.353 N 
HETATM    8  C   UNL     1       5.517  27.684  54.435  1.00  0.00     0.249 C 
HETATM    9  O   UNL     1       5.678  28.826  54.856  1.00  0.00    -0.271 OA
HETATM   10  C   UNL     1       6.324  24.716  52.420  1.00  0.00     0.035 C 
HETATM   11  C   UNL     1       7.401  23.733  52.869  1.00  0.00     0.002 C 
HETATM   12  C   UNL     1       8.019  24.164  54.196  1.00  0.00     0.002 C 
HETATM   13  C   UNL     1       6.959  24.309  55.288  1.00  0.00     0.027 C 
HETATM   14  H   UNL     1       6.767  26.935  55.796  1.00  0.00     0.163 HD
ENDROOT
BRANCH   1  15
HETATM   15  C   UNL     1       5.297  27.982  51.975  1.00  0.00     0.146 C 
BRANCH  15  16
HETATM   16  C   UNL     1       4.554  29.147  51.386  1.00  0.00     0.224 C 
HETATM   17  N   UNL     1       3.924  29.081  50.185  1.00  0.00    -0.327 N 
HETATM   18  H   UNL     1       3.503  29.977  49.947  1.00  0.00     0.169 HD
HETATM   19  O   UNL     1       4.472  30.196  52.041  1.00  0.00    -0.273 OA
BRANCH  17  20
HETATM   20  C   UNL     1       3.714  28.064  49.232  1.00  0.00     0.034 A 
HETATM   21  C   UNL     1       4.697  27.257  48.656  1.00  0.00     0.032 A 
HETATM   22  C   UNL     1       4.352  26.264  47.730  1.00  0.00     0.044 A 
HETATM   23  C   UNL     1       3.024  26.073  47.376  1.00  0.00     0.116 A 
HETATM   24  C   UNL     1       2.030  26.861  47.932  1.00  0.00     0.044 A 
HETATM   25  F   UNL     1       2.704  25.120  46.494  1.00  0.00    -0.206 F 
HETATM   26  C   UNL     1       2.374  27.851  48.856  1.00  0.00     0.032 A 
ENDBRANCH  17  20
ENDBRANCH  15  16
ENDBRANCH   1  15
TORSDOF 3
ENDMDL
MODEL 10
REMARK VINA RESULT:      -7.8      2.758      4.435
REMARK  3 active torsions:
REMARK  status: ('A' for Active; 'I' for Inactive)
REMARK    1  A    between atoms: C_2  and  N_3 
REMARK       I    between atoms: N_3  and  C_4 
REMARK    2  A    between atoms: C_4  and  C_5 
REMARK    3  A    between atoms: C_5  and  C_6 
ROOT
HETATM    1  C   UNL     1       6.897  28.193  55.965  1.00  0.00     0.286 C 
HETATM    2  N   UNL     1       6.370  29.424  55.232  1.00  0.00    -0.056 N 
HETATM    3  H   UNL     1       7.192  29.947  54.903  1.00  0.00     0.278 HD
HETATM    4  H   UNL     1       5.918  29.103  54.350  1.00  0.00     0.278 HD
HETATM    5  C   UNL     1       5.487  30.371  55.990  1.00  0.00     0.209 C 
HETATM    6  C   UNL     1       6.137  30.695  57.355  1.00  0.00     0.115 C 
HETATM    7  N   UNL     1       6.573  29.498  58.067  1.00  0.00    -0.353 N 
HETATM    8  C   UNL     1       7.193  28.439  57.453  1.00  0.00     0.249 C 
HETATM    9  O   UNL     1       7.878  27.663  58.113  1.00  0.00    -0.271 OA
HETATM   10  C   UNL     1       4.066  29.822  56.100  1.00  0.00     0.035 C 
HETATM   11  C   UNL     1       3.186  30.740  56.943  1.00  0.00     0.002 C 
HETATM   12  C   UNL     1       3.794  30.968  58.324  1.00  0.00     0.002 C 
HETATM   13  C   UNL     1       5.206  31.546  58.227  1.00  0.00     0.027 C 
HETATM   14  H   UNL     1       6.864  29.601  59.039  1.00  0.00     0.163 HD
ENDROOT
BRANCH   1  15
HETATM   15  C   UNL     1       5.982  26.960  55.862  1.00  0.00     0.146 C 
BRANCH  15  16
HETATM   16  C   UNL     1       5.508  26.680  54.464  1.00  0.00     0.224 C 
HETATM   17  N   UNL     1       5.904  25.588  53.761  1.00  0.00    -0.327 N 
HETATM   18  H   UNL     1       5.499  25.590  52.828  1.00  0.00     0.169 HD
HETATM   19  O   UNL     1       4.689  27.452  53.946  1.00  0.00    -0.273 OA
BRANCH  17  20
HETATM   20  C   UNL     1       6.716  24.470  54.043  1.00  0.00     0.034 A 
HETATM   21  C   UNL     1       6.876  23.862  55.290  1.00  0.00     0.032 A 
HETATM   22  C   UNL     1       7.702  22.738  55.433  1.00  0.00     0.044 A 
HETATM   23  C   UNL     1       8.368  22.219  54.333  1.00  0.00     0.116 A 
HETATM   24  C   UNL     1       8.226  22.804  53.087  1.00  0.00     0.044 A 
HETATM   25  F   UNL     1       9.151  21.145  54.480  1.00  0.00    -0.206 F 
HETATM   26  C   UNL     1       7.403  23.924  52.943  1.00  0.00     0.032 A 
ENDBRANCH  17  20
ENDBRANCH  15  16
ENDBRANCH   1  15
TORSDOF 3
ENDMDL
