MODEL 1
REMARK VINA RESULT:      -9.7      0.000      0.000
REMARK  2 active torsions:
REMARK  status: ('A' for Active; 'I' for Inactive)
REMARK    1  A    between atoms: C_4  and  C_5 
REMARK    2  A    between atoms: C_11  and  C_12 
ROOT
HETATM    1  C   UNL     1       7.542  23.639  53.347  1.00  0.00     0.098 A 
HETATM    2  N   UNL     1       8.355  23.611  52.271  1.00  0.00    -0.172 NA
HETATM    3  N   UNL     1       7.887  24.569  51.457  1.00  0.00    -0.261 N 
HETATM    4  H   UNL     1       8.364  24.729  50.577  1.00  0.00     0.191 HD
HETATM    5  C   UNL     1       6.810  25.215  51.970  1.00  0.00     0.133 A 
HETATM    6  C   UNL     1       6.538  24.640  53.184  1.00  0.00     0.028 A 
HETATM    7  C   UNL     1       5.426  25.145  54.034  1.00  0.00     0.067 C 
HETATM    8  C   UNL     1       4.464  26.040  53.233  1.00  0.00     0.117 C 
HETATM    9  C   UNL     1       5.084  26.831  52.083  1.00  0.00     0.224 C 
HETATM   10  O   UNL     1       4.578  27.874  51.671  1.00  0.00    -0.273 OA
HETATM   11  N   UNL     1       6.156  26.281  51.420  1.00  0.00    -0.312 N 
HETATM   12  H   UNL     1       6.488  26.763  50.594  1.00  0.00     0.170 HD
ENDROOT
BRANCH   7  13
HETATM   13  C   UNL     1       6.030  25.861  55.235  1.00  0.00    -0.046 A 
HETATM   14  C   UNL     1       6.957  26.895  54.990  1.00  0.00     0.047 A 
HETATM   15  C   UNL     1       7.543  27.528  56.066  1.00  0.00     0.105 A 
HETATM   16  C   UNL     1       7.246  27.180  57.361  1.00  0.00     0.105 A 
HETATM   17  O   UNL     1       8.459  28.530  55.994  1.00  0.00    -0.323 OA
HETATM   18  O   UNL     1       7.932  27.924  58.269  1.00  0.00    -0.323 OA
HETATM   19  C   UNL     1       6.353  26.174  57.650  1.00  0.00     0.040 A 
HETATM   20  C   UNL     1       8.706  28.771  57.394  1.00  0.00     0.352 A 
HETATM   21  C   UNL     1       5.752  25.503  56.577  1.00  0.00     0.011 A 
ENDBRANCH   7  13
BRANCH   1  22
HETATM   22  C   UNL     1       7.796  22.761  54.489  1.00  0.00    -0.005 A 
HETATM   23  C   UNL     1       7.642  21.373  54.344  1.00  0.00     0.014 A 
HETATM   24  C   UNL     1       7.901  20.509  55.409  1.00  0.00     0.001 A 
HETATM   25  C   UNL     1       8.313  21.023  56.636  1.00  0.00     0.000 A 
HETATM   26  C   UNL     1       8.457  22.401  56.799  1.00  0.00     0.001 A 
HETATM   27  C   UNL     1       8.194  23.266  55.733  1.00  0.00     0.014 A 
ENDBRANCH   1  22
TORSDOF 2
ENDMDL
MODEL 2
REMARK VINA RESULT:      -9.2      1.785      2.702
REMARK  2 active torsions:
REMARK  status: ('A' for Active; 'I' for Inactive)
REMARK    1  A    between atoms: C_4  and  C_5 
REMARK    2  A    between atoms: C_11  and  C_12 
ROOT
HETATM    1  C   UNL     1       5.959  25.082  53.763  1.00  0.00     0.098 A 
HETATM    2  N   UNL     1       5.647  24.686  52.512  1.00  0.00    -0.172 NA
HETATM    3  N   UNL     1       4.839  25.644  52.035  1.00  0.00    -0.261 N 
HETATM    4  H   UNL     1       4.486  25.551  51.089  1.00  0.00     0.191 HD
HETATM    5  C   UNL     1       4.625  26.643  52.927  1.00  0.00     0.133 A 
HETATM    6  C   UNL     1       5.315  26.319  54.067  1.00  0.00     0.028 A 
HETATM    7  C   UNL     1       5.320  27.232  55.241  1.00  0.00     0.067 C 
HETATM    8  C   UNL     1       4.201  28.285  55.141  1.00  0.00     0.117 C 
HETATM    9  C   UNL     1       3.806  28.714  53.731  1.00  0.00     0.224 C 
HETATM   10  O   UNL     1       3.291  29.810  53.510  1.00  0.00    -0.273 OA
HETATM   11  N   UNL     1       3.914  27.790  52.717  1.00  0.00    -0.312 N 
HETATM   12  H   UNL     1       3.547  28.052  51.809  1.00  0.00     0.170 HD
ENDROOT
BRANCH   7  13
HETATM   13  C   UNL     1       6.704  27.857  55.353  1.00  0.00    -0.046 A 
HETATM   14  C   UNL     1       7.129  28.299  56.623  1.00  0.00     0.047 A 
HETATM   15  C   UNL     1       8.364  28.903  56.735  1.00  0.00     0.105 A 
HETATM   16  C   UNL     1       9.184  29.080  55.649  1.00  0.00     0.105 A 
HETATM   17  O   UNL     1       8.907  29.389  57.883  1.00  0.00    -0.323 OA
HETATM   18  O   UNL     1      10.352  29.696  55.976  1.00  0.00    -0.323 OA
HETATM   19  C   UNL     1       8.812  28.672  54.389  1.00  0.00     0.040 A 
HETATM   20  C   UNL     1      10.164  29.897  57.393  1.00  0.00     0.352 A 
HETATM   21  C   UNL     1       7.556  28.068  54.240  1.00  0.00     0.011 A 
ENDBRANCH   7  13
BRANCH   1  22
HETATM   22  C   UNL     1       6.892  24.301  54.575  1.00  0.00    -0.005 A 
HETATM   23  C   UNL     1       7.837  23.476  53.944  1.00  0.00     0.014 A 
HETATM   24  C   UNL     1       8.755  22.737  54.692  1.00  0.00     0.001 A 
HETATM   25  C   UNL     1       8.736  22.811  56.083  1.00  0.00     0.000 A 
HETATM   26  C   UNL     1       7.794  23.615  56.724  1.00  0.00     0.001 A 
HETATM   27  C   UNL     1       6.872  24.351  55.974  1.00  0.00     0.014 A 
ENDBRANCH   1  22
TORSDOF 2
ENDMDL
MODEL 3
REMARK VINA RESULT:      -8.8      2.673      5.101
REMARK  2 active torsions:
REMARK  status: ('A' for Active; 'I' for Inactive)
REMARK    1  A    between atoms: C_4  and  C_5 
REMARK    2  A    between atoms: C_11  and  C_12 
ROOT
HETATM    1  C   UNL     1       7.586  25.385  56.207  1.00  0.00     0.098 A 
HETATM    2  N   UNL     1       7.400  24.827  57.422  1.00  0.00    -0.172 NA
HETATM    3  N   UNL     1       7.401  25.857  58.281  1.00  0.00    -0.261 N 
HETATM    4  H   UNL     1       7.266  25.663  59.267  1.00  0.00     0.191 HD
HETATM    5  C   UNL     1       7.573  27.054  57.666  1.00  0.00     0.133 A 
HETATM    6  C   UNL     1       7.714  26.801  56.326  1.00  0.00     0.028 A 
HETATM    7  C   UNL     1       7.884  27.914  55.354  1.00  0.00     0.067 C 
HETATM    8  C   UNL     1       8.265  29.227  56.062  1.00  0.00     0.117 C 
HETATM    9  C   UNL     1       7.725  29.409  57.478  1.00  0.00     0.224 C 
HETATM   10  O   UNL     1       7.561  30.526  57.968  1.00  0.00    -0.273 OA
HETATM   11  N   UNL     1       7.546  28.287  58.254  1.00  0.00    -0.312 N 
HETATM   12  H   UNL     1       7.291  28.429  59.223  1.00  0.00     0.170 HD
ENDROOT
BRANCH   7  13
HETATM   13  C   UNL     1       6.604  28.038  54.540  1.00  0.00    -0.046 A 
HETATM   14  C   UNL     1       6.718  28.120  53.137  1.00  0.00     0.047 A 
HETATM   15  C   UNL     1       5.570  28.272  52.387  1.00  0.00     0.105 A 
HETATM   16  C   UNL     1       4.329  28.342  52.969  1.00  0.00     0.105 A 
HETATM   17  O   UNL     1       5.517  28.376  51.032  1.00  0.00    -0.323 OA
HETATM   18  O   UNL     1       3.335  28.493  52.054  1.00  0.00    -0.323 OA
HETATM   19  C   UNL     1       4.167  28.273  54.333  1.00  0.00     0.040 A 
HETATM   20  C   UNL     1       4.097  28.524  50.829  1.00  0.00     0.352 A 
HETATM   21  C   UNL     1       5.316  28.133  55.123  1.00  0.00     0.011 A 
ENDBRANCH   7  13
BRANCH   1  22
HETATM   22  C   UNL     1       7.573  24.554  55.003  1.00  0.00    -0.005 A 
HETATM   23  C   UNL     1       8.554  23.564  54.834  1.00  0.00     0.014 A 
HETATM   24  C   UNL     1       8.553  22.741  53.706  1.00  0.00     0.001 A 
HETATM   25  C   UNL     1       7.572  22.903  52.730  1.00  0.00     0.000 A 
HETATM   26  C   UNL     1       6.600  23.891  52.878  1.00  0.00     0.001 A 
HETATM   27  C   UNL     1       6.604  24.718  54.006  1.00  0.00     0.014 A 
ENDBRANCH   1  22
TORSDOF 2
ENDMDL
MODEL 4
REMARK VINA RESULT:      -8.7     11.575     13.859
REMARK  2 active torsions:
REMARK  status: ('A' for Active; 'I' for Inactive)
REMARK    1  A    between atoms: C_4  and  C_5 
REMARK    2  A    between atoms: C_11  and  C_12 
ROOT
HETATM    1  C   UNL     1       4.608  33.040  63.976  1.00  0.00     0.098 A 
HETATM    2  N   UNL     1       4.981  31.835  63.498  1.00  0.00    -0.172 NA
HETATM    3  N   UNL     1       4.337  31.711  62.328  1.00  0.00    -0.261 N 
HETATM    4  H   UNL     1       4.482  30.867  61.785  1.00  0.00     0.191 HD
HETATM    5  C   UNL     1       3.570  32.790  62.033  1.00  0.00     0.133 A 
HETATM    6  C   UNL     1       3.698  33.671  63.075  1.00  0.00     0.028 A 
HETATM    7  C   UNL     1       3.007  34.988  63.049  1.00  0.00     0.067 C 
HETATM    8  C   UNL     1       1.902  35.024  61.978  1.00  0.00     0.117 C 
HETATM    9  C   UNL     1       2.137  34.161  60.741  1.00  0.00     0.224 C 
HETATM   10  O   UNL     1       1.607  34.423  59.661  1.00  0.00    -0.273 OA
HETATM   11  N   UNL     1       2.855  32.997  60.887  1.00  0.00    -0.312 N 
HETATM   12  H   UNL     1       2.911  32.382  60.084  1.00  0.00     0.170 HD
ENDROOT
BRANCH   7  13
HETATM   13  C   UNL     1       4.055  36.074  62.846  1.00  0.00    -0.046 A 
HETATM   14  C   UNL     1       4.404  36.871  63.954  1.00  0.00     0.047 A 
HETATM   15  C   UNL     1       5.323  37.885  63.778  1.00  0.00     0.105 A 
HETATM   16  C   UNL     1       5.903  38.133  62.559  1.00  0.00     0.105 A 
HETATM   17  O   UNL     1       5.752  38.742  64.742  1.00  0.00    -0.323 OA
HETATM   18  O   UNL     1       6.777  39.174  62.601  1.00  0.00    -0.323 OA
HETATM   19  C   UNL     1       5.590  37.386  61.446  1.00  0.00     0.040 A 
HETATM   20  C   UNL     1       6.668  39.561  63.987  1.00  0.00     0.352 A 
HETATM   21  C   UNL     1       4.649  36.358  61.590  1.00  0.00     0.011 A 
ENDBRANCH   7  13
BRANCH   1  22
HETATM   22  C   UNL     1       5.177  33.549  65.224  1.00  0.00    -0.005 A 
HETATM   23  C   UNL     1       4.322  33.917  66.275  1.00  0.00     0.014 A 
HETATM   24  C   UNL     1       4.837  34.384  67.486  1.00  0.00     0.001 A 
HETATM   25  C   UNL     1       6.215  34.492  67.658  1.00  0.00     0.000 A 
HETATM   26  C   UNL     1       7.075  34.144  66.617  1.00  0.00     0.001 A 
HETATM   27  C   UNL     1       6.559  33.680  65.404  1.00  0.00     0.014 A 
ENDBRANCH   1  22
TORSDOF 2
ENDMDL
MODEL 5
REMARK VINA RESULT:      -8.5      8.786     11.717
REMARK  2 active torsions:
REMARK  status: ('A' for Active; 'I' for Inactive)
REMARK    1  A    between atoms: C_4  and  C_5 
REMARK    2  A    between atoms: C_11  and  C_12 
ROOT
HETATM    1  C   UNL     1       3.797  33.814  63.132  1.00  0.00     0.098 A 
HETATM    2  N   UNL     1       2.896  33.615  64.116  1.00  0.00    -0.172 NA
HETATM    3  N   UNL     1       1.717  33.971  63.586  1.00  0.00    -0.261 N 
HETATM    4  H   UNL     1       0.886  33.891  64.161  1.00  0.00     0.191 HD
HETATM    5  C   UNL     1       1.823  34.383  62.298  1.00  0.00     0.133 A 
HETATM    6  C   UNL     1       3.151  34.316  61.962  1.00  0.00     0.028 A 
HETATM    7  C   UNL     1       3.609  34.669  60.592  1.00  0.00     0.067 C 
HETATM    8  C   UNL     1       2.530  35.448  59.819  1.00  0.00     0.117 C 
HETATM    9  C   UNL     1       1.081  35.120  60.174  1.00  0.00     0.224 C 
HETATM   10  O   UNL     1       0.164  35.303  59.375  1.00  0.00    -0.273 OA
HETATM   11  N   UNL     1       0.800  34.737  61.465  1.00  0.00    -0.312 N 
HETATM   12  H   UNL     1      -0.176  34.628  61.714  1.00  0.00     0.170 HD
ENDROOT
BRANCH   7  13
HETATM   13  C   UNL     1       4.028  33.388  59.883  1.00  0.00    -0.046 A 
HETATM   14  C   UNL     1       5.351  33.299  59.405  1.00  0.00     0.047 A 
HETATM   15  C   UNL     1       5.735  32.161  58.726  1.00  0.00     0.105 A 
HETATM   16  C   UNL     1       4.867  31.120  58.509  1.00  0.00     0.105 A 
HETATM   17  O   UNL     1       6.966  31.932  58.197  1.00  0.00    -0.323 OA
HETATM   18  O   UNL     1       5.444  30.099  57.821  1.00  0.00    -0.323 OA
HETATM   19  C   UNL     1       3.565  31.162  58.952  1.00  0.00     0.040 A 
HETATM   20  C   UNL     1       6.771  30.626  57.618  1.00  0.00     0.352 A 
HETATM   21  C   UNL     1       3.141  32.311  59.632  1.00  0.00     0.011 A 
ENDBRANCH   7  13
BRANCH   1  22
HETATM   22  C   UNL     1       5.203  33.463  63.334  1.00  0.00    -0.005 A 
HETATM   23  C   UNL     1       5.998  34.249  64.183  1.00  0.00     0.014 A 
HETATM   24  C   UNL     1       7.336  33.925  64.413  1.00  0.00     0.001 A 
HETATM   25  C   UNL     1       7.897  32.812  63.792  1.00  0.00     0.000 A 
HETATM   26  C   UNL     1       7.123  32.031  62.934  1.00  0.00     0.001 A 
HETATM   27  C   UNL     1       5.784  32.358  62.701  1.00  0.00     0.014 A 
ENDBRANCH   1  22
TORSDOF 2
ENDMDL
MODEL 6
REMARK VINA RESULT:      -8.1      7.326     10.266
REMARK  2 active torsions:
REMARK  status: ('A' for Active; 'I' for Inactive)
REMARK    1  A    between atoms: C_4  and  C_5 
REMARK    2  A    between atoms: C_11  and  C_12 
ROOT
HETATM    1  C   UNL     1       5.666  32.638  62.272  1.00  0.00     0.098 A 
HETATM    2  N   UNL     1       5.133  32.459  63.499  1.00  0.00    -0.172 NA
HETATM    3  N   UNL     1       3.877  32.922  63.402  1.00  0.00    -0.261 N 
HETATM    4  H   UNL     1       3.283  32.876  64.222  1.00  0.00     0.191 HD
HETATM    5  C   UNL     1       3.582  33.384  62.162  1.00  0.00     0.133 A 
HETATM    6  C   UNL     1       4.710  33.237  61.398  1.00  0.00     0.028 A 
HETATM    7  C   UNL     1       4.712  33.618  59.960  1.00  0.00     0.067 C 
HETATM    8  C   UNL     1       3.505  34.507  59.610  1.00  0.00     0.117 C 
HETATM    9  C   UNL     1       2.237  34.268  60.426  1.00  0.00     0.224 C 
HETATM   10  O   UNL     1       1.123  34.552  59.985  1.00  0.00    -0.273 OA
HETATM   11  N   UNL     1       2.372  33.848  61.728  1.00  0.00    -0.312 N 
HETATM   12  H   UNL     1       1.530  33.798  62.290  1.00  0.00     0.170 HD
ENDROOT
BRANCH   7  13
HETATM   13  C   UNL     1       4.763  32.344  59.128  1.00  0.00    -0.046 A 
HETATM   14  C   UNL     1       5.999  31.975  58.559  1.00  0.00     0.047 A 
HETATM   15  C   UNL     1       6.054  30.845  57.770  1.00  0.00     0.105 A 
HETATM   16  C   UNL     1       4.942  30.075  57.530  1.00  0.00     0.105 A 
HETATM   17  O   UNL     1       7.163  30.367  57.146  1.00  0.00    -0.323 OA
HETATM   18  O   UNL     1       5.212  29.011  56.728  1.00  0.00    -0.323 OA
HETATM   19  C   UNL     1       3.713  30.399  58.057  1.00  0.00     0.040 A 
HETATM   20  C   UNL     1       6.620  29.208  56.481  1.00  0.00     0.352 A 
HETATM   21  C   UNL     1       3.623  31.549  58.851  1.00  0.00     0.011 A 
ENDBRANCH   7  13
BRANCH   1  22
HETATM   22  C   UNL     1       7.025  32.179  61.983  1.00  0.00    -0.005 A 
HETATM   23  C   UNL     1       7.506  31.011  62.595  1.00  0.00     0.014 A 
HETATM   24  C   UNL     1       8.790  30.536  62.320  1.00  0.00     0.001 A 
HETATM   25  C   UNL     1       9.610  31.227  61.431  1.00  0.00     0.000 A 
HETATM   26  C   UNL     1       9.150  32.396  60.826  1.00  0.00     0.001 A 
HETATM   27  C   UNL     1       7.866  32.873  61.105  1.00  0.00     0.014 A 
ENDBRANCH   1  22
TORSDOF 2
ENDMDL
MODEL 7
REMARK VINA RESULT:      -8.0      3.497      5.000
REMARK  2 active torsions:
REMARK  status: ('A' for Active; 'I' for Inactive)
REMARK    1  A    between atoms: C_4  and  C_5 
REMARK    2  A    between atoms: C_11  and  C_12 
ROOT
HETATM    1  C   UNL     1       5.079  28.564  53.686  1.00  0.00     0.098 A 
HETATM    2  N   UNL     1       5.091  29.249  52.524  1.00  0.00    -0.172 NA
HETATM    3  N   UNL     1       4.452  30.398  52.792  1.00  0.00    -0.261 N 
HETATM    4  H   UNL     1       4.351  31.079  52.047  1.00  0.00     0.191 HD
HETATM    5  C   UNL     1       4.037  30.480  54.080  1.00  0.00     0.133 A 
HETATM    6  C   UNL     1       4.404  29.311  54.696  1.00  0.00     0.028 A 
HETATM    7  C   UNL     1       4.127  29.092  56.141  1.00  0.00     0.067 C 
HETATM    8  C   UNL     1       3.093  30.098  56.677  1.00  0.00     0.117 C 
HETATM    9  C   UNL     1       3.081  31.470  56.007  1.00  0.00     0.224 C 
HETATM   10  O   UNL     1       2.663  32.470  56.590  1.00  0.00    -0.273 OA
HETATM   11  N   UNL     1       3.427  31.547  54.678  1.00  0.00    -0.312 N 
HETATM   12  H   UNL     1       3.311  32.442  54.219  1.00  0.00     0.170 HD
ENDROOT
BRANCH   7  13
HETATM   13  C   UNL     1       5.448  29.152  56.896  1.00  0.00    -0.046 A 
HETATM   14  C   UNL     1       5.903  30.412  57.333  1.00  0.00     0.047 A 
HETATM   15  C   UNL     1       7.117  30.489  57.984  1.00  0.00     0.105 A 
HETATM   16  C   UNL     1       7.885  29.375  58.216  1.00  0.00     0.105 A 
HETATM   17  O   UNL     1       7.694  31.627  58.453  1.00  0.00    -0.323 OA
HETATM   18  O   UNL     1       9.042  29.670  58.868  1.00  0.00    -0.323 OA
HETATM   19  C   UNL     1       7.487  28.125  57.804  1.00  0.00     0.040 A 
HETATM   20  C   UNL     1       8.917  31.101  59.006  1.00  0.00     0.352 A 
HETATM   21  C   UNL     1       6.265  28.017  57.127  1.00  0.00     0.011 A 
ENDBRANCH   7  13
BRANCH   1  22
HETATM   22  C   UNL     1       5.756  27.271  53.788  1.00  0.00    -0.005 A 
HETATM   23  C   UNL     1       7.136  27.190  53.540  1.00  0.00     0.014 A 
HETATM   24  C   UNL     1       7.813  25.974  53.652  1.00  0.00     0.001 A 
HETATM   25  C   UNL     1       7.117  24.823  54.011  1.00  0.00     0.000 A 
HETATM   26  C   UNL     1       5.744  24.886  54.247  1.00  0.00     0.001 A 
HETATM   27  C   UNL     1       5.066  26.102  54.130  1.00  0.00     0.014 A 
ENDBRANCH   1  22
TORSDOF 2
ENDMDL
MODEL 8
REMARK VINA RESULT:      -8.0      4.957      8.013
REMARK  2 active torsions:
REMARK  status: ('A' for Active; 'I' for Inactive)
REMARK    1  A    between atoms: C_4  and  C_5 
REMARK    2  A    between atoms: C_11  and  C_12 
ROOT
HETATM    1  C   UNL     1       9.455  30.917  58.746  1.00  0.00     0.098 A 
HETATM    2  N   UNL     1      10.600  31.425  58.246  1.00  0.00    -0.172 NA
HETATM    3  N   UNL     1      10.710  30.892  57.019  1.00  0.00    -0.261 N 
HETATM    4  H   UNL     1      11.510  31.149  56.452  1.00  0.00     0.191 HD
HETATM    5  C   UNL     1       9.678  30.068  56.710  1.00  0.00     0.133 A 
HETATM    6  C   UNL     1       8.847  30.038  57.800  1.00  0.00     0.028 A 
HETATM    7  C   UNL     1       7.587  29.248  57.776  1.00  0.00     0.067 C 
HETATM    8  C   UNL     1       7.578  28.236  56.616  1.00  0.00     0.117 C 
HETATM    9  C   UNL     1       8.352  28.642  55.364  1.00  0.00     0.224 C 
HETATM   10  O   UNL     1       8.073  28.185  54.256  1.00  0.00    -0.273 OA
HETATM   11  N   UNL     1       9.464  29.437  55.517  1.00  0.00    -0.312 N 
HETATM   12  H   UNL     1      10.029  29.609  54.694  1.00  0.00     0.170 HD
ENDROOT
BRANCH   7  13
HETATM   13  C   UNL     1       6.415  30.219  57.716  1.00  0.00    -0.046 A 
HETATM   14  C   UNL     1       5.833  30.475  56.459  1.00  0.00     0.047 A 
HETATM   15  C   UNL     1       4.795  31.382  56.381  1.00  0.00     0.105 A 
HETATM   16  C   UNL     1       4.319  32.033  57.492  1.00  0.00     0.105 A 
HETATM   17  O   UNL     1       4.141  31.742  55.246  1.00  0.00    -0.323 OA
HETATM   18  O   UNL     1       3.299  32.882  57.198  1.00  0.00    -0.323 OA
HETATM   19  C   UNL     1       4.859  31.820  58.740  1.00  0.00     0.040 A 
HETATM   20  C   UNL     1       3.199  32.699  55.770  1.00  0.00     0.352 A 
HETATM   21  C   UNL     1       5.924  30.916  58.848  1.00  0.00     0.011 A 
ENDBRANCH   7  13
BRANCH   1  22
HETATM   22  C   UNL     1       8.972  31.338  60.061  1.00  0.00    -0.005 A 
HETATM   23  C   UNL     1       9.091  30.464  61.154  1.00  0.00     0.014 A 
HETATM   24  C   UNL     1       8.661  30.847  62.426  1.00  0.00     0.001 A 
HETATM   25  C   UNL     1       8.102  32.108  62.619  1.00  0.00     0.000 A 
HETATM   26  C   UNL     1       7.965  32.980  61.540  1.00  0.00     0.001 A 
HETATM   27  C   UNL     1       8.392  32.595  60.266  1.00  0.00     0.014 A 
ENDBRANCH   1  22
TORSDOF 2
ENDMDL
MODEL 9
REMARK VINA RESULT:      -7.9      7.472     10.095
REMARK  2 active torsions:
REMARK  status: ('A' for Active; 'I' for Inactive)
REMARK    1  A    between atoms: C_4  and  C_5 
REMARK    2  A    between atoms: C_11  and  C_12 
ROOT
HETATM    1  C   UNL     1       4.942  32.984  59.754  1.00  0.00     0.098 A 
HETATM    2  N   UNL     1       4.416  34.216  59.916  1.00  0.00    -0.172 NA
HETATM    3  N   UNL     1       4.926  34.662  61.074  1.00  0.00    -0.261 N 
HETATM    4  H   UNL     1       4.664  35.589  61.390  1.00  0.00     0.191 HD
HETATM    5  C   UNL     1       5.763  33.770  61.658  1.00  0.00     0.133 A 
HETATM    6  C   UNL     1       5.795  32.661  60.851  1.00  0.00     0.028 A 
HETATM    7  C   UNL     1       6.658  31.497  61.190  1.00  0.00     0.067 C 
HETATM    8  C   UNL     1       7.131  31.552  62.653  1.00  0.00     0.117 C 
HETATM    9  C   UNL     1       7.311  32.946  63.249  1.00  0.00     0.224 C 
HETATM   10  O   UNL     1       8.077  33.152  64.189  1.00  0.00    -0.273 OA
HETATM   11  N   UNL     1       6.493  33.956  62.798  1.00  0.00    -0.312 N 
HETATM   12  H   UNL     1       6.548  34.847  63.276  1.00  0.00     0.170 HD
ENDROOT
BRANCH   7  13
HETATM   13  C   UNL     1       7.815  31.456  60.201  1.00  0.00    -0.046 A 
HETATM   14  C   UNL     1       7.795  30.462  59.201  1.00  0.00     0.047 A 
HETATM   15  C   UNL     1       8.854  30.386  58.321  1.00  0.00     0.105 A 
HETATM   16  C   UNL     1       9.919  31.250  58.394  1.00  0.00     0.105 A 
HETATM   17  O   UNL     1       8.986  29.481  57.315  1.00  0.00    -0.323 OA
HETATM   18  O   UNL     1      10.854  31.003  57.438  1.00  0.00    -0.323 OA
HETATM   19  C   UNL     1       9.987  32.232  59.355  1.00  0.00     0.040 A 
HETATM   20  C   UNL     1      10.259  29.874  56.764  1.00  0.00     0.352 A 
HETATM   21  C   UNL     1       8.932  32.325  60.272  1.00  0.00     0.011 A 
ENDBRANCH   7  13
BRANCH   1  22
HETATM   22  C   UNL     1       4.655  32.211  58.546  1.00  0.00    -0.005 A 
HETATM   23  C   UNL     1       5.338  32.507  57.356  1.00  0.00     0.014 A 
HETATM   24  C   UNL     1       5.102  31.770  56.193  1.00  0.00     0.001 A 
HETATM   25  C   UNL     1       4.175  30.731  56.206  1.00  0.00     0.000 A 
HETATM   26  C   UNL     1       3.479  30.435  57.378  1.00  0.00     0.001 A 
HETATM   27  C   UNL     1       3.713  31.176  58.540  1.00  0.00     0.014 A 
ENDBRANCH   1  22
TORSDOF 2
ENDMDL
MODEL 10
REMARK VINA RESULT:      -7.9     11.148     14.514
REMARK  2 active torsions:
REMARK  status: ('A' for Active; 'I' for Inactive)
REMARK    1  A    between atoms: C_4  and  C_5 
REMARK    2  A    between atoms: C_11  and  C_12 
ROOT
HETATM    1  C   UNL     1       4.362  36.193  62.114  1.00  0.00     0.098 A 
HETATM    2  N   UNL     1       3.266  36.485  61.384  1.00  0.00    -0.172 NA
HETATM    3  N   UNL     1       2.709  35.297  61.103  1.00  0.00    -0.261 N 
HETATM    4  H   UNL     1       1.853  35.283  60.559  1.00  0.00     0.191 HD
HETATM    5  C   UNL     1       3.400  34.256  61.629  1.00  0.00     0.133 A 
HETATM    6  C   UNL     1       4.486  34.781  62.279  1.00  0.00     0.028 A 
HETATM    7  C   UNL     1       5.440  33.900  63.004  1.00  0.00     0.067 C 
HETATM    8  C   UNL     1       5.270  32.426  62.594  1.00  0.00     0.117 C 
HETATM    9  C   UNL     1       3.862  32.002  62.185  1.00  0.00     0.224 C 
HETATM   10  O   UNL     1       3.489  30.832  62.274  1.00  0.00    -0.273 OA
HETATM   11  N   UNL     1       3.051  32.936  61.583  1.00  0.00    -0.312 N 
HETATM   12  H   UNL     1       2.162  32.614  61.220  1.00  0.00     0.170 HD
ENDROOT
BRANCH   7  13
HETATM   13  C   UNL     1       5.251  34.118  64.499  1.00  0.00    -0.046 A 
HETATM   14  C   UNL     1       6.393  34.073  65.324  1.00  0.00     0.047 A 
HETATM   15  C   UNL     1       6.235  34.230  66.685  1.00  0.00     0.105 A 
HETATM   16  C   UNL     1       5.000  34.430  67.251  1.00  0.00     0.105 A 
HETATM   17  O   UNL     1       7.233  34.200  67.608  1.00  0.00    -0.323 OA
HETATM   18  O   UNL     1       5.065  34.558  68.604  1.00  0.00    -0.323 OA
HETATM   19  C   UNL     1       3.856  34.475  66.489  1.00  0.00     0.040 A 
HETATM   20  C   UNL     1       6.482  34.402  68.822  1.00  0.00     0.352 A 
HETATM   21  C   UNL     1       3.983  34.305  65.104  1.00  0.00     0.011 A 
ENDBRANCH   7  13
BRANCH   1  22
HETATM   22  C   UNL     1       5.193  37.266  62.661  1.00  0.00    -0.005 A 
HETATM   23  C   UNL     1       6.073  37.960  61.816  1.00  0.00     0.014 A 
HETATM   24  C   UNL     1       6.861  39.004  62.305  1.00  0.00     0.001 A 
HETATM   25  C   UNL     1       6.781  39.363  63.648  1.00  0.00     0.000 A 
HETATM   26  C   UNL     1       5.922  38.672  64.502  1.00  0.00     0.001 A 
HETATM   27  C   UNL     1       5.136  37.625  64.013  1.00  0.00     0.014 A 
ENDBRANCH   1  22
TORSDOF 2
ENDMDL
