MODEL 1
REMARK VINA RESULT:      -9.9      0.000      0.000
REMARK  8 active torsions:
REMARK  status: ('A' for Active; 'I' for Inactive)
REMARK    1  A    between atoms: C_2  and  C_3 
REMARK    2  A    between atoms: C_5  and  C_6 
REMARK       I    between atoms: C_6  and  N_7 
REMARK    3  A    between atoms: N_7  and  C_8 
REMARK    4  A    between atoms: C_8  and  C_9 
REMARK    5  A    between atoms: C_9  and  N_10 
REMARK    6  A    between atoms: C_9  and  C_20 
REMARK       I    between atoms: N_10  and  C_11 
REMARK    7  A    between atoms: C_11  and  C_12 
REMARK    8  A    between atoms: C_14  and  C_15 
ROOT
HETATM    1  C   UNL     1       6.839  26.082  53.863  1.00  0.00     0.136 C 
ENDROOT
BRANCH   1   2
HETATM    2  C   UNL     1       5.350  26.223  53.460  1.00  0.00     0.153 C 
BRANCH   2   3
HETATM    3  N   UNL     1       5.153  26.407  52.033  1.00  0.00    -0.353 N 
HETATM    4  C   UNL     1       5.327  27.623  51.412  1.00  0.00     0.275 C 
HETATM    5  O   UNL     1       5.683  28.625  52.028  1.00  0.00    -0.265 OA
HETATM    6  H   UNL     1       4.767  25.644  51.489  1.00  0.00     0.162 HD
BRANCH   4   7
HETATM    7  C   UNL     1       5.056  27.607  49.991  1.00  0.00     0.143 A 
HETATM    8  O   UNL     1       4.139  26.721  49.487  1.00  0.00    -0.310 OA
HETATM    9  C   UNL     1       4.084  26.918  48.139  1.00  0.00     0.053 A 
HETATM   10  C   UNL     1       4.959  27.918  47.769  1.00  0.00     0.036 A 
HETATM   11  C   UNL     1       5.579  28.364  48.960  1.00  0.00     0.045 A 
BRANCH   9  12
HETATM   12  C   UNL     1       3.140  26.060  47.382  1.00  0.00     0.060 C 
HETATM   13  C   UNL     1       3.029  24.674  47.995  1.00  0.00     0.012 C 
ENDBRANCH   9  12
ENDBRANCH   4   7
ENDBRANCH   2   3
ENDBRANCH   1   2
BRANCH   1  14
HETATM   14  N   UNL     1       7.265  26.864  55.022  1.00  0.00    -0.345 N 
HETATM   15  C   UNL     1       7.965  28.047  54.987  1.00  0.00     0.276 C 
HETATM   16  O   UNL     1       8.438  28.519  53.958  1.00  0.00    -0.265 OA
HETATM   17  H   UNL     1       6.853  26.626  55.915  1.00  0.00     0.163 HD
BRANCH  15  18
HETATM   18  C   UNL     1       8.101  28.686  56.281  1.00  0.00     0.143 A 
HETATM   19  O   UNL     1       9.115  29.586  56.491  1.00  0.00    -0.310 OA
HETATM   20  C   UNL     1       9.005  30.025  57.777  1.00  0.00     0.053 A 
HETATM   21  C   UNL     1       7.933  29.420  58.397  1.00  0.00     0.036 A 
HETATM   22  C   UNL     1       7.355  28.556  57.437  1.00  0.00     0.045 A 
BRANCH  20  23
HETATM   23  C   UNL     1      10.010  31.020  58.229  1.00  0.00     0.060 C 
HETATM   24  C   UNL     1       9.502  31.832  59.409  1.00  0.00     0.012 C 
ENDBRANCH  20  23
ENDBRANCH  15  18
ENDBRANCH   1  14
BRANCH   1  25
HETATM   25  C   UNL     1       7.251  24.626  54.009  1.00  0.00    -0.031 A 
HETATM   26  C   UNL     1       7.568  24.113  55.279  1.00  0.00     0.049 A 
HETATM   27  C   UNL     1       7.971  22.787  55.430  1.00  0.00     0.102 A 
HETATM   28  C   UNL     1       8.088  21.958  54.312  1.00  0.00     0.102 A 
HETATM   29  O   UNL     1       8.253  22.372  56.707  1.00  0.00    -0.346 OA
HETATM   30  O   UNL     1       8.523  20.659  54.381  1.00  0.00    -0.346 OA
HETATM   31  C   UNL     1       7.753  22.442  53.051  1.00  0.00     0.040 A 
HETATM   32  C   UNL     1       9.173  20.398  55.630  1.00  0.00     0.202 C 
HETATM   33  C   UNL     1       8.350  20.945  56.785  1.00  0.00     0.202 C 
HETATM   34  C   UNL     1       7.338  23.768  52.899  1.00  0.00     0.012 A 
ENDBRANCH   1  25
TORSDOF 8
ENDMDL
MODEL 2
REMARK VINA RESULT:      -9.5      2.071      6.751
REMARK  8 active torsions:
REMARK  status: ('A' for Active; 'I' for Inactive)
REMARK    1  A    between atoms: C_2  and  C_3 
REMARK    2  A    between atoms: C_5  and  C_6 
REMARK       I    between atoms: C_6  and  N_7 
REMARK    3  A    between atoms: N_7  and  C_8 
REMARK    4  A    between atoms: C_8  and  C_9 
REMARK    5  A    between atoms: C_9  and  N_10 
REMARK    6  A    between atoms: C_9  and  C_20 
REMARK       I    between atoms: N_10  and  C_11 
REMARK    7  A    between atoms: C_11  and  C_12 
REMARK    8  A    between atoms: C_14  and  C_15 
ROOT
HETATM    1  C   UNL     1       5.023  27.970  56.767  1.00  0.00     0.136 C 
ENDROOT
BRANCH   1   2
HETATM    2  C   UNL     1       4.077  28.406  55.619  1.00  0.00     0.153 C 
BRANCH   2   3
HETATM    3  N   UNL     1       4.309  27.692  54.377  1.00  0.00    -0.353 N 
HETATM    4  C   UNL     1       4.574  28.336  53.190  1.00  0.00     0.275 C 
HETATM    5  O   UNL     1       4.652  29.561  53.117  1.00  0.00    -0.265 OA
HETATM    6  H   UNL     1       4.164  26.688  54.353  1.00  0.00     0.162 HD
BRANCH   4   7
HETATM    7  C   UNL     1       4.748  27.451  52.060  1.00  0.00     0.143 A 
HETATM    8  O   UNL     1       4.471  27.904  50.796  1.00  0.00    -0.310 OA
HETATM    9  C   UNL     1       4.715  26.876  49.935  1.00  0.00     0.053 A 
HETATM   10  C   UNL     1       5.141  25.764  50.630  1.00  0.00     0.036 A 
HETATM   11  C   UNL     1       5.167  26.136  51.995  1.00  0.00     0.045 A 
BRANCH   9  12
HETATM   12  C   UNL     1       4.485  27.150  48.495  1.00  0.00     0.060 C 
HETATM   13  C   UNL     1       3.645  26.063  47.845  1.00  0.00     0.012 C 
ENDBRANCH   9  12
ENDBRANCH   4   7
ENDBRANCH   2   3
ENDBRANCH   1   2
BRANCH   1  14
HETATM   14  N   UNL     1       5.941  26.876  56.457  1.00  0.00    -0.345 N 
HETATM   15  C   UNL     1       5.715  25.540  56.690  1.00  0.00     0.276 C 
HETATM   16  O   UNL     1       4.751  25.120  57.321  1.00  0.00    -0.265 OA
HETATM   17  H   UNL     1       6.724  27.088  55.851  1.00  0.00     0.163 HD
BRANCH  15  18
HETATM   18  C   UNL     1       6.726  24.668  56.126  1.00  0.00     0.143 A 
HETATM   19  O   UNL     1       6.633  24.281  54.812  1.00  0.00    -0.310 OA
HETATM   20  C   UNL     1       7.702  23.474  54.553  1.00  0.00     0.053 A 
HETATM   21  C   UNL     1       8.481  23.338  55.681  1.00  0.00     0.036 A 
HETATM   22  C   UNL     1       7.851  24.101  56.693  1.00  0.00     0.045 A 
BRANCH  20  23
HETATM   23  C   UNL     1       7.808  22.934  53.174  1.00  0.00     0.060 C 
HETATM   24  C   UNL     1       7.923  21.418  53.175  1.00  0.00     0.012 C 
ENDBRANCH  20  23
ENDBRANCH  15  18
ENDBRANCH   1  14
BRANCH   1  25
HETATM   25  C   UNL     1       5.768  29.152  57.365  1.00  0.00    -0.031 A 
HETATM   26  C   UNL     1       7.152  29.060  57.598  1.00  0.00     0.049 A 
HETATM   27  C   UNL     1       7.849  30.124  58.170  1.00  0.00     0.102 A 
HETATM   28  C   UNL     1       7.171  31.288  58.540  1.00  0.00     0.102 A 
HETATM   29  O   UNL     1       9.197  29.948  58.354  1.00  0.00    -0.346 OA
HETATM   30  O   UNL     1       7.783  32.354  59.148  1.00  0.00    -0.346 OA
HETATM   31  C   UNL     1       5.807  31.406  58.292  1.00  0.00     0.040 A 
HETATM   32  C   UNL     1       9.062  31.983  59.675  1.00  0.00     0.202 C 
HETATM   33  C   UNL     1       9.852  31.187  58.647  1.00  0.00     0.202 C 
HETATM   34  C   UNL     1       5.109  30.344  57.710  1.00  0.00     0.012 A 
ENDBRANCH   1  25
TORSDOF 8
ENDMDL
MODEL 3
REMARK VINA RESULT:      -9.4      1.845      8.270
REMARK  8 active torsions:
REMARK  status: ('A' for Active; 'I' for Inactive)
REMARK    1  A    between atoms: C_2  and  C_3 
REMARK    2  A    between atoms: C_5  and  C_6 
REMARK       I    between atoms: C_6  and  N_7 
REMARK    3  A    between atoms: N_7  and  C_8 
REMARK    4  A    between atoms: C_8  and  C_9 
REMARK    5  A    between atoms: C_9  and  N_10 
REMARK    6  A    between atoms: C_9  and  C_20 
REMARK       I    between atoms: N_10  and  C_11 
REMARK    7  A    between atoms: C_11  and  C_12 
REMARK    8  A    between atoms: C_14  and  C_15 
ROOT
HETATM    1  C   UNL     1       7.250  26.808  56.299  1.00  0.00     0.136 C 
ENDROOT
BRANCH   1   2
HETATM    2  C   UNL     1       6.701  25.741  57.281  1.00  0.00     0.153 C 
BRANCH   2   3
HETATM    3  N   UNL     1       6.982  24.379  56.868  1.00  0.00    -0.353 N 
HETATM    4  C   UNL     1       8.189  23.764  57.116  1.00  0.00     0.275 C 
HETATM    5  O   UNL     1       9.095  24.328  57.724  1.00  0.00    -0.265 OA
HETATM    6  H   UNL     1       6.312  23.895  56.280  1.00  0.00     0.162 HD
BRANCH   4   7
HETATM    7  C   UNL     1       8.284  22.415  56.601  1.00  0.00     0.143 A 
HETATM    8  O   UNL     1       8.253  22.204  55.246  1.00  0.00    -0.310 OA
HETATM    9  C   UNL     1       8.355  20.860  55.043  1.00  0.00     0.053 A 
HETATM   10  C   UNL     1       8.446  20.203  56.252  1.00  0.00     0.036 A 
HETATM   11  C   UNL     1       8.406  21.203  57.252  1.00  0.00     0.045 A 
BRANCH   9  12
HETATM   12  C   UNL     1       8.349  20.401  53.633  1.00  0.00     0.060 C 
HETATM   13  C   UNL     1       7.921  21.509  52.685  1.00  0.00     0.012 C 
ENDBRANCH   9  12
ENDBRANCH   4   7
ENDBRANCH   2   3
ENDBRANCH   1   2
BRANCH   1  14
HETATM   14  N   UNL     1       6.694  26.780  54.948  1.00  0.00    -0.345 N 
HETATM   15  C   UNL     1       7.086  25.945  53.929  1.00  0.00     0.276 C 
HETATM   16  O   UNL     1       8.062  25.205  54.002  1.00  0.00    -0.265 OA
HETATM   17  H   UNL     1       5.824  27.275  54.797  1.00  0.00     0.163 HD
BRANCH  15  18
HETATM   18  C   UNL     1       6.245  26.021  52.751  1.00  0.00     0.143 A 
HETATM   19  O   UNL     1       6.156  27.201  52.055  1.00  0.00    -0.310 OA
HETATM   20  C   UNL     1       5.307  26.989  51.010  1.00  0.00     0.053 A 
HETATM   21  C   UNL     1       4.850  25.689  51.022  1.00  0.00     0.036 A 
HETATM   22  C   UNL     1       5.449  25.068  52.144  1.00  0.00     0.045 A 
BRANCH  20  23
HETATM   23  C   UNL     1       5.060  28.143  50.109  1.00  0.00     0.060 C 
HETATM   24  C   UNL     1       3.983  27.831  49.082  1.00  0.00     0.012 C 
ENDBRANCH  20  23
ENDBRANCH  15  18
ENDBRANCH   1  14
BRANCH   1  25
HETATM   25  C   UNL     1       7.179  28.208  56.887  1.00  0.00    -0.031 A 
HETATM   26  C   UNL     1       7.950  28.531  58.018  1.00  0.00     0.049 A 
HETATM   27  C   UNL     1       7.880  29.802  58.587  1.00  0.00     0.102 A 
HETATM   28  C   UNL     1       7.022  30.764  58.049  1.00  0.00     0.102 A 
HETATM   29  O   UNL     1       8.672  30.029  59.684  1.00  0.00    -0.346 OA
HETATM   30  O   UNL     1       6.868  32.018  58.583  1.00  0.00    -0.346 OA
HETATM   31  C   UNL     1       6.273  30.470  56.914  1.00  0.00     0.040 A 
HETATM   32  C   UNL     1       7.385  32.077  59.918  1.00  0.00     0.202 C 
HETATM   33  C   UNL     1       8.757  31.426  59.988  1.00  0.00     0.202 C 
HETATM   34  C   UNL     1       6.349  29.199  56.337  1.00  0.00     0.012 A 
ENDBRANCH   1  25
TORSDOF 8
ENDMDL
MODEL 4
REMARK VINA RESULT:      -9.4      1.617      8.760
REMARK  8 active torsions:
REMARK  status: ('A' for Active; 'I' for Inactive)
REMARK    1  A    between atoms: C_2  and  C_3 
REMARK    2  A    between atoms: C_5  and  C_6 
REMARK       I    between atoms: C_6  and  N_7 
REMARK    3  A    between atoms: N_7  and  C_8 
REMARK    4  A    between atoms: C_8  and  C_9 
REMARK    5  A    between atoms: C_9  and  N_10 
REMARK    6  A    between atoms: C_9  and  C_20 
REMARK       I    between atoms: N_10  and  C_11 
REMARK    7  A    between atoms: C_11  and  C_12 
REMARK    8  A    between atoms: C_14  and  C_15 
ROOT
HETATM    1  C   UNL     1       6.803  27.496  53.777  1.00  0.00     0.136 C 
ENDROOT
BRANCH   1   2
HETATM    2  C   UNL     1       6.350  28.053  55.150  1.00  0.00     0.153 C 
BRANCH   2   3
HETATM    3  N   UNL     1       7.340  28.906  55.782  1.00  0.00    -0.353 N 
HETATM    4  C   UNL     1       8.222  28.440  56.729  1.00  0.00     0.275 C 
HETATM    5  O   UNL     1       8.239  27.262  57.082  1.00  0.00    -0.265 OA
HETATM    6  H   UNL     1       7.314  29.904  55.604  1.00  0.00     0.162 HD
BRANCH   4   7
HETATM    7  C   UNL     1       9.112  29.450  57.260  1.00  0.00     0.143 A 
HETATM    8  O   UNL     1       8.696  30.237  58.304  1.00  0.00    -0.310 OA
HETATM    9  C   UNL     1       9.716  31.093  58.595  1.00  0.00     0.053 A 
HETATM   10  C   UNL     1      10.781  30.870  57.749  1.00  0.00     0.036 A 
HETATM   11  C   UNL     1      10.395  29.810  56.895  1.00  0.00     0.045 A 
BRANCH   9  12
HETATM   12  C   UNL     1       9.484  32.043  59.711  1.00  0.00     0.060 C 
HETATM   13  C   UNL     1       9.403  31.328  61.048  1.00  0.00     0.012 C 
ENDBRANCH   9  12
ENDBRANCH   4   7
ENDBRANCH   2   3
ENDBRANCH   1   2
BRANCH   1  14
HETATM   14  N   UNL     1       7.227  26.097  53.763  1.00  0.00    -0.345 N 
HETATM   15  C   UNL     1       6.593  25.053  54.395  1.00  0.00     0.276 C 
HETATM   16  O   UNL     1       5.654  25.205  55.169  1.00  0.00    -0.265 OA
HETATM   17  H   UNL     1       7.930  25.835  53.083  1.00  0.00     0.163 HD
BRANCH  15  18
HETATM   18  C   UNL     1       7.140  23.751  54.068  1.00  0.00     0.143 A 
HETATM   19  O   UNL     1       7.228  22.788  55.041  1.00  0.00    -0.310 OA
HETATM   20  C   UNL     1       7.772  21.679  54.462  1.00  0.00     0.053 A 
HETATM   21  C   UNL     1       8.033  21.917  53.130  1.00  0.00     0.036 A 
HETATM   22  C   UNL     1       7.631  23.250  52.878  1.00  0.00     0.045 A 
BRANCH  20  23
HETATM   23  C   UNL     1       7.961  20.496  55.339  1.00  0.00     0.060 C 
HETATM   24  C   UNL     1       8.564  20.884  56.680  1.00  0.00     0.012 C 
ENDBRANCH  20  23
ENDBRANCH  15  18
ENDBRANCH   1  14
BRANCH   1  25
HETATM   25  C   UNL     1       5.775  27.762  52.690  1.00  0.00    -0.031 A 
HETATM   26  C   UNL     1       5.736  26.943  51.548  1.00  0.00     0.049 A 
HETATM   27  C   UNL     1       4.817  27.186  50.528  1.00  0.00     0.102 A 
HETATM   28  C   UNL     1       3.937  28.266  50.621  1.00  0.00     0.102 A 
HETATM   29  O   UNL     1       4.848  26.331  49.456  1.00  0.00    -0.346 OA
HETATM   30  O   UNL     1       3.039  28.593  49.637  1.00  0.00    -0.346 OA
HETATM   31  C   UNL     1       3.943  29.072  51.756  1.00  0.00     0.040 A 
HETATM   32  C   UNL     1       3.370  27.947  48.402  1.00  0.00     0.202 C 
HETATM   33  C   UNL     1       3.682  26.478  48.636  1.00  0.00     0.202 C 
HETATM   34  C   UNL     1       4.858  28.823  52.784  1.00  0.00     0.012 A 
ENDBRANCH   1  25
TORSDOF 8
ENDMDL
MODEL 5
REMARK VINA RESULT:      -9.3      1.686      6.282
REMARK  8 active torsions:
REMARK  status: ('A' for Active; 'I' for Inactive)
REMARK    1  A    between atoms: C_2  and  C_3 
REMARK    2  A    between atoms: C_5  and  C_6 
REMARK       I    between atoms: C_6  and  N_7 
REMARK    3  A    between atoms: N_7  and  C_8 
REMARK    4  A    between atoms: C_8  and  C_9 
REMARK    5  A    between atoms: C_9  and  N_10 
REMARK    6  A    between atoms: C_9  and  C_20 
REMARK       I    between atoms: N_10  and  C_11 
REMARK    7  A    between atoms: C_11  and  C_12 
REMARK    8  A    between atoms: C_14  and  C_15 
ROOT
HETATM    1  C   UNL     1       5.848  27.451  54.235  1.00  0.00     0.136 C 
ENDROOT
BRANCH   1   2
HETATM    2  C   UNL     1       6.099  28.188  52.895  1.00  0.00     0.153 C 
BRANCH   2   3
HETATM    3  N   UNL     1       5.327  27.651  51.789  1.00  0.00    -0.353 N 
HETATM    4  C   UNL     1       5.174  28.323  50.597  1.00  0.00     0.275 C 
HETATM    5  O   UNL     1       5.703  29.413  50.391  1.00  0.00    -0.265 OA
HETATM    6  H   UNL     1       4.789  26.803  51.931  1.00  0.00     0.162 HD
BRANCH   4   7
HETATM    7  C   UNL     1       4.346  27.636  49.630  1.00  0.00     0.143 A 
HETATM    8  O   UNL     1       3.055  28.051  49.428  1.00  0.00    -0.310 OA
HETATM    9  C   UNL     1       2.511  27.236  48.480  1.00  0.00     0.053 A 
HETATM   10  C   UNL     1       3.436  26.298  48.073  1.00  0.00     0.036 A 
HETATM   11  C   UNL     1       4.617  26.559  48.808  1.00  0.00     0.045 A 
BRANCH   9  12
HETATM   12  C   UNL     1       1.105  27.512  48.097  1.00  0.00     0.060 C 
HETATM   13  C   UNL     1       0.856  27.216  46.628  1.00  0.00     0.012 C 
ENDBRANCH   9  12
ENDBRANCH   4   7
ENDBRANCH   2   3
ENDBRANCH   1   2
BRANCH   1  14
HETATM   14  N   UNL     1       6.432  26.116  54.349  1.00  0.00    -0.345 N 
HETATM   15  C   UNL     1       5.919  24.960  53.810  1.00  0.00     0.276 C 
HETATM   16  O   UNL     1       4.817  24.898  53.275  1.00  0.00    -0.265 OA
HETATM   17  H   UNL     1       7.386  26.057  54.684  1.00  0.00     0.163 HD
BRANCH  15  18
HETATM   18  C   UNL     1       6.797  23.814  53.937  1.00  0.00     0.143 A 
HETATM   19  O   UNL     1       7.007  23.252  55.172  1.00  0.00    -0.310 OA
HETATM   20  C   UNL     1       7.864  22.206  54.998  1.00  0.00     0.053 A 
HETATM   21  C   UNL     1       8.206  22.085  53.669  1.00  0.00     0.036 A 
HETATM   22  C   UNL     1       7.524  23.121  52.987  1.00  0.00     0.045 A 
BRANCH  20  23
HETATM   23  C   UNL     1       8.235  21.441  56.216  1.00  0.00     0.060 C 
HETATM   24  C   UNL     1       8.428  19.964  55.911  1.00  0.00     0.012 C 
ENDBRANCH  20  23
ENDBRANCH  15  18
ENDBRANCH   1  14
BRANCH   1  25
HETATM   25  C   UNL     1       6.220  28.311  55.432  1.00  0.00    -0.031 A 
HETATM   26  C   UNL     1       7.571  28.454  55.797  1.00  0.00     0.049 A 
HETATM   27  C   UNL     1       7.930  29.218  56.907  1.00  0.00     0.102 A 
HETATM   28  C   UNL     1       6.945  29.832  57.684  1.00  0.00     0.102 A 
HETATM   29  O   UNL     1       9.271  29.308  57.183  1.00  0.00    -0.346 OA
HETATM   30  O   UNL     1       7.223  30.558  58.814  1.00  0.00    -0.346 OA
HETATM   31  C   UNL     1       5.606  29.722  57.322  1.00  0.00     0.040 A 
HETATM   32  C   UNL     1       8.551  30.297  59.282  1.00  0.00     0.202 C 
HETATM   33  C   UNL     1       9.542  30.347  58.130  1.00  0.00     0.202 C 
HETATM   34  C   UNL     1       5.245  28.964  56.204  1.00  0.00     0.012 A 
ENDBRANCH   1  25
TORSDOF 8
ENDMDL
MODEL 6
REMARK VINA RESULT:      -9.2      1.874      6.617
REMARK  8 active torsions:
REMARK  status: ('A' for Active; 'I' for Inactive)
REMARK    1  A    between atoms: C_2  and  C_3 
REMARK    2  A    between atoms: C_5  and  C_6 
REMARK       I    between atoms: C_6  and  N_7 
REMARK    3  A    between atoms: N_7  and  C_8 
REMARK    4  A    between atoms: C_8  and  C_9 
REMARK    5  A    between atoms: C_9  and  N_10 
REMARK    6  A    between atoms: C_9  and  C_20 
REMARK       I    between atoms: N_10  and  C_11 
REMARK    7  A    between atoms: C_11  and  C_12 
REMARK    8  A    between atoms: C_14  and  C_15 
ROOT
HETATM    1  C   UNL     1       6.319  28.054  55.666  1.00  0.00     0.136 C 
ENDROOT
BRANCH   1   2
HETATM    2  C   UNL     1       5.496  28.979  54.734  1.00  0.00     0.153 C 
BRANCH   2   3
HETATM    3  N   UNL     1       5.452  28.519  53.358  1.00  0.00    -0.353 N 
HETATM    4  C   UNL     1       4.277  28.175  52.729  1.00  0.00     0.275 C 
HETATM    5  O   UNL     1       3.188  28.259  53.291  1.00  0.00    -0.265 OA
HETATM    6  H   UNL     1       6.324  28.337  52.872  1.00  0.00     0.162 HD
BRANCH   4   7
HETATM    7  C   UNL     1       4.445  27.714  51.368  1.00  0.00     0.143 A 
HETATM    8  O   UNL     1       3.934  28.455  50.334  1.00  0.00    -0.310 OA
HETATM    9  C   UNL     1       4.228  27.795  49.178  1.00  0.00     0.053 A 
HETATM   10  C   UNL     1       4.920  26.635  49.457  1.00  0.00     0.036 A 
HETATM   11  C   UNL     1       5.063  26.586  50.863  1.00  0.00     0.045 A 
BRANCH   9  12
HETATM   12  C   UNL     1       3.769  28.429  47.918  1.00  0.00     0.060 C 
HETATM   13  C   UNL     1       2.595  27.681  47.310  1.00  0.00     0.012 C 
ENDBRANCH   9  12
ENDBRANCH   4   7
ENDBRANCH   2   3
ENDBRANCH   1   2
BRANCH   1  14
HETATM   14  N   UNL     1       6.829  26.826  55.060  1.00  0.00    -0.345 N 
HETATM   15  C   UNL     1       6.296  25.567  55.211  1.00  0.00     0.276 C 
HETATM   16  O   UNL     1       5.390  25.310  55.997  1.00  0.00    -0.265 OA
HETATM   17  H   UNL     1       7.511  26.926  54.319  1.00  0.00     0.163 HD
BRANCH  15  18
HETATM   18  C   UNL     1       6.906  24.566  54.358  1.00  0.00     0.143 A 
HETATM   19  O   UNL     1       7.059  23.283  54.820  1.00  0.00    -0.310 OA
HETATM   20  C   UNL     1       7.652  22.565  53.824  1.00  0.00     0.053 A 
HETATM   21  C   UNL     1       7.880  23.368  52.728  1.00  0.00     0.036 A 
HETATM   22  C   UNL     1       7.405  24.656  53.073  1.00  0.00     0.045 A 
BRANCH  20  23
HETATM   23  C   UNL     1       7.917  21.131  54.105  1.00  0.00     0.060 C 
HETATM   24  C   UNL     1       8.350  20.386  52.852  1.00  0.00     0.012 C 
ENDBRANCH  20  23
ENDBRANCH  15  18
ENDBRANCH   1  14
BRANCH   1  25
HETATM   25  C   UNL     1       7.429  28.810  56.378  1.00  0.00    -0.031 A 
HETATM   26  C   UNL     1       7.231  29.269  57.692  1.00  0.00     0.049 A 
HETATM   27  C   UNL     1       8.228  29.986  58.353  1.00  0.00     0.102 A 
HETATM   28  C   UNL     1       9.429  30.277  57.704  1.00  0.00     0.102 A 
HETATM   29  O   UNL     1       7.949  30.387  59.635  1.00  0.00    -0.346 OA
HETATM   30  O   UNL     1      10.433  31.017  58.275  1.00  0.00    -0.346 OA
HETATM   31  C   UNL     1       9.653  29.808  56.412  1.00  0.00     0.040 A 
HETATM   32  C   UNL     1       9.958  31.737  59.417  1.00  0.00     0.202 C 
HETATM   33  C   UNL     1       9.130  30.830  60.314  1.00  0.00     0.202 C 
HETATM   34  C   UNL     1       8.658  29.081  55.752  1.00  0.00     0.012 A 
ENDBRANCH   1  25
TORSDOF 8
ENDMDL
MODEL 7
REMARK VINA RESULT:      -9.2      2.034      6.778
REMARK  8 active torsions:
REMARK  status: ('A' for Active; 'I' for Inactive)
REMARK    1  A    between atoms: C_2  and  C_3 
REMARK    2  A    between atoms: C_5  and  C_6 
REMARK       I    between atoms: C_6  and  N_7 
REMARK    3  A    between atoms: N_7  and  C_8 
REMARK    4  A    between atoms: C_8  and  C_9 
REMARK    5  A    between atoms: C_9  and  N_10 
REMARK    6  A    between atoms: C_9  and  C_20 
REMARK       I    between atoms: N_10  and  C_11 
REMARK    7  A    between atoms: C_11  and  C_12 
REMARK    8  A    between atoms: C_14  and  C_15 
ROOT
HETATM    1  C   UNL     1       6.899  27.106  54.857  1.00  0.00     0.136 C 
ENDROOT
BRANCH   1   2
HETATM    2  C   UNL     1       7.928  26.409  53.931  1.00  0.00     0.153 C 
BRANCH   2   3
HETATM    3  N   UNL     1       7.979  24.969  54.106  1.00  0.00    -0.353 N 
HETATM    4  C   UNL     1       7.837  24.090  53.057  1.00  0.00     0.275 C 
HETATM    5  O   UNL     1       7.680  24.474  51.900  1.00  0.00    -0.265 OA
HETATM    6  H   UNL     1       8.010  24.589  55.046  1.00  0.00     0.162 HD
BRANCH   4   7
HETATM    7  C   UNL     1       7.890  22.695  53.440  1.00  0.00     0.143 A 
HETATM    8  O   UNL     1       7.734  22.349  54.758  1.00  0.00    -0.310 OA
HETATM    9  C   UNL     1       7.830  20.991  54.833  1.00  0.00     0.053 A 
HETATM   10  C   UNL     1       8.051  20.460  53.580  1.00  0.00     0.036 A 
HETATM   11  C   UNL     1       8.084  21.555  52.685  1.00  0.00     0.045 A 
BRANCH   9  12
HETATM   12  C   UNL     1       7.683  20.392  56.182  1.00  0.00     0.060 C 
HETATM   13  C   UNL     1       8.412  21.204  57.239  1.00  0.00     0.012 C 
ENDBRANCH   9  12
ENDBRANCH   4   7
ENDBRANCH   2   3
ENDBRANCH   1   2
BRANCH   1  14
HETATM   14  N   UNL     1       7.447  28.066  55.812  1.00  0.00    -0.345 N 
HETATM   15  C   UNL     1       8.098  27.761  56.984  1.00  0.00     0.276 C 
HETATM   16  O   UNL     1       8.175  26.623  57.434  1.00  0.00    -0.265 OA
HETATM   17  H   UNL     1       7.528  29.028  55.504  1.00  0.00     0.163 HD
BRANCH  15  18
HETATM   18  C   UNL     1       8.683  28.910  57.646  1.00  0.00     0.143 A 
HETATM   19  O   UNL     1       8.187  29.321  58.858  1.00  0.00    -0.310 OA
HETATM   20  C   UNL     1       8.914  30.408  59.243  1.00  0.00     0.053 A 
HETATM   21  C   UNL     1       9.873  30.700  58.297  1.00  0.00     0.036 A 
HETATM   22  C   UNL     1       9.721  29.740  57.269  1.00  0.00     0.045 A 
BRANCH  20  23
HETATM   23  C   UNL     1       8.549  31.026  60.543  1.00  0.00     0.060 C 
HETATM   24  C   UNL     1       9.365  30.446  61.688  1.00  0.00     0.012 C 
ENDBRANCH  20  23
ENDBRANCH  15  18
ENDBRANCH   1  14
BRANCH   1  25
HETATM   25  C   UNL     1       5.751  27.716  54.070  1.00  0.00    -0.031 A 
HETATM   26  C   UNL     1       5.707  27.571  52.672  1.00  0.00     0.049 A 
HETATM   27  C   UNL     1       4.676  28.145  51.930  1.00  0.00     0.102 A 
HETATM   28  C   UNL     1       3.684  28.893  52.569  1.00  0.00     0.102 A 
HETATM   29  O   UNL     1       4.710  27.945  50.573  1.00  0.00    -0.346 OA
HETATM   30  O   UNL     1       2.668  29.524  51.898  1.00  0.00    -0.346 OA
HETATM   31  C   UNL     1       3.698  29.025  53.954  1.00  0.00     0.040 A 
HETATM   32  C   UNL     1       2.959  29.629  50.500  1.00  0.00     0.202 C 
HETATM   33  C   UNL     1       3.466  28.301  49.959  1.00  0.00     0.202 C 
HETATM   34  C   UNL     1       4.726  28.442  54.701  1.00  0.00     0.012 A 
ENDBRANCH   1  25
TORSDOF 8
ENDMDL
MODEL 8
REMARK VINA RESULT:      -9.2      1.377      7.665
REMARK  8 active torsions:
REMARK  status: ('A' for Active; 'I' for Inactive)
REMARK    1  A    between atoms: C_2  and  C_3 
REMARK    2  A    between atoms: C_5  and  C_6 
REMARK       I    between atoms: C_6  and  N_7 
REMARK    3  A    between atoms: N_7  and  C_8 
REMARK    4  A    between atoms: C_8  and  C_9 
REMARK    5  A    between atoms: C_9  and  N_10 
REMARK    6  A    between atoms: C_9  and  C_20 
REMARK       I    between atoms: N_10  and  C_11 
REMARK    7  A    between atoms: C_11  and  C_12 
REMARK    8  A    between atoms: C_14  and  C_15 
ROOT
HETATM    1  C   UNL     1       6.763  26.349  54.338  1.00  0.00     0.136 C 
ENDROOT
BRANCH   1   2
HETATM    2  C   UNL     1       7.979  27.286  54.553  1.00  0.00     0.153 C 
BRANCH   2   3
HETATM    3  N   UNL     1       7.753  28.301  55.565  1.00  0.00    -0.353 N 
HETATM    4  C   UNL     1       8.087  28.117  56.888  1.00  0.00     0.275 C 
HETATM    5  O   UNL     1       8.619  27.084  57.288  1.00  0.00    -0.265 OA
HETATM    6  H   UNL     1       7.231  29.135  55.317  1.00  0.00     0.162 HD
BRANCH   4   7
HETATM    7  C   UNL     1       7.756  29.234  57.745  1.00  0.00     0.143 A 
HETATM    8  O   UNL     1       8.507  29.471  58.868  1.00  0.00    -0.310 OA
HETATM    9  C   UNL     1       7.979  30.567  59.484  1.00  0.00     0.053 A 
HETATM   10  C   UNL     1       6.894  31.035  58.773  1.00  0.00     0.036 A 
HETATM   11  C   UNL     1       6.754  30.181  57.653  1.00  0.00     0.045 A 
BRANCH   9  12
HETATM   12  C   UNL     1       8.647  31.011  60.731  1.00  0.00     0.060 C 
HETATM   13  C   UNL     1       7.639  31.412  61.794  1.00  0.00     0.012 C 
ENDBRANCH   9  12
ENDBRANCH   4   7
ENDBRANCH   2   3
ENDBRANCH   1   2
BRANCH   1  14
HETATM   14  N   UNL     1       5.926  26.645  53.178  1.00  0.00    -0.345 N 
HETATM   15  C   UNL     1       5.160  27.773  52.999  1.00  0.00     0.276 C 
HETATM   16  O   UNL     1       4.986  28.614  53.874  1.00  0.00    -0.265 OA
HETATM   17  H   UNL     1       6.062  26.073  52.353  1.00  0.00     0.163 HD
BRANCH  15  18
HETATM   18  C   UNL     1       4.569  27.876  51.679  1.00  0.00     0.143 A 
HETATM   19  O   UNL     1       4.961  27.011  50.689  1.00  0.00    -0.310 OA
HETATM   20  C   UNL     1       4.253  27.332  49.569  1.00  0.00     0.053 A 
HETATM   21  C   UNL     1       3.409  28.391  49.826  1.00  0.00     0.036 A 
HETATM   22  C   UNL     1       3.616  28.744  51.181  1.00  0.00     0.045 A 
BRANCH  20  23
HETATM   23  C   UNL     1       4.517  26.515  48.358  1.00  0.00     0.060 C 
HETATM   24  C   UNL     1       3.229  25.979  47.753  1.00  0.00     0.012 C 
ENDBRANCH  20  23
ENDBRANCH  15  18
ENDBRANCH   1  14
BRANCH   1  25
HETATM   25  C   UNL     1       7.167  24.884  54.358  1.00  0.00    -0.031 A 
HETATM   26  C   UNL     1       7.543  24.279  55.570  1.00  0.00     0.049 A 
HETATM   27  C   UNL     1       7.940  22.942  55.605  1.00  0.00     0.102 A 
HETATM   28  C   UNL     1       7.991  22.196  54.426  1.00  0.00     0.102 A 
HETATM   29  O   UNL     1       8.282  22.434  56.833  1.00  0.00    -0.346 OA
HETATM   30  O   UNL     1       8.416  20.893  54.378  1.00  0.00    -0.346 OA
HETATM   31  C   UNL     1       7.598  22.771  53.221  1.00  0.00     0.040 A 
HETATM   32  C   UNL     1       9.126  20.538  55.570  1.00  0.00     0.202 C 
HETATM   33  C   UNL     1       8.368  21.005  56.802  1.00  0.00     0.202 C 
HETATM   34  C   UNL     1       7.190  24.108  53.186  1.00  0.00     0.012 A 
ENDBRANCH   1  25
TORSDOF 8
ENDMDL
MODEL 9
REMARK VINA RESULT:      -9.1      1.504      2.165
REMARK  8 active torsions:
REMARK  status: ('A' for Active; 'I' for Inactive)
REMARK    1  A    between atoms: C_2  and  C_3 
REMARK    2  A    between atoms: C_5  and  C_6 
REMARK       I    between atoms: C_6  and  N_7 
REMARK    3  A    between atoms: N_7  and  C_8 
REMARK    4  A    between atoms: C_8  and  C_9 
REMARK    5  A    between atoms: C_9  and  N_10 
REMARK    6  A    between atoms: C_9  and  C_20 
REMARK       I    between atoms: N_10  and  C_11 
REMARK    7  A    between atoms: C_11  and  C_12 
REMARK    8  A    between atoms: C_14  and  C_15 
ROOT
HETATM    1  C   UNL     1       7.269  26.517  55.086  1.00  0.00     0.136 C 
ENDROOT
BRANCH   1   2
HETATM    2  C   UNL     1       5.772  26.613  54.694  1.00  0.00     0.153 C 
BRANCH   2   3
HETATM    3  N   UNL     1       5.562  26.977  53.304  1.00  0.00    -0.353 N 
HETATM    4  C   UNL     1       5.092  26.085  52.368  1.00  0.00     0.275 C 
HETATM    5  O   UNL     1       4.799  24.927  52.659  1.00  0.00    -0.265 OA
HETATM    6  H   UNL     1       5.874  27.886  52.982  1.00  0.00     0.162 HD
BRANCH   4   7
HETATM    7  C   UNL     1       4.977  26.631  51.033  1.00  0.00     0.143 A 
HETATM    8  O   UNL     1       4.455  25.858  50.028  1.00  0.00    -0.310 OA
HETATM    9  C   UNL     1       4.468  26.610  48.891  1.00  0.00     0.053 A 
HETATM   10  C   UNL     1       4.997  27.856  49.151  1.00  0.00     0.036 A 
HETATM   11  C   UNL     1       5.319  27.871  50.529  1.00  0.00     0.045 A 
BRANCH   9  12
HETATM   12  C   UNL     1       3.936  25.966  47.665  1.00  0.00     0.060 C 
HETATM   13  C   UNL     1       2.657  26.636  47.191  1.00  0.00     0.012 C 
ENDBRANCH   9  12
ENDBRANCH   4   7
ENDBRANCH   2   3
ENDBRANCH   1   2
BRANCH   1  14
HETATM   14  N   UNL     1       7.738  27.501  56.059  1.00  0.00    -0.345 N 
HETATM   15  C   UNL     1       8.448  28.644  55.776  1.00  0.00     0.276 C 
HETATM   16  O   UNL     1       8.893  28.902  54.663  1.00  0.00    -0.265 OA
HETATM   17  H   UNL     1       7.352  27.446  56.993  1.00  0.00     0.163 HD
BRANCH  15  18
HETATM   18  C   UNL     1       8.631  29.518  56.918  1.00  0.00     0.143 A 
HETATM   19  O   UNL     1       7.545  30.152  57.469  1.00  0.00    -0.310 OA
HETATM   20  C   UNL     1       8.003  30.899  58.514  1.00  0.00     0.053 A 
HETATM   21  C   UNL     1       9.367  30.754  58.643  1.00  0.00     0.036 A 
HETATM   22  C   UNL     1       9.771  29.870  57.615  1.00  0.00     0.045 A 
BRANCH  20  23
HETATM   23  C   UNL     1       6.988  31.679  59.268  1.00  0.00     0.060 C 
HETATM   24  C   UNL     1       5.801  32.047  58.392  1.00  0.00     0.012 C 
ENDBRANCH  20  23
ENDBRANCH  15  18
ENDBRANCH   1  14
BRANCH   1  25
HETATM   25  C   UNL     1       7.655  25.109  55.507  1.00  0.00    -0.031 A 
HETATM   26  C   UNL     1       7.446  24.034  54.625  1.00  0.00     0.049 A 
HETATM   27  C   UNL     1       7.771  22.731  55.002  1.00  0.00     0.102 A 
HETATM   28  C   UNL     1       8.288  22.478  56.274  1.00  0.00     0.102 A 
HETATM   29  O   UNL     1       7.539  21.747  54.075  1.00  0.00    -0.346 OA
HETATM   30  O   UNL     1       8.586  21.219  56.729  1.00  0.00    -0.346 OA
HETATM   31  C   UNL     1       8.527  23.534  57.150  1.00  0.00     0.040 A 
HETATM   32  C   UNL     1       7.970  20.217  55.912  1.00  0.00     0.202 C 
HETATM   33  C   UNL     1       8.186  20.522  54.439  1.00  0.00     0.202 C 
HETATM   34  C   UNL     1       8.211  24.841  56.770  1.00  0.00     0.012 A 
ENDBRANCH   1  25
TORSDOF 8
ENDMDL
MODEL 10
REMARK VINA RESULT:      -9.1      3.568      4.393
REMARK  8 active torsions:
REMARK  status: ('A' for Active; 'I' for Inactive)
REMARK    1  A    between atoms: C_2  and  C_3 
REMARK    2  A    between atoms: C_5  and  C_6 
REMARK       I    between atoms: C_6  and  N_7 
REMARK    3  A    between atoms: N_7  and  C_8 
REMARK    4  A    between atoms: C_8  and  C_9 
REMARK    5  A    between atoms: C_9  and  N_10 
REMARK    6  A    between atoms: C_9  and  C_20 
REMARK       I    between atoms: N_10  and  C_11 
REMARK    7  A    between atoms: C_11  and  C_12 
REMARK    8  A    between atoms: C_14  and  C_15 
ROOT
HETATM    1  C   UNL     1       6.868  26.274  55.437  1.00  0.00     0.136 C 
ENDROOT
BRANCH   1   2
HETATM    2  C   UNL     1       5.393  26.298  55.913  1.00  0.00     0.153 C 
BRANCH   2   3
HETATM    3  N   UNL     1       4.704  27.535  55.595  1.00  0.00    -0.353 N 
HETATM    4  C   UNL     1       4.692  28.616  56.446  1.00  0.00     0.275 C 
HETATM    5  O   UNL     1       5.286  28.606  57.522  1.00  0.00    -0.265 OA
HETATM    6  H   UNL     1       4.118  27.572  54.768  1.00  0.00     0.162 HD
BRANCH   4   7
HETATM    7  C   UNL     1       3.927  29.745  55.961  1.00  0.00     0.143 A 
HETATM    8  O   UNL     1       4.019  30.109  54.642  1.00  0.00    -0.310 OA
HETATM    9  C   UNL     1       3.209  31.190  54.463  1.00  0.00     0.053 A 
HETATM   10  C   UNL     1       2.599  31.529  55.653  1.00  0.00     0.036 A 
HETATM   11  C   UNL     1       3.057  30.597  56.614  1.00  0.00     0.045 A 
BRANCH   9  12
HETATM   12  C   UNL     1       3.149  31.753  53.092  1.00  0.00     0.060 C 
HETATM   13  C   UNL     1       2.011  32.748  52.944  1.00  0.00     0.012 C 
ENDBRANCH   9  12
ENDBRANCH   4   7
ENDBRANCH   2   3
ENDBRANCH   1   2
BRANCH   1  14
HETATM   14  N   UNL     1       7.768  27.218  56.095  1.00  0.00    -0.345 N 
HETATM   15  C   UNL     1       8.332  28.333  55.521  1.00  0.00     0.276 C 
HETATM   16  O   UNL     1       8.246  28.590  54.325  1.00  0.00    -0.265 OA
HETATM   17  H   UNL     1       7.835  27.165  57.104  1.00  0.00     0.163 HD
BRANCH  15  18
HETATM   18  C   UNL     1       9.045  29.178  56.458  1.00  0.00     0.143 A 
HETATM   19  O   UNL     1       8.504  29.428  57.695  1.00  0.00    -0.310 OA
HETATM   20  C   UNL     1       9.374  30.240  58.359  1.00  0.00     0.053 A 
HETATM   21  C   UNL     1      10.468  30.515  57.567  1.00  0.00     0.036 A 
HETATM   22  C   UNL     1      10.254  29.836  56.344  1.00  0.00     0.045 A 
BRANCH  20  23
HETATM   23  C   UNL     1       8.990  30.643  59.735  1.00  0.00     0.060 C 
HETATM   24  C   UNL     1       9.290  32.111  59.993  1.00  0.00     0.012 C 
ENDBRANCH  20  23
ENDBRANCH  15  18
ENDBRANCH   1  14
BRANCH   1  25
HETATM   25  C   UNL     1       7.446  24.868  55.456  1.00  0.00    -0.031 A 
HETATM   26  C   UNL     1       7.323  24.046  54.322  1.00  0.00     0.049 A 
HETATM   27  C   UNL     1       7.825  22.745  54.328  1.00  0.00     0.102 A 
HETATM   28  C   UNL     1       8.438  22.237  55.475  1.00  0.00     0.102 A 
HETATM   29  O   UNL     1       7.665  22.019  53.175  1.00  0.00    -0.346 OA
HETATM   30  O   UNL     1       8.912  20.953  55.569  1.00  0.00    -0.346 OA
HETATM   31  C   UNL     1       8.592  23.045  56.598  1.00  0.00     0.040 A 
HETATM   32  C   UNL     1       8.380  20.129  54.525  1.00  0.00     0.202 C 
HETATM   33  C   UNL     1       8.476  20.839  53.184  1.00  0.00     0.202 C 
HETATM   34  C   UNL     1       8.098  24.353  56.589  1.00  0.00     0.012 A 
ENDBRANCH   1  25
TORSDOF 8
ENDMDL
