MODEL 1
REMARK VINA RESULT:     -10.8      0.000      0.000
REMARK  8 active torsions:
REMARK  status: ('A' for Active; 'I' for Inactive)
REMARK    1  A    between atoms: C_2  and  C_3 
REMARK    2  A    between atoms: C_3  and  O_4 
REMARK    3  A    between atoms: O_4  and  C_5 
REMARK    4  A    between atoms: C_8  and  C_9 
REMARK       I    between atoms: C_9  and  N_10 
REMARK    5  A    between atoms: N_10  and  C_11 
REMARK    6  A    between atoms: N_12  and  C_13 
REMARK    7  A    between atoms: C_15  and  C_16 
REMARK    8  A    between atoms: C_27  and  O_28 
ROOT
HETATM    1  C   UNL     1       7.354  28.568  56.660  1.00  0.00     0.035 A 
HETATM    2  C   UNL     1       7.585  27.294  56.122  1.00  0.00     0.048 A 
HETATM    3  C   UNL     1       6.608  26.278  56.151  1.00  0.00     0.052 A 
HETATM    4  C   UNL     1       5.367  26.585  56.722  1.00  0.00     0.080 A 
HETATM    5  C   UNL     1       5.125  27.853  57.265  1.00  0.00     0.040 A 
HETATM    6  C   UNL     1       6.120  28.834  57.245  1.00  0.00     0.032 A 
ENDROOT
BRANCH   1   7
HETATM    7  N   UNL     1       8.447  29.461  56.657  1.00  0.00    -0.333 N 
HETATM    8  C   UNL     1       9.145  30.021  57.666  1.00  0.00     0.179 C 
HETATM    9  S   UNL     1      10.778  30.321  57.436  1.00  0.00    -0.040 SA
HETATM   10  H   UNL     1       8.923  29.534  55.764  1.00  0.00     0.168 HD
BRANCH   8  11
HETATM   11  N   UNL     1       8.604  30.387  58.856  1.00  0.00    -0.299 N 
HETATM   12  C   UNL     1       7.706  31.429  59.062  1.00  0.00     0.257 C 
HETATM   13  O   UNL     1       6.972  31.946  58.232  1.00  0.00    -0.267 OA
HETATM   14  H   UNL     1       9.290  30.294  59.593  1.00  0.00     0.171 HD
BRANCH  12  15
HETATM   15  C   UNL     1       7.706  31.962  60.454  1.00  0.00     0.032 A 
HETATM   16  C   UNL     1       8.732  31.565  61.317  1.00  0.00     0.020 A 
HETATM   17  C   UNL     1       8.712  31.971  62.653  1.00  0.00     0.038 A 
HETATM   18  C   UNL     1       7.693  32.800  63.123  1.00  0.00     0.068 A 
HETATM   19  C   UNL     1       6.679  33.215  62.259  1.00  0.00     0.038 A 
HETATM   20  C   UNL     1       6.684  32.800  60.922  1.00  0.00     0.020 A 
BRANCH  18  21
HETATM   21  O   UNL     1       7.725  33.086  64.459  1.00  0.00    -0.351 OA
BRANCH  21  22
HETATM   22  C   UNL     1       6.929  34.205  64.854  1.00  0.00     0.175 C 
BRANCH  22  23
HETATM   23  C   UNL     1       5.951  33.756  65.940  1.00  0.00     0.022 C 
HETATM   24  C   UNL     1       4.496  33.972  65.549  1.00  0.00     0.007 C 
ENDBRANCH  22  23
ENDBRANCH  21  22
ENDBRANCH  18  21
ENDBRANCH  12  15
ENDBRANCH   8  11
ENDBRANCH   1   7
BRANCH   3  25
HETATM   25  C   UNL     1       6.972  24.972  55.594  1.00  0.00     0.183 A 
HETATM   26  O   UNL     1       7.349  23.984  56.467  1.00  0.00    -0.288 OA
HETATM   27  C   UNL     1       7.688  22.932  55.664  1.00  0.00     0.112 A 
HETATM   28  C   UNL     1       7.507  23.334  54.354  1.00  0.00     0.094 A 
HETATM   29  C   UNL     1       8.144  21.675  56.062  1.00  0.00    -0.025 A 
HETATM   30  N   UNL     1       7.062  24.631  54.317  1.00  0.00    -0.221 NA
HETATM   31  C   UNL     1       7.793  22.435  53.318  1.00  0.00     0.041 A 
HETATM   32  C   UNL     1       8.257  21.149  53.652  1.00  0.00    -0.059 A 
HETATM   33  C   UNL     1       8.427  20.789  55.002  1.00  0.00     0.016 A 
HETATM   34  C   UNL     1       8.579  20.177  52.554  1.00  0.00     0.048 C 
HETATM   35  C   UNL     1       8.339  21.264  57.485  1.00  0.00     0.051 C 
ENDBRANCH   3  25
BRANCH   4  36
HETATM   36  O   UNL     1       4.365  25.656  56.761  1.00  0.00    -0.360 OA
HETATM   37  H   UNL     1       3.759  25.858  57.491  1.00  0.00     0.217 HD
ENDBRANCH   4  36
TORSDOF 8
ENDMDL
MODEL 2
REMARK VINA RESULT:     -10.7      1.314      2.190
REMARK  8 active torsions:
REMARK  status: ('A' for Active; 'I' for Inactive)
REMARK    1  A    between atoms: C_2  and  C_3 
REMARK    2  A    between atoms: C_3  and  O_4 
REMARK    3  A    between atoms: O_4  and  C_5 
REMARK    4  A    between atoms: C_8  and  C_9 
REMARK       I    between atoms: C_9  and  N_10 
REMARK    5  A    between atoms: N_10  and  C_11 
REMARK    6  A    between atoms: N_12  and  C_13 
REMARK    7  A    between atoms: C_15  and  C_16 
REMARK    8  A    between atoms: C_27  and  O_28 
ROOT
HETATM    1  C   UNL     1       7.160  29.546  57.231  1.00  0.00     0.035 A 
HETATM    2  C   UNL     1       7.574  28.251  56.889  1.00  0.00     0.048 A 
HETATM    3  C   UNL     1       6.662  27.188  56.731  1.00  0.00     0.052 A 
HETATM    4  C   UNL     1       5.301  27.468  56.906  1.00  0.00     0.080 A 
HETATM    5  C   UNL     1       4.875  28.756  57.250  1.00  0.00     0.040 A 
HETATM    6  C   UNL     1       5.804  29.787  57.424  1.00  0.00     0.032 A 
ENDROOT
BRANCH   1   7
HETATM    7  N   UNL     1       8.180  30.496  57.457  1.00  0.00    -0.333 N 
HETATM    8  C   UNL     1       8.750  30.941  58.596  1.00  0.00     0.179 C 
HETATM    9  S   UNL     1      10.369  31.372  58.562  1.00  0.00    -0.040 SA
HETATM   10  H   UNL     1       8.722  30.729  56.632  1.00  0.00     0.168 HD
BRANCH   8  11
HETATM   11  N   UNL     1       8.086  31.093  59.770  1.00  0.00    -0.299 N 
HETATM   12  C   UNL     1       7.136  32.069  60.056  1.00  0.00     0.257 C 
HETATM   13  O   UNL     1       6.466  32.702  59.253  1.00  0.00    -0.267 OA
HETATM   14  H   UNL     1       8.703  30.891  60.546  1.00  0.00     0.171 HD
BRANCH  12  15
HETATM   15  C   UNL     1       6.986  32.361  61.509  1.00  0.00     0.032 A 
HETATM   16  C   UNL     1       5.705  32.620  62.005  1.00  0.00     0.020 A 
HETATM   17  C   UNL     1       5.538  32.989  63.342  1.00  0.00     0.038 A 
HETATM   18  C   UNL     1       6.640  33.065  64.194  1.00  0.00     0.068 A 
HETATM   19  C   UNL     1       7.918  32.787  63.707  1.00  0.00     0.038 A 
HETATM   20  C   UNL     1       8.094  32.431  62.365  1.00  0.00     0.020 A 
BRANCH  18  21
HETATM   21  O   UNL     1       6.383  33.499  65.465  1.00  0.00    -0.351 OA
BRANCH  21  22
HETATM   22  C   UNL     1       5.014  33.812  65.727  1.00  0.00     0.175 C 
BRANCH  22  23
HETATM   23  C   UNL     1       4.869  34.195  67.200  1.00  0.00     0.022 C 
HETATM   24  C   UNL     1       6.208  34.437  67.881  1.00  0.00     0.007 C 
ENDBRANCH  22  23
ENDBRANCH  21  22
ENDBRANCH  18  21
ENDBRANCH  12  15
ENDBRANCH   8  11
ENDBRANCH   1   7
BRANCH   3  25
HETATM   25  C   UNL     1       7.209  25.867  56.411  1.00  0.00     0.183 A 
HETATM   26  O   UNL     1       7.319  25.521  55.089  1.00  0.00    -0.288 OA
HETATM   27  C   UNL     1       7.784  24.236  55.110  1.00  0.00     0.112 A 
HETATM   28  C   UNL     1       7.924  23.868  56.436  1.00  0.00     0.094 A 
HETATM   29  C   UNL     1       8.065  23.418  54.017  1.00  0.00    -0.025 A 
HETATM   30  N   UNL     1       7.549  24.903  57.254  1.00  0.00    -0.221 NA
HETATM   31  C   UNL     1       8.383  22.580  56.742  1.00  0.00     0.041 A 
HETATM   32  C   UNL     1       8.685  21.704  55.683  1.00  0.00    -0.059 A 
HETATM   33  C   UNL     1       8.523  22.127  54.350  1.00  0.00     0.016 A 
HETATM   34  C   UNL     1       9.167  20.317  55.993  1.00  0.00     0.048 C 
HETATM   35  C   UNL     1       7.899  23.835  52.591  1.00  0.00     0.051 C 
ENDBRANCH   3  25
BRANCH   4  36
HETATM   36  O   UNL     1       4.359  26.491  56.743  1.00  0.00    -0.360 OA
HETATM   37  H   UNL     1       3.545  26.878  56.384  1.00  0.00     0.217 HD
ENDBRANCH   4  36
TORSDOF 8
ENDMDL
MODEL 3
REMARK VINA RESULT:     -10.4      2.235     11.448
REMARK  8 active torsions:
REMARK  status: ('A' for Active; 'I' for Inactive)
REMARK    1  A    between atoms: C_2  and  C_3 
REMARK    2  A    between atoms: C_3  and  O_4 
REMARK    3  A    between atoms: O_4  and  C_5 
REMARK    4  A    between atoms: C_8  and  C_9 
REMARK       I    between atoms: C_9  and  N_10 
REMARK    5  A    between atoms: N_10  and  C_11 
REMARK    6  A    between atoms: N_12  and  C_13 
REMARK    7  A    between atoms: C_15  and  C_16 
REMARK    8  A    between atoms: C_27  and  O_28 
ROOT
HETATM    1  C   UNL     1       7.501  31.013  58.475  1.00  0.00     0.035 A 
HETATM    2  C   UNL     1       7.052  31.519  59.704  1.00  0.00     0.048 A 
HETATM    3  C   UNL     1       7.937  31.837  60.753  1.00  0.00     0.052 A 
HETATM    4  C   UNL     1       9.307  31.654  60.527  1.00  0.00     0.080 A 
HETATM    5  C   UNL     1       9.768  31.148  59.306  1.00  0.00     0.040 A 
HETATM    6  C   UNL     1       8.866  30.817  58.290  1.00  0.00     0.032 A 
ENDROOT
BRANCH   1   7
HETATM    7  N   UNL     1       6.507  30.639  57.546  1.00  0.00    -0.333 N 
HETATM    8  C   UNL     1       5.959  29.441  57.256  1.00  0.00     0.179 C 
HETATM    9  S   UNL     1       4.350  29.392  56.788  1.00  0.00    -0.040 SA
HETATM   10  H   UNL     1       5.964  31.416  57.183  1.00  0.00     0.168 HD
BRANCH   8  11
HETATM   11  N   UNL     1       6.637  28.266  57.292  1.00  0.00    -0.299 N 
HETATM   12  C   UNL     1       7.581  27.835  56.365  1.00  0.00     0.257 C 
HETATM   13  O   UNL     1       8.235  28.531  55.601  1.00  0.00    -0.267 OA
HETATM   14  H   UNL     1       6.032  27.526  57.624  1.00  0.00     0.171 HD
BRANCH  12  15
HETATM   15  C   UNL     1       7.747  26.355  56.313  1.00  0.00     0.032 A 
HETATM   16  C   UNL     1       8.472  25.732  57.334  1.00  0.00     0.020 A 
HETATM   17  C   UNL     1       8.726  24.360  57.269  1.00  0.00     0.038 A 
HETATM   18  C   UNL     1       8.230  23.602  56.208  1.00  0.00     0.068 A 
HETATM   19  C   UNL     1       7.489  24.217  55.198  1.00  0.00     0.038 A 
HETATM   20  C   UNL     1       7.243  25.594  55.250  1.00  0.00     0.020 A 
BRANCH  18  21
HETATM   21  O   UNL     1       8.589  22.283  56.198  1.00  0.00    -0.351 OA
BRANCH  21  22
HETATM   22  C   UNL     1       7.615  21.398  55.641  1.00  0.00     0.175 C 
BRANCH  22  23
HETATM   23  C   UNL     1       8.319  20.418  54.703  1.00  0.00     0.022 C 
HETATM   24  C   UNL     1       8.136  20.774  53.234  1.00  0.00     0.007 C 
ENDBRANCH  22  23
ENDBRANCH  21  22
ENDBRANCH  18  21
ENDBRANCH  12  15
ENDBRANCH   8  11
ENDBRANCH   1   7
BRANCH   3  25
HETATM   25  C   UNL     1       7.355  32.322  62.008  1.00  0.00     0.183 A 
HETATM   26  O   UNL     1       6.030  32.677  62.006  1.00  0.00    -0.288 OA
HETATM   27  C   UNL     1       5.801  33.145  63.269  1.00  0.00     0.112 A 
HETATM   28  C   UNL     1       6.992  33.057  63.966  1.00  0.00     0.094 A 
HETATM   29  C   UNL     1       4.603  33.635  63.787  1.00  0.00    -0.025 A 
HETATM   30  N   UNL     1       7.974  32.544  63.158  1.00  0.00    -0.221 NA
HETATM   31  C   UNL     1       7.036  33.484  65.300  1.00  0.00     0.041 A 
HETATM   32  C   UNL     1       5.859  33.990  65.883  1.00  0.00    -0.059 A 
HETATM   33  C   UNL     1       4.672  34.060  65.129  1.00  0.00     0.016 A 
HETATM   34  C   UNL     1       5.891  34.462  67.308  1.00  0.00     0.048 C 
HETATM   35  C   UNL     1       3.328  33.728  63.012  1.00  0.00     0.051 C 
ENDBRANCH   3  25
BRANCH   4  36
HETATM   36  O   UNL     1      10.224  31.968  61.492  1.00  0.00    -0.360 OA
HETATM   37  H   UNL     1       9.849  31.789  62.369  1.00  0.00     0.217 HD
ENDBRANCH   4  36
TORSDOF 8
ENDMDL
MODEL 4
REMARK VINA RESULT:     -10.2      2.324     10.962
REMARK  8 active torsions:
REMARK  status: ('A' for Active; 'I' for Inactive)
REMARK    1  A    between atoms: C_2  and  C_3 
REMARK    2  A    between atoms: C_3  and  O_4 
REMARK    3  A    between atoms: O_4  and  C_5 
REMARK    4  A    between atoms: C_8  and  C_9 
REMARK       I    between atoms: C_9  and  N_10 
REMARK    5  A    between atoms: N_10  and  C_11 
REMARK    6  A    between atoms: N_12  and  C_13 
REMARK    7  A    between atoms: C_15  and  C_16 
REMARK    8  A    between atoms: C_27  and  O_28 
ROOT
HETATM    1  C   UNL     1       6.855  29.778  56.297  1.00  0.00     0.035 A 
HETATM    2  C   UNL     1       6.480  30.674  57.307  1.00  0.00     0.048 A 
HETATM    3  C   UNL     1       7.191  30.780  58.519  1.00  0.00     0.052 A 
HETATM    4  C   UNL     1       8.320  29.967  58.684  1.00  0.00     0.080 A 
HETATM    5  C   UNL     1       8.704  29.067  57.684  1.00  0.00     0.040 A 
HETATM    6  C   UNL     1       7.965  28.964  56.501  1.00  0.00     0.032 A 
ENDROOT
BRANCH   1   7
HETATM    7  N   UNL     1       6.001  29.697  55.176  1.00  0.00    -0.333 N 
HETATM    8  C   UNL     1       5.343  28.656  54.627  1.00  0.00     0.179 C 
HETATM    9  S   UNL     1       3.856  28.941  53.907  1.00  0.00    -0.040 SA
HETATM   10  H   UNL     1       5.653  30.594  54.853  1.00  0.00     0.168 HD
BRANCH   8  11
HETATM   11  N   UNL     1       5.822  27.386  54.591  1.00  0.00    -0.299 N 
HETATM   12  C   UNL     1       5.789  26.467  55.636  1.00  0.00     0.257 C 
HETATM   13  O   UNL     1       5.034  26.472  56.598  1.00  0.00    -0.267 OA
HETATM   14  H   UNL     1       6.678  27.353  54.053  1.00  0.00     0.171 HD
BRANCH  12  15
HETATM   15  C   UNL     1       6.830  25.405  55.542  1.00  0.00     0.032 A 
HETATM   16  C   UNL     1       7.233  24.982  54.271  1.00  0.00     0.020 A 
HETATM   17  C   UNL     1       8.138  23.925  54.146  1.00  0.00     0.038 A 
HETATM   18  C   UNL     1       8.669  23.314  55.282  1.00  0.00     0.068 A 
HETATM   19  C   UNL     1       8.284  23.748  56.551  1.00  0.00     0.038 A 
HETATM   20  C   UNL     1       7.366  24.796  56.684  1.00  0.00     0.020 A 
BRANCH  18  21
HETATM   21  O   UNL     1       9.492  22.246  55.055  1.00  0.00    -0.351 OA
BRANCH  21  22
HETATM   22  C   UNL     1       8.938  20.975  55.401  1.00  0.00     0.175 C 
BRANCH  22  23
HETATM   23  C   UNL     1       7.883  20.598  54.362  1.00  0.00     0.022 C 
HETATM   24  C   UNL     1       8.471  20.387  52.974  1.00  0.00     0.007 C 
ENDBRANCH  22  23
ENDBRANCH  21  22
ENDBRANCH  18  21
ENDBRANCH  12  15
ENDBRANCH   8  11
ENDBRANCH   1   7
BRANCH   3  25
HETATM   25  C   UNL     1       6.687  31.723  59.522  1.00  0.00     0.183 A 
HETATM   26  O   UNL     1       7.347  31.800  60.721  1.00  0.00    -0.288 OA
HETATM   27  C   UNL     1       6.618  32.691  61.455  1.00  0.00     0.112 A 
HETATM   28  C   UNL     1       5.554  33.101  60.672  1.00  0.00     0.094 A 
HETATM   29  C   UNL     1       6.867  33.121  62.758  1.00  0.00    -0.025 A 
HETATM   30  N   UNL     1       5.600  32.477  59.452  1.00  0.00    -0.221 NA
HETATM   31  C   UNL     1       4.636  34.021  61.196  1.00  0.00     0.041 A 
HETATM   32  C   UNL     1       4.831  34.495  62.506  1.00  0.00    -0.059 A 
HETATM   33  C   UNL     1       5.929  34.044  63.264  1.00  0.00     0.016 A 
HETATM   34  C   UNL     1       3.850  35.472  63.087  1.00  0.00     0.048 C 
HETATM   35  C   UNL     1       8.020  32.658  63.589  1.00  0.00     0.051 C 
ENDBRANCH   3  25
BRANCH   4  36
HETATM   36  O   UNL     1       9.072  30.037  59.824  1.00  0.00    -0.360 OA
HETATM   37  H   UNL     1       8.887  30.869  60.287  1.00  0.00     0.217 HD
ENDBRANCH   4  36
TORSDOF 8
ENDMDL
MODEL 5
REMARK VINA RESULT:     -10.1      3.806     11.333
REMARK  8 active torsions:
REMARK  status: ('A' for Active; 'I' for Inactive)
REMARK    1  A    between atoms: C_2  and  C_3 
REMARK    2  A    between atoms: C_3  and  O_4 
REMARK    3  A    between atoms: O_4  and  C_5 
REMARK    4  A    between atoms: C_8  and  C_9 
REMARK       I    between atoms: C_9  and  N_10 
REMARK    5  A    between atoms: N_10  and  C_11 
REMARK    6  A    between atoms: N_12  and  C_13 
REMARK    7  A    between atoms: C_15  and  C_16 
REMARK    8  A    between atoms: C_27  and  O_28 
ROOT
HETATM    1  C   UNL     1       8.547  28.332  57.388  1.00  0.00     0.035 A 
HETATM    2  C   UNL     1       8.143  29.108  58.483  1.00  0.00     0.048 A 
HETATM    3  C   UNL     1       8.774  30.324  58.815  1.00  0.00     0.052 A 
HETATM    4  C   UNL     1       9.822  30.758  57.994  1.00  0.00     0.080 A 
HETATM    5  C   UNL     1      10.237  29.991  56.899  1.00  0.00     0.040 A 
HETATM    6  C   UNL     1       9.609  28.776  56.607  1.00  0.00     0.032 A 
ENDROOT
BRANCH   1   7
HETATM    7  N   UNL     1       7.900  27.088  57.223  1.00  0.00    -0.333 N 
HETATM    8  C   UNL     1       7.601  26.376  56.117  1.00  0.00     0.179 C 
HETATM    9  S   UNL     1       7.619  24.703  56.216  1.00  0.00    -0.040 SA
HETATM   10  H   UNL     1       7.836  26.537  58.072  1.00  0.00     0.168 HD
BRANCH   8  11
HETATM   11  N   UNL     1       7.255  26.929  54.927  1.00  0.00    -0.299 N 
HETATM   12  C   UNL     1       6.142  27.728  54.686  1.00  0.00     0.257 C 
HETATM   13  O   UNL     1       5.506  28.373  55.508  1.00  0.00    -0.267 OA
HETATM   14  H   UNL     1       7.461  26.286  54.173  1.00  0.00     0.171 HD
BRANCH  12  15
HETATM   15  C   UNL     1       5.697  27.735  53.263  1.00  0.00     0.032 A 
HETATM   16  C   UNL     1       5.057  28.878  52.773  1.00  0.00     0.020 A 
HETATM   17  C   UNL     1       4.545  28.884  51.474  1.00  0.00     0.038 A 
HETATM   18  C   UNL     1       4.700  27.769  50.650  1.00  0.00     0.068 A 
HETATM   19  C   UNL     1       5.356  26.634  51.130  1.00  0.00     0.038 A 
HETATM   20  C   UNL     1       5.859  26.616  52.436  1.00  0.00     0.020 A 
BRANCH  18  21
HETATM   21  O   UNL     1       4.105  27.848  49.422  1.00  0.00    -0.351 OA
BRANCH  21  22
HETATM   22  C   UNL     1       4.750  27.095  48.392  1.00  0.00     0.175 C 
BRANCH  22  23
HETATM   23  C   UNL     1       3.682  26.498  47.476  1.00  0.00     0.022 C 
HETATM   24  C   UNL     1       3.085  25.211  48.027  1.00  0.00     0.007 C 
ENDBRANCH  22  23
ENDBRANCH  21  22
ENDBRANCH  18  21
ENDBRANCH  12  15
ENDBRANCH   8  11
ENDBRANCH   1   7
BRANCH   3  25
HETATM   25  C   UNL     1       8.295  31.034  60.004  1.00  0.00     0.183 A 
HETATM   26  O   UNL     1       7.168  31.805  59.881  1.00  0.00    -0.288 OA
HETATM   27  C   UNL     1       7.014  32.382  61.110  1.00  0.00     0.112 A 
HETATM   28  C   UNL     1       8.053  31.941  61.909  1.00  0.00     0.094 A 
HETATM   29  C   UNL     1       6.012  33.264  61.513  1.00  0.00    -0.025 A 
HETATM   30  N   UNL     1       8.865  31.095  61.198  1.00  0.00    -0.221 NA
HETATM   31  C   UNL     1       8.137  32.394  63.232  1.00  0.00     0.041 A 
HETATM   32  C   UNL     1       7.156  33.287  63.701  1.00  0.00    -0.059 A 
HETATM   33  C   UNL     1       6.119  33.708  62.847  1.00  0.00     0.016 A 
HETATM   34  C   UNL     1       7.237  33.791  65.113  1.00  0.00     0.048 C 
HETATM   35  C   UNL     1       4.902  33.734  60.629  1.00  0.00     0.051 C 
ENDBRANCH   3  25
BRANCH   4  36
HETATM   36  O   UNL     1      10.462  31.941  58.243  1.00  0.00    -0.360 OA
HETATM   37  H   UNL     1      11.409  31.778  58.380  1.00  0.00     0.217 HD
ENDBRANCH   4  36
TORSDOF 8
ENDMDL
MODEL 6
REMARK VINA RESULT:     -10.1      3.671      5.001
REMARK  8 active torsions:
REMARK  status: ('A' for Active; 'I' for Inactive)
REMARK    1  A    between atoms: C_2  and  C_3 
REMARK    2  A    between atoms: C_3  and  O_4 
REMARK    3  A    between atoms: O_4  and  C_5 
REMARK    4  A    between atoms: C_8  and  C_9 
REMARK       I    between atoms: C_9  and  N_10 
REMARK    5  A    between atoms: N_10  and  C_11 
REMARK    6  A    between atoms: N_12  and  C_13 
REMARK    7  A    between atoms: C_15  and  C_16 
REMARK    8  A    between atoms: C_27  and  O_28 
ROOT
HETATM    1  C   UNL     1       3.735  29.259  52.453  1.00  0.00     0.035 A 
HETATM    2  C   UNL     1       4.425  28.129  52.916  1.00  0.00     0.048 A 
HETATM    3  C   UNL     1       4.978  27.175  52.038  1.00  0.00     0.052 A 
HETATM    4  C   UNL     1       4.838  27.399  50.663  1.00  0.00     0.080 A 
HETATM    5  C   UNL     1       4.150  28.521  50.188  1.00  0.00     0.040 A 
HETATM    6  C   UNL     1       3.590  29.439  51.082  1.00  0.00     0.032 A 
ENDROOT
BRANCH   1   7
HETATM    7  N   UNL     1       3.144  30.083  53.435  1.00  0.00    -0.333 N 
HETATM    8  C   UNL     1       3.685  30.821  54.425  1.00  0.00     0.179 C 
HETATM    9  S   UNL     1       2.927  32.252  54.859  1.00  0.00    -0.040 SA
HETATM   10  H   UNL     1       2.180  30.334  53.241  1.00  0.00     0.168 HD
BRANCH   8  11
HETATM   11  N   UNL     1       4.795  30.465  55.120  1.00  0.00    -0.299 N 
HETATM   12  C   UNL     1       4.863  29.498  56.118  1.00  0.00     0.257 C 
HETATM   13  O   UNL     1       4.092  28.566  56.295  1.00  0.00    -0.267 OA
HETATM   14  H   UNL     1       5.362  31.282  55.311  1.00  0.00     0.171 HD
BRANCH  12  15
HETATM   15  C   UNL     1       5.996  29.687  57.069  1.00  0.00     0.032 A 
HETATM   16  C   UNL     1       6.161  30.942  57.663  1.00  0.00     0.020 A 
HETATM   17  C   UNL     1       7.264  31.181  58.487  1.00  0.00     0.038 A 
HETATM   18  C   UNL     1       8.182  30.163  58.747  1.00  0.00     0.068 A 
HETATM   19  C   UNL     1       8.009  28.904  58.171  1.00  0.00     0.038 A 
HETATM   20  C   UNL     1       6.914  28.662  57.333  1.00  0.00     0.020 A 
BRANCH  18  21
HETATM   21  O   UNL     1       9.262  30.515  59.508  1.00  0.00    -0.351 OA
BRANCH  21  22
HETATM   22  C   UNL     1       9.256  31.867  59.971  1.00  0.00     0.175 C 
BRANCH  22  23
HETATM   23  C   UNL     1       9.619  31.881  61.456  1.00  0.00     0.022 C 
HETATM   24  C   UNL     1       8.398  31.818  62.363  1.00  0.00     0.007 C 
ENDBRANCH  22  23
ENDBRANCH  21  22
ENDBRANCH  18  21
ENDBRANCH  12  15
ENDBRANCH   8  11
ENDBRANCH   1   7
BRANCH   3  25
HETATM   25  C   UNL     1       5.644  26.013  52.633  1.00  0.00     0.183 A 
HETATM   26  O   UNL     1       5.710  25.940  54.000  1.00  0.00    -0.288 OA
HETATM   27  C   UNL     1       6.433  24.808  54.247  1.00  0.00     0.112 A 
HETATM   28  C   UNL     1       6.774  24.258  53.024  1.00  0.00     0.094 A 
HETATM   29  C   UNL     1       6.788  24.282  55.489  1.00  0.00    -0.025 A 
HETATM   30  N   UNL     1       6.278  25.032  52.006  1.00  0.00    -0.221 NA
HETATM   31  C   UNL     1       7.532  23.081  52.992  1.00  0.00     0.041 A 
HETATM   32  C   UNL     1       7.923  22.499  54.212  1.00  0.00    -0.059 A 
HETATM   33  C   UNL     1       7.553  23.099  55.431  1.00  0.00     0.016 A 
HETATM   34  C   UNL     1       8.746  21.243  54.195  1.00  0.00     0.048 C 
HETATM   35  C   UNL     1       6.416  24.897  56.799  1.00  0.00     0.051 C 
ENDBRANCH   3  25
BRANCH   4  36
HETATM   36  O   UNL     1       5.372  26.527  49.754  1.00  0.00    -0.360 OA
HETATM   37  H   UNL     1       5.337  25.624  50.107  1.00  0.00     0.217 HD
ENDBRANCH   4  36
TORSDOF 8
ENDMDL
MODEL 7
REMARK VINA RESULT:      -9.9      2.251     10.903
REMARK  8 active torsions:
REMARK  status: ('A' for Active; 'I' for Inactive)
REMARK    1  A    between atoms: C_2  and  C_3 
REMARK    2  A    between atoms: C_3  and  O_4 
REMARK    3  A    between atoms: O_4  and  C_5 
REMARK    4  A    between atoms: C_8  and  C_9 
REMARK       I    between atoms: C_9  and  N_10 
REMARK    5  A    between atoms: N_10  and  C_11 
REMARK    6  A    between atoms: N_12  and  C_13 
REMARK    7  A    between atoms: C_15  and  C_16 
REMARK    8  A    between atoms: C_27  and  O_28 
ROOT
HETATM    1  C   UNL     1       6.937  30.028  56.267  1.00  0.00     0.035 A 
HETATM    2  C   UNL     1       6.799  30.672  57.505  1.00  0.00     0.048 A 
HETATM    3  C   UNL     1       7.790  30.598  58.504  1.00  0.00     0.052 A 
HETATM    4  C   UNL     1       8.951  29.870  58.216  1.00  0.00     0.080 A 
HETATM    5  C   UNL     1       9.101  29.222  56.984  1.00  0.00     0.040 A 
HETATM    6  C   UNL     1       8.091  29.291  56.020  1.00  0.00     0.032 A 
ENDROOT
BRANCH   1   7
HETATM    7  N   UNL     1       5.831  30.096  55.393  1.00  0.00    -0.333 N 
HETATM    8  C   UNL     1       4.966  29.151  54.971  1.00  0.00     0.179 C 
HETATM    9  S   UNL     1       3.381  29.599  54.664  1.00  0.00    -0.040 SA
HETATM   10  H   UNL     1       5.497  31.038  55.217  1.00  0.00     0.168 HD
BRANCH   8  11
HETATM   11  N   UNL     1       5.304  27.855  54.748  1.00  0.00    -0.299 N 
HETATM   12  C   UNL     1       5.421  26.860  55.713  1.00  0.00     0.257 C 
HETATM   13  O   UNL     1       4.906  26.845  56.822  1.00  0.00    -0.267 OA
HETATM   14  H   UNL     1       6.010  27.800  54.025  1.00  0.00     0.171 HD
BRANCH  12  15
HETATM   15  C   UNL     1       6.311  25.732  55.316  1.00  0.00     0.032 A 
HETATM   16  C   UNL     1       6.521  24.698  56.234  1.00  0.00     0.020 A 
HETATM   17  C   UNL     1       7.420  23.672  55.931  1.00  0.00     0.038 A 
HETATM   18  C   UNL     1       8.082  23.656  54.704  1.00  0.00     0.068 A 
HETATM   19  C   UNL     1       7.859  24.676  53.778  1.00  0.00     0.038 A 
HETATM   20  C   UNL     1       6.971  25.714  54.080  1.00  0.00     0.020 A 
BRANCH  18  21
HETATM   21  O   UNL     1       8.991  22.650  54.530  1.00  0.00    -0.351 OA
BRANCH  21  22
HETATM   22  C   UNL     1       8.744  21.476  55.307  1.00  0.00     0.175 C 
BRANCH  22  23
HETATM   23  C   UNL     1       8.716  20.265  54.374  1.00  0.00     0.022 C 
HETATM   24  C   UNL     1       8.364  20.633  52.940  1.00  0.00     0.007 C 
ENDBRANCH  22  23
ENDBRANCH  21  22
ENDBRANCH  18  21
ENDBRANCH  12  15
ENDBRANCH   8  11
ENDBRANCH   1   7
BRANCH   3  25
HETATM   25  C   UNL     1       7.523  31.277  59.775  1.00  0.00     0.183 A 
HETATM   26  O   UNL     1       6.533  32.225  59.801  1.00  0.00    -0.288 OA
HETATM   27  C   UNL     1       6.567  32.719  61.074  1.00  0.00     0.112 A 
HETATM   28  C   UNL     1       7.575  32.055  61.750  1.00  0.00     0.094 A 
HETATM   29  C   UNL     1       5.757  33.714  61.620  1.00  0.00    -0.025 A 
HETATM   30  N   UNL     1       8.182  31.150  60.917  1.00  0.00    -0.221 NA
HETATM   31  C   UNL     1       7.829  32.381  63.089  1.00  0.00     0.041 A 
HETATM   32  C   UNL     1       7.046  33.377  63.699  1.00  0.00    -0.059 A 
HETATM   33  C   UNL     1       6.033  34.026  62.967  1.00  0.00     0.016 A 
HETATM   34  C   UNL     1       7.313  33.747  65.130  1.00  0.00     0.048 C 
HETATM   35  C   UNL     1       4.678  34.424  60.869  1.00  0.00     0.051 C 
ENDBRANCH   3  25
BRANCH   4  36
HETATM   36  O   UNL     1       9.965  29.780  59.129  1.00  0.00    -0.360 OA
HETATM   37  H   UNL     1       9.628  29.395  59.954  1.00  0.00     0.217 HD
ENDBRANCH   4  36
TORSDOF 8
ENDMDL
MODEL 8
REMARK VINA RESULT:      -9.9      2.102     11.284
REMARK  8 active torsions:
REMARK  status: ('A' for Active; 'I' for Inactive)
REMARK    1  A    between atoms: C_2  and  C_3 
REMARK    2  A    between atoms: C_3  and  O_4 
REMARK    3  A    between atoms: O_4  and  C_5 
REMARK    4  A    between atoms: C_8  and  C_9 
REMARK       I    between atoms: C_9  and  N_10 
REMARK    5  A    between atoms: N_10  and  C_11 
REMARK    6  A    between atoms: N_12  and  C_13 
REMARK    7  A    between atoms: C_15  and  C_16 
REMARK    8  A    between atoms: C_27  and  O_28 
ROOT
HETATM    1  C   UNL     1       7.084  30.851  58.160  1.00  0.00     0.035 A 
HETATM    2  C   UNL     1       6.726  31.456  59.374  1.00  0.00     0.048 A 
HETATM    3  C   UNL     1       5.440  31.988  59.597  1.00  0.00     0.052 A 
HETATM    4  C   UNL     1       4.501  31.876  58.564  1.00  0.00     0.080 A 
HETATM    5  C   UNL     1       4.846  31.277  57.347  1.00  0.00     0.040 A 
HETATM    6  C   UNL     1       6.137  30.779  57.143  1.00  0.00     0.032 A 
ENDROOT
BRANCH   1   7
HETATM    7  N   UNL     1       8.430  30.450  58.028  1.00  0.00    -0.333 N 
HETATM    8  C   UNL     1       9.036  29.632  57.143  1.00  0.00     0.179 C 
HETATM    9  S   UNL     1      10.617  29.968  56.699  1.00  0.00    -0.040 SA
HETATM   10  H   UNL     1       9.089  31.026  58.542  1.00  0.00     0.168 HD
BRANCH   8  11
HETATM   11  N   UNL     1       8.455  28.529  56.605  1.00  0.00    -0.299 N 
HETATM   12  C   UNL     1       8.002  27.416  57.306  1.00  0.00     0.257 C 
HETATM   13  O   UNL     1       7.697  27.365  58.489  1.00  0.00    -0.267 OA
HETATM   14  H   UNL     1       8.898  28.298  55.725  1.00  0.00     0.171 HD
BRANCH  12  15
HETATM   15  C   UNL     1       7.935  26.171  56.490  1.00  0.00     0.032 A 
HETATM   16  C   UNL     1       8.477  24.998  57.024  1.00  0.00     0.020 A 
HETATM   17  C   UNL     1       8.515  23.835  56.250  1.00  0.00     0.038 A 
HETATM   18  C   UNL     1       7.983  23.829  54.961  1.00  0.00     0.068 A 
HETATM   19  C   UNL     1       7.422  24.993  54.433  1.00  0.00     0.038 A 
HETATM   20  C   UNL     1       7.395  26.166  55.197  1.00  0.00     0.020 A 
BRANCH  18  21
HETATM   21  O   UNL     1       8.129  22.664  54.261  1.00  0.00    -0.351 OA
BRANCH  21  22
HETATM   22  C   UNL     1       8.927  21.671  54.907  1.00  0.00     0.175 C 
BRANCH  22  23
HETATM   23  C   UNL     1       8.673  20.321  54.236  1.00  0.00     0.022 C 
HETATM   24  C   UNL     1       8.181  20.459  52.802  1.00  0.00     0.007 C 
ENDBRANCH  22  23
ENDBRANCH  21  22
ENDBRANCH  18  21
ENDBRANCH  12  15
ENDBRANCH   8  11
ENDBRANCH   1   7
BRANCH   3  25
HETATM   25  C   UNL     1       5.189  32.632  60.889  1.00  0.00     0.183 A 
HETATM   26  O   UNL     1       6.215  32.672  61.798  1.00  0.00    -0.288 OA
HETATM   27  C   UNL     1       5.667  33.257  62.904  1.00  0.00     0.112 A 
HETATM   28  C   UNL     1       4.343  33.534  62.616  1.00  0.00     0.094 A 
HETATM   29  C   UNL     1       6.297  33.530  64.119  1.00  0.00    -0.025 A 
HETATM   30  N   UNL     1       4.045  33.127  61.341  1.00  0.00    -0.221 NA
HETATM   31  C   UNL     1       3.542  34.136  63.595  1.00  0.00     0.041 A 
HETATM   32  C   UNL     1       4.118  34.438  64.843  1.00  0.00    -0.059 A 
HETATM   33  C   UNL     1       5.471  34.134  65.088  1.00  0.00     0.016 A 
HETATM   34  C   UNL     1       3.271  35.072  65.908  1.00  0.00     0.048 C 
HETATM   35  C   UNL     1       7.729  33.215  64.411  1.00  0.00     0.051 C 
ENDBRANCH   3  25
BRANCH   4  36
HETATM   36  O   UNL     1       3.227  32.347  58.722  1.00  0.00    -0.360 OA
HETATM   37  H   UNL     1       2.915  32.150  59.620  1.00  0.00     0.217 HD
ENDBRANCH   4  36
TORSDOF 8
ENDMDL
MODEL 9
REMARK VINA RESULT:      -9.7      2.381      2.859
REMARK  8 active torsions:
REMARK  status: ('A' for Active; 'I' for Inactive)
REMARK    1  A    between atoms: C_2  and  C_3 
REMARK    2  A    between atoms: C_3  and  O_4 
REMARK    3  A    between atoms: O_4  and  C_5 
REMARK    4  A    between atoms: C_8  and  C_9 
REMARK       I    between atoms: C_9  and  N_10 
REMARK    5  A    between atoms: N_10  and  C_11 
REMARK    6  A    between atoms: N_12  and  C_13 
REMARK    7  A    between atoms: C_15  and  C_16 
REMARK    8  A    between atoms: C_27  and  O_28 
ROOT
HETATM    1  C   UNL     1       5.419  28.536  56.458  1.00  0.00     0.035 A 
HETATM    2  C   UNL     1       5.704  27.260  55.953  1.00  0.00     0.048 A 
HETATM    3  C   UNL     1       6.842  26.530  56.352  1.00  0.00     0.052 A 
HETATM    4  C   UNL     1       7.689  27.115  57.302  1.00  0.00     0.080 A 
HETATM    5  C   UNL     1       7.417  28.389  57.814  1.00  0.00     0.040 A 
HETATM    6  C   UNL     1       6.293  29.101  57.382  1.00  0.00     0.032 A 
ENDROOT
BRANCH   1   7
HETATM    7  N   UNL     1       4.305  29.200  55.904  1.00  0.00    -0.333 N 
HETATM    8  C   UNL     1       3.798  30.431  56.122  1.00  0.00     0.179 C 
HETATM    9  S   UNL     1       3.072  31.234  54.842  1.00  0.00    -0.040 SA
HETATM   10  H   UNL     1       3.948  28.776  55.054  1.00  0.00     0.168 HD
BRANCH   8  11
HETATM   11  N   UNL     1       3.811  31.056  57.327  1.00  0.00    -0.299 N 
HETATM   12  C   UNL     1       4.676  32.076  57.713  1.00  0.00     0.257 C 
HETATM   13  O   UNL     1       5.296  32.833  56.980  1.00  0.00    -0.267 OA
HETATM   14  H   UNL     1       3.617  30.392  58.065  1.00  0.00     0.171 HD
BRANCH  12  15
HETATM   15  C   UNL     1       4.858  32.191  59.187  1.00  0.00     0.032 A 
HETATM   16  C   UNL     1       6.160  32.268  59.691  1.00  0.00     0.020 A 
HETATM   17  C   UNL     1       6.371  32.283  61.072  1.00  0.00     0.038 A 
HETATM   18  C   UNL     1       5.287  32.258  61.951  1.00  0.00     0.068 A 
HETATM   19  C   UNL     1       3.985  32.202  61.450  1.00  0.00     0.038 A 
HETATM   20  C   UNL     1       3.768  32.172  60.068  1.00  0.00     0.020 A 
BRANCH  18  21
HETATM   21  O   UNL     1       5.599  32.208  63.281  1.00  0.00    -0.351 OA
BRANCH  21  22
HETATM   22  C   UNL     1       5.084  33.289  64.060  1.00  0.00     0.175 C 
BRANCH  22  23
HETATM   23  C   UNL     1       6.249  33.992  64.757  1.00  0.00     0.022 C 
HETATM   24  C   UNL     1       7.583  33.301  64.518  1.00  0.00     0.007 C 
ENDBRANCH  22  23
ENDBRANCH  21  22
ENDBRANCH  18  21
ENDBRANCH  12  15
ENDBRANCH   8  11
ENDBRANCH   1   7
BRANCH   3  25
HETATM   25  C   UNL     1       7.062  25.222  55.729  1.00  0.00     0.183 A 
HETATM   26  O   UNL     1       7.404  24.173  56.543  1.00  0.00    -0.288 OA
HETATM   27  C   UNL     1       7.606  23.129  55.686  1.00  0.00     0.112 A 
HETATM   28  C   UNL     1       7.387  23.596  54.403  1.00  0.00     0.094 A 
HETATM   29  C   UNL     1       7.977  21.824  56.011  1.00  0.00    -0.025 A 
HETATM   30  N   UNL     1       7.051  24.925  54.438  1.00  0.00    -0.221 NA
HETATM   31  C   UNL     1       7.537  22.718  53.321  1.00  0.00     0.041 A 
HETATM   32  C   UNL     1       7.909  21.387  53.582  1.00  0.00    -0.059 A 
HETATM   33  C   UNL     1       8.124  20.961  54.907  1.00  0.00     0.016 A 
HETATM   34  C   UNL     1       8.085  20.436  52.434  1.00  0.00     0.048 C 
HETATM   35  C   UNL     1       8.217  21.342  57.405  1.00  0.00     0.051 C 
ENDBRANCH   3  25
BRANCH   4  36
HETATM   36  O   UNL     1       8.797  26.453  57.754  1.00  0.00    -0.360 OA
HETATM   37  H   UNL     1       8.531  25.761  58.381  1.00  0.00     0.217 HD
ENDBRANCH   4  36
TORSDOF 8
ENDMDL
MODEL 10
REMARK VINA RESULT:      -9.4      2.141     11.583
REMARK  8 active torsions:
REMARK  status: ('A' for Active; 'I' for Inactive)
REMARK    1  A    between atoms: C_2  and  C_3 
REMARK    2  A    between atoms: C_3  and  O_4 
REMARK    3  A    between atoms: O_4  and  C_5 
REMARK    4  A    between atoms: C_8  and  C_9 
REMARK       I    between atoms: C_9  and  N_10 
REMARK    5  A    between atoms: N_10  and  C_11 
REMARK    6  A    between atoms: N_12  and  C_13 
REMARK    7  A    between atoms: C_15  and  C_16 
REMARK    8  A    between atoms: C_27  and  O_28 
ROOT
HETATM    1  C   UNL     1       7.473  31.369  59.168  1.00  0.00     0.035 A 
HETATM    2  C   UNL     1       7.314  31.747  60.509  1.00  0.00     0.048 A 
HETATM    3  C   UNL     1       6.205  32.494  60.953  1.00  0.00     0.052 A 
HETATM    4  C   UNL     1       5.232  32.838  60.006  1.00  0.00     0.080 A 
HETATM    5  C   UNL     1       5.379  32.469  58.663  1.00  0.00     0.040 A 
HETATM    6  C   UNL     1       6.503  31.749  58.246  1.00  0.00     0.032 A 
ENDROOT
BRANCH   1   7
HETATM    7  N   UNL     1       8.676  30.711  58.836  1.00  0.00    -0.333 N 
HETATM    8  C   UNL     1       9.061  30.062  57.718  1.00  0.00     0.179 C 
HETATM    9  S   UNL     1      10.677  30.121  57.277  1.00  0.00    -0.040 SA
HETATM   10  H   UNL     1       9.456  30.938  59.444  1.00  0.00     0.168 HD
BRANCH   8  11
HETATM   11  N   UNL     1       8.225  29.335  56.934  1.00  0.00    -0.299 N 
HETATM   12  C   UNL     1       7.768  28.047  57.196  1.00  0.00     0.257 C 
HETATM   13  O   UNL     1       7.712  27.492  58.284  1.00  0.00    -0.267 OA
HETATM   14  H   UNL     1       8.435  29.498  55.958  1.00  0.00     0.171 HD
BRANCH  12  15
HETATM   15  C   UNL     1       7.349  27.294  55.980  1.00  0.00     0.032 A 
HETATM   16  C   UNL     1       6.510  26.187  56.141  1.00  0.00     0.020 A 
HETATM   17  C   UNL     1       6.173  25.403  55.035  1.00  0.00     0.038 A 
HETATM   18  C   UNL     1       6.640  25.741  53.764  1.00  0.00     0.068 A 
HETATM   19  C   UNL     1       7.460  26.857  53.597  1.00  0.00     0.038 A 
HETATM   20  C   UNL     1       7.814  27.638  54.704  1.00  0.00     0.020 A 
BRANCH  18  21
HETATM   21  O   UNL     1       6.311  24.875  52.759  1.00  0.00    -0.351 OA
BRANCH  21  22
HETATM   22  C   UNL     1       6.606  23.502  53.027  1.00  0.00     0.175 C 
BRANCH  22  23
HETATM   23  C   UNL     1       8.117  23.295  52.931  1.00  0.00     0.022 C 
HETATM   24  C   UNL     1       8.691  22.570  54.139  1.00  0.00     0.007 C 
ENDBRANCH  22  23
ENDBRANCH  21  22
ENDBRANCH  18  21
ENDBRANCH  12  15
ENDBRANCH   8  11
ENDBRANCH   1   7
BRANCH   3  25
HETATM   25  C   UNL     1       6.161  32.866  62.369  1.00  0.00     0.183 A 
HETATM   26  O   UNL     1       4.971  33.321  62.877  1.00  0.00    -0.288 OA
HETATM   27  C   UNL     1       5.256  33.648  64.173  1.00  0.00     0.112 A 
HETATM   28  C   UNL     1       6.598  33.384  64.381  1.00  0.00     0.094 A 
HETATM   29  C   UNL     1       4.382  34.164  65.129  1.00  0.00    -0.025 A 
HETATM   30  N   UNL     1       7.166  32.898  63.232  1.00  0.00    -0.221 NA
HETATM   31  C   UNL     1       7.156  33.641  65.641  1.00  0.00     0.041 A 
HETATM   32  C   UNL     1       6.326  34.162  66.651  1.00  0.00    -0.059 A 
HETATM   33  C   UNL     1       4.967  34.416  66.387  1.00  0.00     0.016 A 
HETATM   34  C   UNL     1       6.911  34.454  68.002  1.00  0.00     0.048 C 
HETATM   35  C   UNL     1       2.936  34.449  64.879  1.00  0.00     0.051 C 
ENDBRANCH   3  25
BRANCH   4  36
HETATM   36  O   UNL     1       4.116  33.540  60.371  1.00  0.00    -0.360 OA
HETATM   37  H   UNL     1       4.372  34.427  60.669  1.00  0.00     0.217 HD
ENDBRANCH   4  36
TORSDOF 8
ENDMDL
