MODEL 1
REMARK VINA RESULT:      -9.4      0.000      0.000
REMARK  7 active torsions:
REMARK  status: ('A' for Active; 'I' for Inactive)
REMARK    1  A    between atoms: C_2  and  N_3 
REMARK       I    between atoms: N_3  and  C_4 
REMARK    2  A    between atoms: C_4  and  C_5 
REMARK    3  A    between atoms: C_9  and  N_10 
REMARK       I    between atoms: N_10  and  C_11 
REMARK    4  A    between atoms: C_11  and  C_12 
REMARK    5  A    between atoms: C_12  and  S_13 
REMARK    6  A    between atoms: S_13  and  C_14 
REMARK    7  A    between atoms: C_14  and  C_15 
ROOT
HETATM    1  N   UNL     1       8.591  30.722  59.460  1.00  0.00    -0.326 N 
HETATM    2  C   UNL     1       9.504  31.191  58.525  1.00  0.00     0.231 C 
HETATM    3  O   UNL     1      10.144  32.237  58.594  1.00  0.00    -0.272 OA
HETATM    4  H   UNL     1       8.265  29.765  59.332  1.00  0.00     0.169 HD
ENDROOT
BRANCH   2   5
HETATM    5  C   UNL     1       9.685  30.262  57.332  1.00  0.00     0.177 C 
BRANCH   5   6
HETATM    6  S   UNL     1       8.584  28.807  57.444  1.00  0.00    -0.147 SA
BRANCH   6   7
HETATM    7  C   UNL     1       7.720  28.943  55.832  1.00  0.00     0.113 C 
HETATM    8  C   UNL     1       6.337  29.555  56.045  1.00  0.00     0.029 C 
BRANCH   7   9
HETATM    9  C   UNL     1       7.653  27.596  55.179  1.00  0.00     0.118 A 
HETATM   10  N   UNL     1       7.339  26.456  55.770  1.00  0.00    -0.232 NA
HETATM   11  C   UNL     1       7.373  25.505  54.776  1.00  0.00     0.085 A 
HETATM   12  C   UNL     1       7.661  26.083  53.546  1.00  0.00     0.062 A 
HETATM   13  C   UNL     1       7.156  24.121  54.846  1.00  0.00     0.034 A 
HETATM   14  N   UNL     1       7.826  27.413  53.826  1.00  0.00    -0.342 N 
HETATM   15  C   UNL     1       7.732  25.359  52.354  1.00  0.00     0.032 A 
HETATM   16  H   UNL     1       8.017  28.141  53.153  1.00  0.00     0.167 HD
HETATM   17  C   UNL     1       7.510  23.980  52.442  1.00  0.00     0.002 A 
HETATM   18  C   UNL     1       7.230  23.368  53.666  1.00  0.00     0.002 A 
ENDBRANCH   7   9
ENDBRANCH   6   7
ENDBRANCH   5   6
ENDBRANCH   2   5
BRANCH   1  19
HETATM   19  C   UNL     1       8.141  31.391  60.629  1.00  0.00     0.040 A 
HETATM   20  C   UNL     1       6.926  32.111  60.588  1.00  0.00    -0.034 A 
HETATM   21  C   UNL     1       6.455  32.758  61.751  1.00  0.00     0.026 A 
HETATM   22  C   UNL     1       6.082  32.208  59.346  1.00  0.00     0.050 C 
HETATM   23  C   UNL     1       7.180  32.705  62.946  1.00  0.00     0.032 A 
HETATM   24  C   UNL     1       8.397  32.030  62.972  1.00  0.00     0.019 A 
HETATM   25  C   UNL     1       8.869  31.378  61.826  1.00  0.00     0.031 A 
BRANCH  23  26
HETATM   26  C   UNL     1       6.705  33.365  64.195  1.00  0.00     0.251 C 
HETATM   27  N   UNL     1       5.351  33.284  64.452  1.00  0.00    -0.357 N 
HETATM   28  H   UNL     1       4.784  32.654  63.901  1.00  0.00     0.162 HD
HETATM   29  O   UNL     1       7.505  33.906  64.950  1.00  0.00    -0.268 OA
BRANCH  27  30
HETATM   30  C   UNL     1       4.788  33.784  65.688  1.00  0.00     0.118 C 
HETATM   31  C   UNL     1       3.564  34.646  65.433  1.00  0.00     0.026 C 
ENDBRANCH  27  30
ENDBRANCH  23  26
ENDBRANCH   1  19
TORSDOF 7
ENDMDL
MODEL 2
REMARK VINA RESULT:      -9.2      2.834      4.984
REMARK  7 active torsions:
REMARK  status: ('A' for Active; 'I' for Inactive)
REMARK    1  A    between atoms: C_2  and  N_3 
REMARK       I    between atoms: N_3  and  C_4 
REMARK    2  A    between atoms: C_4  and  C_5 
REMARK    3  A    between atoms: C_9  and  N_10 
REMARK       I    between atoms: N_10  and  C_11 
REMARK    4  A    between atoms: C_11  and  C_12 
REMARK    5  A    between atoms: C_12  and  S_13 
REMARK    6  A    between atoms: S_13  and  C_14 
REMARK    7  A    between atoms: C_14  and  C_15 
ROOT
HETATM    1  N   UNL     1       6.269  28.600  55.598  1.00  0.00    -0.326 N 
HETATM    2  C   UNL     1       5.387  27.527  55.582  1.00  0.00     0.231 C 
HETATM    3  O   UNL     1       4.762  27.086  56.542  1.00  0.00    -0.272 OA
HETATM    4  H   UNL     1       6.584  28.938  54.690  1.00  0.00     0.169 HD
ENDROOT
BRANCH   2   5
HETATM    5  C   UNL     1       5.224  26.895  54.207  1.00  0.00     0.177 C 
BRANCH   5   6
HETATM    6  S   UNL     1       6.843  26.558  53.428  1.00  0.00    -0.147 SA
BRANCH   6   7
HETATM    7  C   UNL     1       6.464  24.969  52.593  1.00  0.00     0.113 C 
HETATM    8  C   UNL     1       4.955  24.842  52.397  1.00  0.00     0.029 C 
BRANCH   7   9
HETATM    9  C   UNL     1       7.035  23.833  53.387  1.00  0.00     0.118 A 
HETATM   10  N   UNL     1       7.083  23.748  54.705  1.00  0.00    -0.232 NA
HETATM   11  C   UNL     1       7.652  22.524  54.974  1.00  0.00     0.085 A 
HETATM   12  C   UNL     1       7.907  21.826  53.800  1.00  0.00     0.062 A 
HETATM   13  C   UNL     1       7.973  21.931  56.204  1.00  0.00     0.034 A 
HETATM   14  N   UNL     1       7.498  22.674  52.806  1.00  0.00    -0.342 N 
HETATM   15  C   UNL     1       8.457  20.544  53.772  1.00  0.00     0.032 A 
HETATM   16  H   UNL     1       7.510  22.476  51.815  1.00  0.00     0.167 HD
HETATM   17  C   UNL     1       8.769  19.966  55.007  1.00  0.00     0.002 A 
HETATM   18  C   UNL     1       8.535  20.647  56.205  1.00  0.00     0.002 A 
ENDBRANCH   7   9
ENDBRANCH   6   7
ENDBRANCH   5   6
ENDBRANCH   2   5
BRANCH   1  19
HETATM   19  C   UNL     1       6.698  29.341  56.731  1.00  0.00     0.040 A 
HETATM   20  C   UNL     1       7.815  28.888  57.469  1.00  0.00    -0.034 A 
HETATM   21  C   UNL     1       8.267  29.631  58.581  1.00  0.00     0.026 A 
HETATM   22  C   UNL     1       8.575  27.640  57.107  1.00  0.00     0.050 C 
HETATM   23  C   UNL     1       7.619  30.806  58.972  1.00  0.00     0.032 A 
HETATM   24  C   UNL     1       6.493  31.226  58.269  1.00  0.00     0.019 A 
HETATM   25  C   UNL     1       6.042  30.502  57.159  1.00  0.00     0.031 A 
BRANCH  23  26
HETATM   26  C   UNL     1       8.078  31.620  60.132  1.00  0.00     0.251 C 
HETATM   27  N   UNL     1       7.767  31.129  61.385  1.00  0.00    -0.357 N 
HETATM   28  H   UNL     1       7.414  30.186  61.468  1.00  0.00     0.162 HD
HETATM   29  O   UNL     1       8.728  32.644  59.950  1.00  0.00    -0.268 OA
BRANCH  27  30
HETATM   30  C   UNL     1       8.258  31.768  62.588  1.00  0.00     0.118 C 
HETATM   31  C   UNL     1       7.220  32.700  63.185  1.00  0.00     0.026 C 
ENDBRANCH  27  30
ENDBRANCH  23  26
ENDBRANCH   1  19
TORSDOF 7
ENDMDL
MODEL 3
REMARK VINA RESULT:      -9.1      1.358      1.749
REMARK  7 active torsions:
REMARK  status: ('A' for Active; 'I' for Inactive)
REMARK    1  A    between atoms: C_2  and  N_3 
REMARK       I    between atoms: N_3  and  C_4 
REMARK    2  A    between atoms: C_4  and  C_5 
REMARK    3  A    between atoms: C_9  and  N_10 
REMARK       I    between atoms: N_10  and  C_11 
REMARK    4  A    between atoms: C_11  and  C_12 
REMARK    5  A    between atoms: C_12  and  S_13 
REMARK    6  A    between atoms: S_13  and  C_14 
REMARK    7  A    between atoms: C_14  and  C_15 
ROOT
HETATM    1  N   UNL     1       7.983  31.156  60.309  1.00  0.00    -0.326 N 
HETATM    2  C   UNL     1       8.906  31.521  59.338  1.00  0.00     0.231 C 
HETATM    3  O   UNL     1       9.603  32.532  59.341  1.00  0.00    -0.272 OA
HETATM    4  H   UNL     1       7.603  30.212  60.238  1.00  0.00     0.169 HD
ENDROOT
BRANCH   2   5
HETATM    5  C   UNL     1       9.017  30.519  58.197  1.00  0.00     0.177 C 
BRANCH   5   6
HETATM    6  S   UNL     1       7.639  29.319  58.223  1.00  0.00    -0.147 SA
BRANCH   6   7
HETATM    7  C   UNL     1       7.662  28.777  56.471  1.00  0.00     0.113 C 
HETATM    8  C   UNL     1       6.400  29.271  55.767  1.00  0.00     0.029 C 
BRANCH   7   9
HETATM    9  C   UNL     1       7.805  27.286  56.405  1.00  0.00     0.118 A 
HETATM   10  N   UNL     1       8.364  26.515  57.321  1.00  0.00    -0.232 NA
HETATM   11  C   UNL     1       8.233  25.229  56.848  1.00  0.00     0.085 A 
HETATM   12  C   UNL     1       7.534  25.211  55.647  1.00  0.00     0.062 A 
HETATM   13  C   UNL     1       8.677  24.017  57.397  1.00  0.00     0.034 A 
HETATM   14  N   UNL     1       7.265  26.528  55.391  1.00  0.00    -0.342 N 
HETATM   15  C   UNL     1       7.229  24.039  54.953  1.00  0.00     0.032 A 
HETATM   16  H   UNL     1       6.739  26.884  54.606  1.00  0.00     0.167 HD
HETATM   17  C   UNL     1       7.677  22.839  55.517  1.00  0.00     0.002 A 
HETATM   18  C   UNL     1       8.392  22.825  56.717  1.00  0.00     0.002 A 
ENDBRANCH   7   9
ENDBRANCH   6   7
ENDBRANCH   5   6
ENDBRANCH   2   5
BRANCH   1  19
HETATM   19  C   UNL     1       7.588  31.911  61.445  1.00  0.00     0.040 A 
HETATM   20  C   UNL     1       6.381  32.645  61.400  1.00  0.00    -0.034 A 
HETATM   21  C   UNL     1       5.965  33.378  62.533  1.00  0.00     0.026 A 
HETATM   22  C   UNL     1       5.488  32.665  60.188  1.00  0.00     0.050 C 
HETATM   23  C   UNL     1       6.737  33.399  63.698  1.00  0.00     0.032 A 
HETATM   24  C   UNL     1       7.946  32.711  63.724  1.00  0.00     0.019 A 
HETATM   25  C   UNL     1       8.364  31.973  62.610  1.00  0.00     0.031 A 
BRANCH  23  26
HETATM   26  C   UNL     1       6.321  34.152  64.915  1.00  0.00     0.251 C 
HETATM   27  N   UNL     1       5.359  35.127  64.731  1.00  0.00    -0.357 N 
HETATM   28  H   UNL     1       4.865  35.168  63.851  1.00  0.00     0.162 HD
HETATM   29  O   UNL     1       6.796  33.870  66.009  1.00  0.00    -0.268 OA
BRANCH  27  30
HETATM   30  C   UNL     1       4.791  35.844  65.853  1.00  0.00     0.118 C 
HETATM   31  C   UNL     1       3.466  35.242  66.284  1.00  0.00     0.026 C 
ENDBRANCH  27  30
ENDBRANCH  23  26
ENDBRANCH   1  19
TORSDOF 7
ENDMDL
MODEL 4
REMARK VINA RESULT:      -8.8      3.370     10.223
REMARK  7 active torsions:
REMARK  status: ('A' for Active; 'I' for Inactive)
REMARK    1  A    between atoms: C_2  and  N_3 
REMARK       I    between atoms: N_3  and  C_4 
REMARK    2  A    between atoms: C_4  and  C_5 
REMARK    3  A    between atoms: C_9  and  N_10 
REMARK       I    between atoms: N_10  and  C_11 
REMARK    4  A    between atoms: C_11  and  C_12 
REMARK    5  A    between atoms: C_12  and  S_13 
REMARK    6  A    between atoms: S_13  and  C_14 
REMARK    7  A    between atoms: C_14  and  C_15 
ROOT
HETATM    1  N   UNL     1       4.598  27.767  55.875  1.00  0.00    -0.326 N 
HETATM    2  C   UNL     1       5.050  29.011  56.298  1.00  0.00     0.231 C 
HETATM    3  O   UNL     1       6.200  29.292  56.626  1.00  0.00    -0.272 OA
HETATM    4  H   UNL     1       3.655  27.739  55.490  1.00  0.00     0.169 HD
ENDROOT
BRANCH   2   5
HETATM    5  C   UNL     1       3.965  30.077  56.323  1.00  0.00     0.177 C 
BRANCH   5   6
HETATM    6  S   UNL     1       3.609  30.631  58.029  1.00  0.00    -0.147 SA
BRANCH   6   7
HETATM    7  C   UNL     1       4.522  32.221  58.039  1.00  0.00     0.113 C 
HETATM    8  C   UNL     1       4.910  32.597  56.610  1.00  0.00     0.029 C 
BRANCH   7   9
HETATM    9  C   UNL     1       5.713  32.114  58.943  1.00  0.00     0.118 A 
HETATM   10  N   UNL     1       6.981  32.172  58.576  1.00  0.00    -0.232 NA
HETATM   11  C   UNL     1       7.707  32.066  59.740  1.00  0.00     0.085 A 
HETATM   12  C   UNL     1       6.866  31.996  60.844  1.00  0.00     0.062 A 
HETATM   13  C   UNL     1       9.095  32.035  59.936  1.00  0.00     0.034 A 
HETATM   14  N   UNL     1       5.605  32.037  60.314  1.00  0.00    -0.342 N 
HETATM   15  C   UNL     1       7.329  31.911  62.158  1.00  0.00     0.032 A 
HETATM   16  H   UNL     1       4.741  32.037  60.837  1.00  0.00     0.167 HD
HETATM   17  C   UNL     1       8.717  31.883  62.335  1.00  0.00     0.002 A 
HETATM   18  C   UNL     1       9.588  31.941  61.244  1.00  0.00     0.002 A 
ENDBRANCH   7   9
ENDBRANCH   6   7
ENDBRANCH   5   6
ENDBRANCH   2   5
BRANCH   1  19
HETATM   19  C   UNL     1       5.338  26.557  55.824  1.00  0.00     0.040 A 
HETATM   20  C   UNL     1       5.519  25.909  54.581  1.00  0.00    -0.034 A 
HETATM   21  C   UNL     1       6.275  24.719  54.515  1.00  0.00     0.026 A 
HETATM   22  C   UNL     1       4.951  26.449  53.296  1.00  0.00     0.050 C 
HETATM   23  C   UNL     1       6.842  24.163  55.666  1.00  0.00     0.032 A 
HETATM   24  C   UNL     1       6.626  24.780  56.894  1.00  0.00     0.019 A 
HETATM   25  C   UNL     1       5.885  25.965  56.970  1.00  0.00     0.031 A 
BRANCH  23  26
HETATM   26  C   UNL     1       7.656  22.916  55.628  1.00  0.00     0.251 C 
HETATM   27  N   UNL     1       7.587  22.175  54.464  1.00  0.00    -0.357 N 
HETATM   28  H   UNL     1       7.149  22.582  53.650  1.00  0.00     0.162 HD
HETATM   29  O   UNL     1       8.367  22.614  56.580  1.00  0.00    -0.268 OA
BRANCH  27  30
HETATM   30  C   UNL     1       8.420  21.009  54.264  1.00  0.00     0.118 C 
HETATM   31  C   UNL     1       8.312  20.486  52.842  1.00  0.00     0.026 C 
ENDBRANCH  27  30
ENDBRANCH  23  26
ENDBRANCH   1  19
TORSDOF 7
ENDMDL
MODEL 5
REMARK VINA RESULT:      -8.8      2.086      2.879
REMARK  7 active torsions:
REMARK  status: ('A' for Active; 'I' for Inactive)
REMARK    1  A    between atoms: C_2  and  N_3 
REMARK       I    between atoms: N_3  and  C_4 
REMARK    2  A    between atoms: C_4  and  C_5 
REMARK    3  A    between atoms: C_9  and  N_10 
REMARK       I    between atoms: N_10  and  C_11 
REMARK    4  A    between atoms: C_11  and  C_12 
REMARK    5  A    between atoms: C_12  and  S_13 
REMARK    6  A    between atoms: S_13  and  C_14 
REMARK    7  A    between atoms: C_14  and  C_15 
ROOT
HETATM    1  N   UNL     1       7.814  29.982  57.526  1.00  0.00    -0.326 N 
HETATM    2  C   UNL     1       7.801  28.608  57.329  1.00  0.00     0.231 C 
HETATM    3  O   UNL     1       7.653  27.751  58.197  1.00  0.00    -0.272 OA
HETATM    4  H   UNL     1       7.789  30.558  56.685  1.00  0.00     0.169 HD
ENDROOT
BRANCH   2   5
HETATM    5  C   UNL     1       7.985  28.199  55.874  1.00  0.00     0.177 C 
BRANCH   5   6
HETATM    6  S   UNL     1       6.610  27.142  55.297  1.00  0.00    -0.147 SA
BRANCH   6   7
HETATM    7  C   UNL     1       7.391  26.393  53.816  1.00  0.00     0.113 C 
HETATM    8  C   UNL     1       6.546  26.703  52.582  1.00  0.00     0.029 C 
BRANCH   7   9
HETATM    9  C   UNL     1       7.570  24.920  54.030  1.00  0.00     0.118 A 
HETATM   10  N   UNL     1       7.478  24.282  55.183  1.00  0.00    -0.232 NA
HETATM   11  C   UNL     1       7.680  22.953  54.886  1.00  0.00     0.085 A 
HETATM   12  C   UNL     1       7.843  22.771  53.518  1.00  0.00     0.062 A 
HETATM   13  C   UNL     1       7.724  21.837  55.733  1.00  0.00     0.034 A 
HETATM   14  N   UNL     1       7.761  24.033  52.995  1.00  0.00    -0.342 N 
HETATM   15  C   UNL     1       8.037  21.521  52.927  1.00  0.00     0.032 A 
HETATM   16  H   UNL     1       7.807  24.273  52.015  1.00  0.00     0.167 HD
HETATM   17  C   UNL     1       8.076  20.418  53.788  1.00  0.00     0.002 A 
HETATM   18  C   UNL     1       7.926  20.571  55.168  1.00  0.00     0.002 A 
ENDBRANCH   7   9
ENDBRANCH   6   7
ENDBRANCH   5   6
ENDBRANCH   2   5
BRANCH   1  19
HETATM   19  C   UNL     1       7.753  30.673  58.765  1.00  0.00     0.040 A 
HETATM   20  C   UNL     1       6.735  31.629  58.974  1.00  0.00    -0.034 A 
HETATM   21  C   UNL     1       6.649  32.302  60.212  1.00  0.00     0.026 A 
HETATM   22  C   UNL     1       5.703  31.957  57.928  1.00  0.00     0.050 C 
HETATM   23  C   UNL     1       7.566  32.044  61.235  1.00  0.00     0.032 A 
HETATM   24  C   UNL     1       8.594  31.132  61.011  1.00  0.00     0.019 A 
HETATM   25  C   UNL     1       8.682  30.453  59.790  1.00  0.00     0.031 A 
BRANCH  23  26
HETATM   26  C   UNL     1       7.496  32.727  62.557  1.00  0.00     0.251 C 
HETATM   27  N   UNL     1       6.501  33.674  62.704  1.00  0.00    -0.357 N 
HETATM   28  H   UNL     1       5.776  33.736  62.003  1.00  0.00     0.162 HD
HETATM   29  O   UNL     1       8.269  32.414  63.456  1.00  0.00    -0.268 OA
BRANCH  27  30
HETATM   30  C   UNL     1       6.259  34.320  63.977  1.00  0.00     0.118 C 
HETATM   31  C   UNL     1       5.227  33.565  64.796  1.00  0.00     0.026 C 
ENDBRANCH  27  30
ENDBRANCH  23  26
ENDBRANCH   1  19
TORSDOF 7
ENDMDL
MODEL 6
REMARK VINA RESULT:      -8.8      6.791     10.732
REMARK  7 active torsions:
REMARK  status: ('A' for Active; 'I' for Inactive)
REMARK    1  A    between atoms: C_2  and  N_3 
REMARK       I    between atoms: N_3  and  C_4 
REMARK    2  A    between atoms: C_4  and  C_5 
REMARK    3  A    between atoms: C_9  and  N_10 
REMARK       I    between atoms: N_10  and  C_11 
REMARK    4  A    between atoms: C_11  and  C_12 
REMARK    5  A    between atoms: C_12  and  S_13 
REMARK    6  A    between atoms: S_13  and  C_14 
REMARK    7  A    between atoms: C_14  and  C_15 
ROOT
HETATM    1  N   UNL     1       5.237  27.382  53.714  1.00  0.00    -0.326 N 
HETATM    2  C   UNL     1       6.512  27.607  54.217  1.00  0.00     0.231 C 
HETATM    3  O   UNL     1       7.526  27.822  53.558  1.00  0.00    -0.272 OA
HETATM    4  H   UNL     1       4.479  27.377  54.395  1.00  0.00     0.169 HD
ENDROOT
BRANCH   2   5
HETATM    5  C   UNL     1       6.580  27.579  55.738  1.00  0.00     0.177 C 
BRANCH   5   6
HETATM    6  S   UNL     1       5.798  26.072  56.415  1.00  0.00    -0.147 SA
BRANCH   6   7
HETATM    7  C   UNL     1       7.255  25.292  57.209  1.00  0.00     0.113 C 
HETATM    8  C   UNL     1       8.406  26.294  57.261  1.00  0.00     0.029 C 
BRANCH   7   9
HETATM    9  C   UNL     1       7.623  24.039  56.472  1.00  0.00     0.118 A 
HETATM   10  N   UNL     1       8.128  22.941  57.004  1.00  0.00    -0.232 NA
HETATM   11  C   UNL     1       8.265  22.056  55.958  1.00  0.00     0.085 A 
HETATM   12  C   UNL     1       7.784  22.606  54.777  1.00  0.00     0.062 A 
HETATM   13  C   UNL     1       8.784  20.752  55.943  1.00  0.00     0.034 A 
HETATM   14  N   UNL     1       7.373  23.863  55.130  1.00  0.00    -0.342 N 
HETATM   15  C   UNL     1       7.771  21.921  53.560  1.00  0.00     0.032 A 
HETATM   16  H   UNL     1       6.938  24.538  54.518  1.00  0.00     0.167 HD
HETATM   17  C   UNL     1       8.290  20.622  53.564  1.00  0.00     0.002 A 
HETATM   18  C   UNL     1       8.791  20.045  54.734  1.00  0.00     0.002 A 
ENDBRANCH   7   9
ENDBRANCH   6   7
ENDBRANCH   5   6
ENDBRANCH   2   5
BRANCH   1  19
HETATM   19  C   UNL     1       4.862  27.261  52.350  1.00  0.00     0.040 A 
HETATM   20  C   UNL     1       5.022  26.018  51.697  1.00  0.00    -0.034 A 
HETATM   21  C   UNL     1       4.628  25.879  50.349  1.00  0.00     0.026 A 
HETATM   22  C   UNL     1       5.584  24.805  52.389  1.00  0.00     0.050 C 
HETATM   23  C   UNL     1       4.089  26.959  49.643  1.00  0.00     0.032 A 
HETATM   24  C   UNL     1       3.972  28.193  50.276  1.00  0.00     0.019 A 
HETATM   25  C   UNL     1       4.352  28.339  51.615  1.00  0.00     0.031 A 
BRANCH  23  26
HETATM   26  C   UNL     1       3.650  26.843  48.224  1.00  0.00     0.251 C 
HETATM   27  N   UNL     1       2.287  26.827  48.004  1.00  0.00    -0.357 N 
HETATM   28  H   UNL     1       1.665  27.066  48.764  1.00  0.00     0.162 HD
HETATM   29  O   UNL     1       4.480  26.805  47.323  1.00  0.00    -0.268 OA
BRANCH  27  30
HETATM   30  C   UNL     1       1.740  26.834  46.664  1.00  0.00     0.118 C 
HETATM   31  C   UNL     1       0.364  27.475  46.629  1.00  0.00     0.026 C 
ENDBRANCH  27  30
ENDBRANCH  23  26
ENDBRANCH   1  19
TORSDOF 7
ENDMDL
MODEL 7
REMARK VINA RESULT:      -8.7      1.429      2.172
REMARK  7 active torsions:
REMARK  status: ('A' for Active; 'I' for Inactive)
REMARK    1  A    between atoms: C_2  and  N_3 
REMARK       I    between atoms: N_3  and  C_4 
REMARK    2  A    between atoms: C_4  and  C_5 
REMARK    3  A    between atoms: C_9  and  N_10 
REMARK       I    between atoms: N_10  and  C_11 
REMARK    4  A    between atoms: C_11  and  C_12 
REMARK    5  A    between atoms: C_12  and  S_13 
REMARK    6  A    between atoms: S_13  and  C_14 
REMARK    7  A    between atoms: C_14  and  C_15 
ROOT
HETATM    1  N   UNL     1       7.625  30.714  60.064  1.00  0.00    -0.326 N 
HETATM    2  C   UNL     1       7.351  30.954  58.723  1.00  0.00     0.231 C 
HETATM    3  O   UNL     1       6.847  31.972  58.256  1.00  0.00    -0.272 OA
HETATM    4  H   UNL     1       8.187  29.889  60.267  1.00  0.00     0.169 HD
ENDROOT
BRANCH   2   5
HETATM    5  C   UNL     1       7.749  29.807  57.805  1.00  0.00     0.177 C 
BRANCH   5   6
HETATM    6  S   UNL     1       6.303  28.792  57.336  1.00  0.00    -0.147 SA
BRANCH   6   7
HETATM    7  C   UNL     1       6.380  28.961  55.512  1.00  0.00     0.113 C 
HETATM    8  C   UNL     1       5.056  29.519  54.995  1.00  0.00     0.029 C 
BRANCH   7   9
HETATM    9  C   UNL     1       6.721  27.638  54.896  1.00  0.00     0.118 A 
HETATM   10  N   UNL     1       7.167  27.440  53.668  1.00  0.00    -0.232 NA
HETATM   11  C   UNL     1       7.373  26.083  53.566  1.00  0.00     0.085 A 
HETATM   12  C   UNL     1       7.099  25.447  54.771  1.00  0.00     0.062 A 
HETATM   13  C   UNL     1       7.808  25.317  52.474  1.00  0.00     0.034 A 
HETATM   14  N   UNL     1       6.696  26.456  55.603  1.00  0.00    -0.342 N 
HETATM   15  C   UNL     1       7.248  24.073  54.966  1.00  0.00     0.032 A 
HETATM   16  H   UNL     1       6.445  26.358  56.576  1.00  0.00     0.167 HD
HETATM   17  C   UNL     1       7.685  23.325  53.867  1.00  0.00     0.002 A 
HETATM   18  C   UNL     1       7.958  23.934  52.639  1.00  0.00     0.002 A 
ENDBRANCH   7   9
ENDBRANCH   6   7
ENDBRANCH   5   6
ENDBRANCH   2   5
BRANCH   1  19
HETATM   19  C   UNL     1       7.297  31.544  61.168  1.00  0.00     0.040 A 
HETATM   20  C   UNL     1       8.321  31.953  62.052  1.00  0.00    -0.034 A 
HETATM   21  C   UNL     1       8.012  32.799  63.139  1.00  0.00     0.026 A 
HETATM   22  C   UNL     1       9.758  31.539  61.876  1.00  0.00     0.050 C 
HETATM   23  C   UNL     1       6.701  33.232  63.361  1.00  0.00     0.032 A 
HETATM   24  C   UNL     1       5.688  32.793  62.514  1.00  0.00     0.019 A 
HETATM   25  C   UNL     1       5.986  31.961  61.428  1.00  0.00     0.031 A 
BRANCH  23  26
HETATM   26  C   UNL     1       6.343  34.136  64.491  1.00  0.00     0.251 C 
HETATM   27  N   UNL     1       6.280  33.555  65.742  1.00  0.00    -0.357 N 
HETATM   28  H   UNL     1       6.640  32.619  65.867  1.00  0.00     0.162 HD
HETATM   29  O   UNL     1       6.159  35.331  64.291  1.00  0.00    -0.268 OA
BRANCH  27  30
HETATM   30  C   UNL     1       6.056  34.350  66.931  1.00  0.00     0.118 C 
HETATM   31  C   UNL     1       4.694  34.069  67.539  1.00  0.00     0.026 C 
ENDBRANCH  27  30
ENDBRANCH  23  26
ENDBRANCH   1  19
TORSDOF 7
ENDMDL
MODEL 8
REMARK VINA RESULT:      -8.6      2.145      3.267
REMARK  7 active torsions:
REMARK  status: ('A' for Active; 'I' for Inactive)
REMARK    1  A    between atoms: C_2  and  N_3 
REMARK       I    between atoms: N_3  and  C_4 
REMARK    2  A    between atoms: C_4  and  C_5 
REMARK    3  A    between atoms: C_9  and  N_10 
REMARK       I    between atoms: N_10  and  C_11 
REMARK    4  A    between atoms: C_11  and  C_12 
REMARK    5  A    between atoms: C_12  and  S_13 
REMARK    6  A    between atoms: S_13  and  C_14 
REMARK    7  A    between atoms: C_14  and  C_15 
ROOT
HETATM    1  N   UNL     1       7.280  30.482  57.680  1.00  0.00    -0.326 N 
HETATM    2  C   UNL     1       6.574  29.417  57.135  1.00  0.00     0.231 C 
HETATM    3  O   UNL     1       5.491  28.989  57.523  1.00  0.00    -0.272 OA
HETATM    4  H   UNL     1       8.083  30.810  57.146  1.00  0.00     0.169 HD
ENDROOT
BRANCH   2   5
HETATM    5  C   UNL     1       7.268  28.775  55.941  1.00  0.00     0.177 C 
BRANCH   5   6
HETATM    6  S   UNL     1       6.355  27.306  55.348  1.00  0.00    -0.147 SA
BRANCH   6   7
HETATM    7  C   UNL     1       7.042  26.034  56.476  1.00  0.00     0.113 C 
HETATM    8  C   UNL     1       8.329  26.555  57.111  1.00  0.00     0.029 C 
BRANCH   7   9
HETATM    9  C   UNL     1       7.254  24.754  55.724  1.00  0.00     0.118 A 
HETATM   10  N   UNL     1       7.423  24.634  54.419  1.00  0.00    -0.232 NA
HETATM   11  C   UNL     1       7.615  23.290  54.196  1.00  0.00     0.085 A 
HETATM   12  C   UNL     1       7.618  22.583  55.392  1.00  0.00     0.062 A 
HETATM   13  C   UNL     1       7.809  22.595  52.993  1.00  0.00     0.034 A 
HETATM   14  N   UNL     1       7.395  23.536  56.350  1.00  0.00    -0.342 N 
HETATM   15  C   UNL     1       7.820  21.204  55.470  1.00  0.00     0.032 A 
HETATM   16  H   UNL     1       7.365  23.379  57.347  1.00  0.00     0.167 HD
HETATM   17  C   UNL     1       8.014  20.528  54.260  1.00  0.00     0.002 A 
HETATM   18  C   UNL     1       8.006  21.209  53.040  1.00  0.00     0.002 A 
ENDBRANCH   7   9
ENDBRANCH   6   7
ENDBRANCH   5   6
ENDBRANCH   2   5
BRANCH   1  19
HETATM   19  C   UNL     1       6.946  31.228  58.841  1.00  0.00     0.040 A 
HETATM   20  C   UNL     1       7.858  31.271  59.920  1.00  0.00    -0.034 A 
HETATM   21  C   UNL     1       7.549  32.031  61.069  1.00  0.00     0.026 A 
HETATM   22  C   UNL     1       9.179  30.550  59.894  1.00  0.00     0.050 C 
HETATM   23  C   UNL     1       6.345  32.736  61.161  1.00  0.00     0.032 A 
HETATM   24  C   UNL     1       5.430  32.656  60.115  1.00  0.00     0.019 A 
HETATM   25  C   UNL     1       5.731  31.913  58.968  1.00  0.00     0.031 A 
BRANCH  23  26
HETATM   26  C   UNL     1       5.994  33.557  62.353  1.00  0.00     0.251 C 
HETATM   27  N   UNL     1       5.918  32.885  63.558  1.00  0.00    -0.357 N 
HETATM   28  H   UNL     1       6.265  31.938  63.614  1.00  0.00     0.162 HD
HETATM   29  O   UNL     1       5.827  34.766  62.243  1.00  0.00    -0.268 OA
BRANCH  27  30
HETATM   30  C   UNL     1       5.700  33.592  64.802  1.00  0.00     0.118 C 
HETATM   31  C   UNL     1       6.990  33.751  65.585  1.00  0.00     0.026 C 
ENDBRANCH  27  30
ENDBRANCH  23  26
ENDBRANCH   1  19
TORSDOF 7
ENDMDL
MODEL 9
REMARK VINA RESULT:      -8.5      1.803      2.082
REMARK  7 active torsions:
REMARK  status: ('A' for Active; 'I' for Inactive)
REMARK    1  A    between atoms: C_2  and  N_3 
REMARK       I    between atoms: N_3  and  C_4 
REMARK    2  A    between atoms: C_4  and  C_5 
REMARK    3  A    between atoms: C_9  and  N_10 
REMARK       I    between atoms: N_10  and  C_11 
REMARK    4  A    between atoms: C_11  and  C_12 
REMARK    5  A    between atoms: C_12  and  S_13 
REMARK    6  A    between atoms: S_13  and  C_14 
REMARK    7  A    between atoms: C_14  and  C_15 
ROOT
HETATM    1  N   UNL     1       7.780  30.798  60.183  1.00  0.00    -0.326 N 
HETATM    2  C   UNL     1       8.563  31.120  59.082  1.00  0.00     0.231 C 
HETATM    3  O   UNL     1       9.179  32.168  58.909  1.00  0.00    -0.272 OA
HETATM    4  H   UNL     1       7.466  29.831  60.245  1.00  0.00     0.169 HD
ENDROOT
BRANCH   2   5
HETATM    5  C   UNL     1       8.623  30.016  58.035  1.00  0.00     0.177 C 
BRANCH   5   6
HETATM    6  S   UNL     1       7.085  29.942  57.050  1.00  0.00    -0.147 SA
BRANCH   6   7
HETATM    7  C   UNL     1       6.849  28.125  56.973  1.00  0.00     0.113 C 
HETATM    8  C   UNL     1       8.113  27.425  57.466  1.00  0.00     0.029 C 
BRANCH   7   9
HETATM    9  C   UNL     1       6.482  27.723  55.576  1.00  0.00     0.118 A 
HETATM   10  N   UNL     1       6.114  26.516  55.183  1.00  0.00    -0.232 NA
HETATM   11  C   UNL     1       5.843  26.634  53.839  1.00  0.00     0.085 A 
HETATM   12  C   UNL     1       5.997  27.949  53.415  1.00  0.00     0.062 A 
HETATM   13  C   UNL     1       5.446  25.660  52.911  1.00  0.00     0.034 A 
HETATM   14  N   UNL     1       6.395  28.623  54.538  1.00  0.00    -0.342 N 
HETATM   15  C   UNL     1       5.761  28.366  52.104  1.00  0.00     0.032 A 
HETATM   16  H   UNL     1       6.570  29.615  54.603  1.00  0.00     0.167 HD
HETATM   17  C   UNL     1       5.364  27.382  51.193  1.00  0.00     0.002 A 
HETATM   18  C   UNL     1       5.211  26.050  51.585  1.00  0.00     0.002 A 
ENDBRANCH   7   9
ENDBRANCH   6   7
ENDBRANCH   5   6
ENDBRANCH   2   5
BRANCH   1  19
HETATM   19  C   UNL     1       7.456  31.639  61.280  1.00  0.00     0.040 A 
HETATM   20  C   UNL     1       6.273  32.410  61.234  1.00  0.00    -0.034 A 
HETATM   21  C   UNL     1       5.927  33.230  62.330  1.00  0.00     0.026 A 
HETATM   22  C   UNL     1       5.333  32.384  60.058  1.00  0.00     0.050 C 
HETATM   23  C   UNL     1       6.745  33.299  63.462  1.00  0.00     0.032 A 
HETATM   24  C   UNL     1       7.931  32.571  63.486  1.00  0.00     0.019 A 
HETATM   25  C   UNL     1       8.279  31.749  62.408  1.00  0.00     0.031 A 
BRANCH  23  26
HETATM   26  C   UNL     1       6.403  34.143  64.640  1.00  0.00     0.251 C 
HETATM   27  N   UNL     1       6.545  33.549  65.879  1.00  0.00    -0.357 N 
HETATM   28  H   UNL     1       7.027  32.664  65.946  1.00  0.00     0.162 HD
HETATM   29  O   UNL     1       6.055  35.308  64.485  1.00  0.00    -0.268 OA
BRANCH  27  30
HETATM   30  C   UNL     1       6.355  34.302  67.101  1.00  0.00     0.118 C 
HETATM   31  C   UNL     1       4.941  34.153  67.632  1.00  0.00     0.026 C 
ENDBRANCH  27  30
ENDBRANCH  23  26
ENDBRANCH   1  19
TORSDOF 7
ENDMDL
MODEL 10
REMARK VINA RESULT:      -8.4      3.003     10.735
REMARK  7 active torsions:
REMARK  status: ('A' for Active; 'I' for Inactive)
REMARK    1  A    between atoms: C_2  and  N_3 
REMARK       I    between atoms: N_3  and  C_4 
REMARK    2  A    between atoms: C_4  and  C_5 
REMARK    3  A    between atoms: C_9  and  N_10 
REMARK       I    between atoms: N_10  and  C_11 
REMARK    4  A    between atoms: C_11  and  C_12 
REMARK    5  A    between atoms: C_12  and  S_13 
REMARK    6  A    between atoms: S_13  and  C_14 
REMARK    7  A    between atoms: C_14  and  C_15 
ROOT
HETATM    1  N   UNL     1       6.860  27.911  56.667  1.00  0.00    -0.326 N 
HETATM    2  C   UNL     1       7.619  28.979  56.206  1.00  0.00     0.231 C 
HETATM    3  O   UNL     1       8.621  28.907  55.500  1.00  0.00    -0.272 OA
HETATM    4  H   UNL     1       5.972  28.146  57.109  1.00  0.00     0.169 HD
ENDROOT
BRANCH   2   5
HETATM    5  C   UNL     1       7.092  30.336  56.651  1.00  0.00     0.177 C 
BRANCH   5   6
HETATM    6  S   UNL     1       6.800  30.383  58.454  1.00  0.00    -0.147 SA
BRANCH   6   7
HETATM    7  C   UNL     1       8.038  31.645  58.940  1.00  0.00     0.113 C 
HETATM    8  C   UNL     1       9.440  31.045  58.852  1.00  0.00     0.029 C 
BRANCH   7   9
HETATM    9  C   UNL     1       7.723  32.160  60.312  1.00  0.00     0.118 A 
HETATM   10  N   UNL     1       8.409  31.915  61.415  1.00  0.00    -0.232 NA
HETATM   11  C   UNL     1       7.772  32.622  62.409  1.00  0.00     0.085 A 
HETATM   12  C   UNL     1       6.710  33.355  61.894  1.00  0.00     0.062 A 
HETATM   13  C   UNL     1       8.052  32.698  63.781  1.00  0.00     0.034 A 
HETATM   14  N   UNL     1       6.705  33.053  60.559  1.00  0.00    -0.342 N 
HETATM   15  C   UNL     1       5.903  34.188  62.671  1.00  0.00     0.032 A 
HETATM   16  H   UNL     1       6.078  33.436  59.866  1.00  0.00     0.167 HD
HETATM   17  C   UNL     1       6.198  34.253  64.037  1.00  0.00     0.002 A 
HETATM   18  C   UNL     1       7.252  33.519  64.587  1.00  0.00     0.002 A 
ENDBRANCH   7   9
ENDBRANCH   6   7
ENDBRANCH   5   6
ENDBRANCH   2   5
BRANCH   1  19
HETATM   19  C   UNL     1       7.135  26.528  56.500  1.00  0.00     0.040 A 
HETATM   20  C   UNL     1       6.459  25.807  55.490  1.00  0.00    -0.034 A 
HETATM   21  C   UNL     1       6.743  24.437  55.297  1.00  0.00     0.026 A 
HETATM   22  C   UNL     1       5.445  26.444  54.578  1.00  0.00     0.050 C 
HETATM   23  C   UNL     1       7.680  23.778  56.099  1.00  0.00     0.032 A 
HETATM   24  C   UNL     1       8.313  24.481  57.120  1.00  0.00     0.019 A 
HETATM   25  C   UNL     1       8.044  25.841  57.315  1.00  0.00     0.031 A 
BRANCH  23  26
HETATM   26  C   UNL     1       8.013  22.338  55.913  1.00  0.00     0.251 C 
HETATM   27  N   UNL     1       7.852  21.833  54.638  1.00  0.00    -0.357 N 
HETATM   28  H   UNL     1       7.695  22.474  53.873  1.00  0.00     0.162 HD
HETATM   29  O   UNL     1       8.441  21.677  56.853  1.00  0.00    -0.268 OA
BRANCH  27  30
HETATM   30  C   UNL     1       8.253  20.482  54.308  1.00  0.00     0.118 C 
HETATM   31  C   UNL     1       8.501  20.324  52.818  1.00  0.00     0.026 C 
ENDBRANCH  27  30
ENDBRANCH  23  26
ENDBRANCH   1  19
TORSDOF 7
ENDMDL
