MODEL 1
REMARK VINA RESULT:      -9.9      0.000      0.000
REMARK  9 active torsions:
REMARK  status: ('A' for Active; 'I' for Inactive)
REMARK    1  A    between atoms: C_5  and  C_6 
REMARK    2  A    between atoms: C_8  and  N_9 
REMARK       I    between atoms: N_9  and  C_10 
REMARK    3  A    between atoms: C_10  and  C_11 
REMARK    4  A    between atoms: C_11  and  N_12 
REMARK    5  A    between atoms: N_12  and  C_14 
REMARK    6  A    between atoms: C_14  and  C_15 
REMARK       I    between atoms: C_15  and  N_16 
REMARK    7  A    between atoms: N_16  and  C_17 
REMARK    8  A    between atoms: C_20  and  O_21 
REMARK    9  A    between atoms: O_21  and  C_22 
ROOT
HETATM    1  N   UNL     1       8.325  30.146  57.351  1.00  0.00    -0.058 N 
HETATM    2  H   UNL     1       8.508  31.133  57.137  1.00  0.00     0.280 HD
HETATM    3  C   UNL     1       9.314  29.391  56.489  1.00  0.00     0.270 C 
ENDROOT
BRANCH   1   4
HETATM    4  C   UNL     1       6.868  29.910  56.938  1.00  0.00     0.337 C 
BRANCH   4   5
HETATM    5  C   UNL     1       6.479  28.479  56.552  1.00  0.00     0.248 C 
HETATM    6  N   UNL     1       6.206  28.312  55.206  1.00  0.00    -0.326 N 
HETATM    7  H   UNL     1       6.063  29.130  54.629  1.00  0.00     0.169 HD
HETATM    8  O   UNL     1       6.422  27.621  57.428  1.00  0.00    -0.271 OA
BRANCH   6   9
HETATM    9  C   UNL     1       6.003  27.088  54.528  1.00  0.00     0.035 A 
HETATM   10  C   UNL     1       6.807  25.956  54.697  1.00  0.00     0.043 A 
HETATM   11  C   UNL     1       6.591  24.788  53.939  1.00  0.00    -0.005 A 
HETATM   12  C   UNL     1       5.528  24.772  53.025  1.00  0.00     0.014 A 
HETATM   13  C   UNL     1       4.716  25.893  52.857  1.00  0.00     0.003 A 
HETATM   14  C   UNL     1       4.961  27.048  53.596  1.00  0.00     0.029 A 
BRANCH  11  15
HETATM   15  C   UNL     1       7.489  23.642  54.112  1.00  0.00     0.074 A 
HETATM   16  C   UNL     1       8.441  23.522  55.106  1.00  0.00     0.084 A 
HETATM   17  S   UNL     1       9.275  22.030  54.961  1.00  0.00    -0.085 SA
HETATM   18  C   UNL     1       8.310  21.640  53.598  1.00  0.00     0.071 A 
HETATM   19  C   UNL     1       8.512  20.354  52.876  1.00  0.00     0.078 C 
HETATM   20  N   UNL     1       7.423  22.550  53.254  1.00  0.00    -0.245 NA
ENDBRANCH  11  15
ENDBRANCH   6   9
ENDBRANCH   4   5
ENDBRANCH   1   4
BRANCH   1  21
HETATM   21  C   UNL     1       8.583  30.001  58.851  1.00  0.00     0.337 C 
BRANCH  21  22
HETATM   22  C   UNL     1       8.343  31.263  59.687  1.00  0.00     0.248 C 
HETATM   23  N   UNL     1       7.598  31.049  60.836  1.00  0.00    -0.326 N 
HETATM   24  H   UNL     1       7.128  30.157  60.958  1.00  0.00     0.169 HD
HETATM   25  O   UNL     1       8.835  32.326  59.332  1.00  0.00    -0.271 OA
BRANCH  23  26
HETATM   26  C   UNL     1       7.267  32.021  61.812  1.00  0.00     0.034 A 
HETATM   27  C   UNL     1       6.244  32.956  61.671  1.00  0.00     0.032 A 
HETATM   28  C   UNL     1       5.971  33.869  62.697  1.00  0.00     0.039 A 
HETATM   29  C   UNL     1       6.708  33.863  63.881  1.00  0.00     0.078 A 
HETATM   30  C   UNL     1       7.749  32.947  64.016  1.00  0.00     0.039 A 
HETATM   31  C   UNL     1       8.026  32.034  62.989  1.00  0.00     0.032 A 
BRANCH  29  32
HETATM   32  O   UNL     1       6.313  34.792  64.799  1.00  0.00    -0.255 OA
BRANCH  32  33
HETATM   33  C   UNL     1       5.690  34.326  65.985  1.00  0.00     0.530 C 
HETATM   34  F   UNL     1       4.976  35.308  66.577  1.00  0.00    -0.144 F 
HETATM   35  F   UNL     1       4.879  33.280  65.719  1.00  0.00    -0.144 F 
HETATM   36  F   UNL     1       6.644  33.915  66.847  1.00  0.00    -0.144 F 
ENDBRANCH  32  33
ENDBRANCH  29  32
ENDBRANCH  23  26
ENDBRANCH  21  22
ENDBRANCH   1  21
TORSDOF 9
ENDMDL
MODEL 2
REMARK VINA RESULT:      -9.9      6.026     11.009
REMARK  9 active torsions:
REMARK  status: ('A' for Active; 'I' for Inactive)
REMARK    1  A    between atoms: C_5  and  C_6 
REMARK    2  A    between atoms: C_8  and  N_9 
REMARK       I    between atoms: N_9  and  C_10 
REMARK    3  A    between atoms: C_10  and  C_11 
REMARK    4  A    between atoms: C_11  and  N_12 
REMARK    5  A    between atoms: N_12  and  C_14 
REMARK    6  A    between atoms: C_14  and  C_15 
REMARK       I    between atoms: C_15  and  N_16 
REMARK    7  A    between atoms: N_16  and  C_17 
REMARK    8  A    between atoms: C_20  and  O_21 
REMARK    9  A    between atoms: O_21  and  C_22 
ROOT
HETATM    1  N   UNL     1       5.317  28.336  52.247  1.00  0.00    -0.058 N 
HETATM    2  H   UNL     1       6.304  28.270  52.522  1.00  0.00     0.280 HD
HETATM    3  C   UNL     1       5.269  29.536  51.326  1.00  0.00     0.270 C 
ENDROOT
BRANCH   1   4
HETATM    4  C   UNL     1       4.552  28.555  53.557  1.00  0.00     0.337 C 
BRANCH   4   5
HETATM    5  C   UNL     1       5.348  28.409  54.859  1.00  0.00     0.248 C 
HETATM    6  N   UNL     1       6.513  29.154  54.893  1.00  0.00    -0.326 N 
HETATM    7  H   UNL     1       6.871  29.546  54.033  1.00  0.00     0.169 HD
HETATM    8  O   UNL     1       4.924  27.662  55.735  1.00  0.00    -0.271 OA
BRANCH   6   9
HETATM    9  C   UNL     1       7.350  29.367  56.013  1.00  0.00     0.035 A 
HETATM   10  C   UNL     1       6.967  30.080  57.153  1.00  0.00     0.043 A 
HETATM   11  C   UNL     1       7.873  30.313  58.207  1.00  0.00    -0.005 A 
HETATM   12  C   UNL     1       9.169  29.789  58.101  1.00  0.00     0.014 A 
HETATM   13  C   UNL     1       9.557  29.069  56.971  1.00  0.00     0.003 A 
HETATM   14  C   UNL     1       8.655  28.870  55.929  1.00  0.00     0.029 A 
BRANCH  11  15
HETATM   15  C   UNL     1       7.445  31.109  59.360  1.00  0.00     0.074 A 
HETATM   16  C   UNL     1       6.332  31.929  59.392  1.00  0.00     0.084 A 
HETATM   17  S   UNL     1       6.181  32.676  60.928  1.00  0.00    -0.085 SA
HETATM   18  C   UNL     1       7.593  31.856  61.451  1.00  0.00     0.071 A 
HETATM   19  C   UNL     1       8.114  32.058  62.830  1.00  0.00     0.078 C 
HETATM   20  N   UNL     1       8.158  31.075  60.553  1.00  0.00    -0.245 NA
ENDBRANCH  11  15
ENDBRANCH   6   9
ENDBRANCH   4   5
ENDBRANCH   1   4
BRANCH   1  21
HETATM   21  C   UNL     1       5.001  27.014  51.548  1.00  0.00     0.337 C 
BRANCH  21  22
HETATM   22  C   UNL     1       5.433  25.750  52.300  1.00  0.00     0.248 C 
HETATM   23  N   UNL     1       6.755  25.762  52.717  1.00  0.00    -0.326 N 
HETATM   24  H   UNL     1       7.374  26.484  52.364  1.00  0.00     0.169 HD
HETATM   25  O   UNL     1       4.614  24.865  52.517  1.00  0.00    -0.271 OA
BRANCH  23  26
HETATM   26  C   UNL     1       7.404  24.753  53.470  1.00  0.00     0.034 A 
HETATM   27  C   UNL     1       7.648  24.832  54.840  1.00  0.00     0.032 A 
HETATM   28  C   UNL     1       8.278  23.776  55.510  1.00  0.00     0.039 A 
HETATM   29  C   UNL     1       8.672  22.624  54.829  1.00  0.00     0.078 A 
HETATM   30  C   UNL     1       8.453  22.551  53.455  1.00  0.00     0.039 A 
HETATM   31  C   UNL     1       7.825  23.608  52.782  1.00  0.00     0.032 A 
BRANCH  29  32
HETATM   32  O   UNL     1       9.250  21.671  55.616  1.00  0.00    -0.255 OA
BRANCH  32  33
HETATM   33  C   UNL     1       8.394  20.816  56.357  1.00  0.00     0.530 C 
HETATM   34  F   UNL     1       8.359  21.172  57.659  1.00  0.00    -0.144 F 
HETATM   35  F   UNL     1       7.142  20.840  55.852  1.00  0.00    -0.144 F 
HETATM   36  F   UNL     1       8.862  19.553  56.274  1.00  0.00    -0.144 F 
ENDBRANCH  32  33
ENDBRANCH  29  32
ENDBRANCH  23  26
ENDBRANCH  21  22
ENDBRANCH   1  21
TORSDOF 9
ENDMDL
MODEL 3
REMARK VINA RESULT:      -9.8      6.454     12.212
REMARK  9 active torsions:
REMARK  status: ('A' for Active; 'I' for Inactive)
REMARK    1  A    between atoms: C_5  and  C_6 
REMARK    2  A    between atoms: C_8  and  N_9 
REMARK       I    between atoms: N_9  and  C_10 
REMARK    3  A    between atoms: C_10  and  C_11 
REMARK    4  A    between atoms: C_11  and  N_12 
REMARK    5  A    between atoms: N_12  and  C_14 
REMARK    6  A    between atoms: C_14  and  C_15 
REMARK       I    between atoms: C_15  and  N_16 
REMARK    7  A    between atoms: N_16  and  C_17 
REMARK    8  A    between atoms: C_20  and  O_21 
REMARK    9  A    between atoms: O_21  and  C_22 
ROOT
HETATM    1  N   UNL     1       6.001  29.651  56.065  1.00  0.00    -0.058 N 
HETATM    2  H   UNL     1       5.796  30.645  55.908  1.00  0.00     0.280 HD
HETATM    3  C   UNL     1       5.087  29.261  57.206  1.00  0.00     0.270 C 
ENDROOT
BRANCH   1   4
HETATM    4  C   UNL     1       7.485  29.604  56.444  1.00  0.00     0.337 C 
BRANCH   4   5
HETATM    5  C   UNL     1       7.820  29.600  57.940  1.00  0.00     0.248 C 
HETATM    6  N   UNL     1       7.896  30.861  58.504  1.00  0.00    -0.326 N 
HETATM    7  H   UNL     1       7.950  31.668  57.898  1.00  0.00     0.169 HD
HETATM    8  O   UNL     1       8.006  28.527  58.505  1.00  0.00    -0.271 OA
BRANCH   6   9
HETATM    9  C   UNL     1       8.003  31.168  59.880  1.00  0.00     0.035 A 
HETATM   10  C   UNL     1       6.984  31.762  60.632  1.00  0.00     0.043 A 
HETATM   11  C   UNL     1       7.181  32.104  61.985  1.00  0.00    -0.005 A 
HETATM   12  C   UNL     1       8.418  31.809  62.576  1.00  0.00     0.014 A 
HETATM   13  C   UNL     1       9.436  31.208  61.835  1.00  0.00     0.003 A 
HETATM   14  C   UNL     1       9.232  30.901  60.492  1.00  0.00     0.029 A 
BRANCH  11  15
HETATM   15  C   UNL     1       6.104  32.771  62.721  1.00  0.00     0.074 A 
HETATM   16  C   UNL     1       4.951  33.282  62.155  1.00  0.00     0.084 A 
HETATM   17  S   UNL     1       3.946  33.974  63.360  1.00  0.00    -0.085 SA
HETATM   18  C   UNL     1       5.101  33.542  64.551  1.00  0.00     0.071 A 
HETATM   19  C   UNL     1       4.867  33.878  65.982  1.00  0.00     0.078 C 
HETATM   20  N   UNL     1       6.174  32.926  64.102  1.00  0.00    -0.245 NA
ENDBRANCH  11  15
ENDBRANCH   6   9
ENDBRANCH   4   5
ENDBRANCH   1   4
BRANCH   1  21
HETATM   21  C   UNL     1       5.667  28.954  54.746  1.00  0.00     0.337 C 
BRANCH  21  22
HETATM   22  C   UNL     1       6.627  27.834  54.330  1.00  0.00     0.248 C 
HETATM   23  N   UNL     1       6.226  26.568  54.723  1.00  0.00    -0.326 N 
HETATM   24  H   UNL     1       5.459  26.478  55.382  1.00  0.00     0.169 HD
HETATM   25  O   UNL     1       7.622  28.106  53.668  1.00  0.00    -0.271 OA
BRANCH  23  26
HETATM   26  C   UNL     1       6.893  25.352  54.435  1.00  0.00     0.034 A 
HETATM   27  C   UNL     1       6.892  24.735  53.186  1.00  0.00     0.032 A 
HETATM   28  C   UNL     1       7.598  23.542  52.983  1.00  0.00     0.039 A 
HETATM   29  C   UNL     1       8.317  22.946  54.019  1.00  0.00     0.078 A 
HETATM   30  C   UNL     1       8.299  23.545  55.277  1.00  0.00     0.039 A 
HETATM   31  C   UNL     1       7.591  24.738  55.482  1.00  0.00     0.032 A 
BRANCH  29  32
HETATM   32  O   UNL     1       8.973  21.803  53.668  1.00  0.00    -0.255 OA
BRANCH  32  33
HETATM   33  C   UNL     1       8.282  20.572  53.814  1.00  0.00     0.530 C 
HETATM   34  F   UNL     1       7.533  20.565  54.937  1.00  0.00    -0.144 F 
HETATM   35  F   UNL     1       7.491  20.340  52.745  1.00  0.00    -0.144 F 
HETATM   36  F   UNL     1       9.185  19.573  53.899  1.00  0.00    -0.144 F 
ENDBRANCH  32  33
ENDBRANCH  29  32
ENDBRANCH  23  26
ENDBRANCH  21  22
ENDBRANCH   1  21
TORSDOF 9
ENDMDL
MODEL 4
REMARK VINA RESULT:      -9.7      6.593     12.822
REMARK  9 active torsions:
REMARK  status: ('A' for Active; 'I' for Inactive)
REMARK    1  A    between atoms: C_5  and  C_6 
REMARK    2  A    between atoms: C_8  and  N_9 
REMARK       I    between atoms: N_9  and  C_10 
REMARK    3  A    between atoms: C_10  and  C_11 
REMARK    4  A    between atoms: C_11  and  N_12 
REMARK    5  A    between atoms: N_12  and  C_14 
REMARK    6  A    between atoms: C_14  and  C_15 
REMARK       I    between atoms: C_15  and  N_16 
REMARK    7  A    between atoms: N_16  and  C_17 
REMARK    8  A    between atoms: C_20  and  O_21 
REMARK    9  A    between atoms: O_21  and  C_22 
ROOT
HETATM    1  N   UNL     1       7.021  29.975  57.434  1.00  0.00    -0.058 N 
HETATM    2  H   UNL     1       7.474  30.138  56.528  1.00  0.00     0.280 HD
HETATM    3  C   UNL     1       5.979  31.068  57.528  1.00  0.00     0.270 C 
ENDROOT
BRANCH   1   4
HETATM    4  C   UNL     1       8.138  30.120  58.473  1.00  0.00     0.337 C 
BRANCH   4   5
HETATM    5  C   UNL     1       8.082  31.352  59.384  1.00  0.00     0.248 C 
HETATM    6  N   UNL     1       7.254  31.204  60.481  1.00  0.00    -0.326 N 
HETATM    7  H   UNL     1       6.598  30.435  60.502  1.00  0.00     0.169 HD
HETATM    8  O   UNL     1       8.734  32.347  59.080  1.00  0.00    -0.271 OA
BRANCH   6   9
HETATM    9  C   UNL     1       7.142  32.085  61.582  1.00  0.00     0.035 A 
HETATM   10  C   UNL     1       6.295  33.198  61.613  1.00  0.00     0.043 A 
HETATM   11  C   UNL     1       6.282  34.074  62.717  1.00  0.00    -0.005 A 
HETATM   12  C   UNL     1       7.120  33.791  63.805  1.00  0.00     0.014 A 
HETATM   13  C   UNL     1       7.961  32.678  63.785  1.00  0.00     0.003 A 
HETATM   14  C   UNL     1       7.980  31.838  62.675  1.00  0.00     0.029 A 
BRANCH  11  15
HETATM   15  C   UNL     1       5.416  35.255  62.686  1.00  0.00     0.074 A 
HETATM   16  C   UNL     1       4.036  35.232  62.761  1.00  0.00     0.084 A 
HETATM   17  S   UNL     1       3.405  36.826  62.698  1.00  0.00    -0.085 SA
HETATM   18  C   UNL     1       5.003  37.439  62.586  1.00  0.00     0.071 A 
HETATM   19  C   UNL     1       5.240  38.904  62.477  1.00  0.00     0.078 C 
HETATM   20  N   UNL     1       5.957  36.533  62.589  1.00  0.00    -0.245 NA
ENDBRANCH  11  15
ENDBRANCH   6   9
ENDBRANCH   4   5
ENDBRANCH   1   4
BRANCH   1  21
HETATM   21  C   UNL     1       6.427  28.568  57.343  1.00  0.00     0.337 C 
BRANCH  21  22
HETATM   22  C   UNL     1       7.190  27.587  56.446  1.00  0.00     0.248 C 
HETATM   23  N   UNL     1       6.959  26.253  56.740  1.00  0.00    -0.326 N 
HETATM   24  H   UNL     1       6.470  26.016  57.597  1.00  0.00     0.169 HD
HETATM   25  O   UNL     1       7.890  28.017  55.538  1.00  0.00    -0.271 OA
BRANCH  23  26
HETATM   26  C   UNL     1       7.491  25.139  56.045  1.00  0.00     0.034 A 
HETATM   27  C   UNL     1       8.612  24.421  56.457  1.00  0.00     0.032 A 
HETATM   28  C   UNL     1       9.057  23.316  55.721  1.00  0.00     0.039 A 
HETATM   29  C   UNL     1       8.393  22.907  54.564  1.00  0.00     0.078 A 
HETATM   30  C   UNL     1       7.288  23.637  54.133  1.00  0.00     0.039 A 
HETATM   31  C   UNL     1       6.842  24.745  54.869  1.00  0.00     0.032 A 
BRANCH  29  32
HETATM   32  O   UNL     1       8.926  21.803  53.966  1.00  0.00    -0.255 OA
BRANCH  32  33
HETATM   33  C   UNL     1       8.189  20.592  54.035  1.00  0.00     0.530 C 
HETATM   34  F   UNL     1       7.403  20.563  55.133  1.00  0.00    -0.144 F 
HETATM   35  F   UNL     1       7.426  20.435  52.932  1.00  0.00    -0.144 F 
HETATM   36  F   UNL     1       9.055  19.559  54.104  1.00  0.00    -0.144 F 
ENDBRANCH  32  33
ENDBRANCH  29  32
ENDBRANCH  23  26
ENDBRANCH  21  22
ENDBRANCH   1  21
TORSDOF 9
ENDMDL
MODEL 5
REMARK VINA RESULT:      -9.6      6.547     12.806
REMARK  9 active torsions:
REMARK  status: ('A' for Active; 'I' for Inactive)
REMARK    1  A    between atoms: C_5  and  C_6 
REMARK    2  A    between atoms: C_8  and  N_9 
REMARK       I    between atoms: N_9  and  C_10 
REMARK    3  A    between atoms: C_10  and  C_11 
REMARK    4  A    between atoms: C_11  and  N_12 
REMARK    5  A    between atoms: N_12  and  C_14 
REMARK    6  A    between atoms: C_14  and  C_15 
REMARK       I    between atoms: C_15  and  N_16 
REMARK    7  A    between atoms: N_16  and  C_17 
REMARK    8  A    between atoms: C_20  and  O_21 
REMARK    9  A    between atoms: O_21  and  C_22 
ROOT
HETATM    1  N   UNL     1       6.384  29.091  57.822  1.00  0.00    -0.058 N 
HETATM    2  H   UNL     1       5.980  28.879  58.742  1.00  0.00     0.280 HD
HETATM    3  C   UNL     1       7.791  28.541  57.900  1.00  0.00     0.270 C 
ENDROOT
BRANCH   1   4
HETATM    4  C   UNL     1       6.343  30.619  57.709  1.00  0.00     0.337 C 
BRANCH   4   5
HETATM    5  C   UNL     1       7.011  31.416  58.835  1.00  0.00     0.248 C 
HETATM    6  N   UNL     1       6.246  31.520  59.983  1.00  0.00    -0.326 N 
HETATM    7  H   UNL     1       5.265  31.280  59.943  1.00  0.00     0.169 HD
HETATM    8  O   UNL     1       8.122  31.900  58.643  1.00  0.00    -0.271 OA
BRANCH   6   9
HETATM    9  C   UNL     1       6.663  32.028  61.235  1.00  0.00     0.035 A 
HETATM   10  C   UNL     1       5.984  33.026  61.942  1.00  0.00     0.043 A 
HETATM   11  C   UNL     1       6.490  33.535  63.154  1.00  0.00    -0.005 A 
HETATM   12  C   UNL     1       7.684  32.998  63.657  1.00  0.00     0.014 A 
HETATM   13  C   UNL     1       8.363  31.997  62.963  1.00  0.00     0.003 A 
HETATM   14  C   UNL     1       7.860  31.524  61.753  1.00  0.00     0.029 A 
BRANCH  11  15
HETATM   15  C   UNL     1       5.773  34.616  63.835  1.00  0.00     0.074 A 
HETATM   16  C   UNL     1       5.849  35.955  63.501  1.00  0.00     0.084 A 
HETATM   17  S   UNL     1       4.852  36.890  64.537  1.00  0.00    -0.085 SA
HETATM   18  C   UNL     1       4.379  35.457  65.352  1.00  0.00     0.071 A 
HETATM   19  C   UNL     1       3.430  35.520  66.496  1.00  0.00     0.078 C 
HETATM   20  N   UNL     1       4.920  34.345  64.900  1.00  0.00    -0.245 NA
ENDBRANCH  11  15
ENDBRANCH   6   9
ENDBRANCH   4   5
ENDBRANCH   1   4
BRANCH   1  21
HETATM   21  C   UNL     1       5.496  28.363  56.813  1.00  0.00     0.337 C 
BRANCH  21  22
HETATM   22  C   UNL     1       5.849  26.892  56.563  1.00  0.00     0.248 C 
HETATM   23  N   UNL     1       6.724  26.690  55.508  1.00  0.00    -0.326 N 
HETATM   24  H   UNL     1       6.925  27.464  54.882  1.00  0.00     0.169 HD
HETATM   25  O   UNL     1       5.396  26.028  57.303  1.00  0.00    -0.271 OA
BRANCH  23  26
HETATM   26  C   UNL     1       7.254  25.446  55.087  1.00  0.00     0.034 A 
HETATM   27  C   UNL     1       6.983  24.855  53.854  1.00  0.00     0.032 A 
HETATM   28  C   UNL     1       7.569  23.630  53.510  1.00  0.00     0.039 A 
HETATM   29  C   UNL     1       8.436  22.976  54.385  1.00  0.00     0.078 A 
HETATM   30  C   UNL     1       8.689  23.549  55.629  1.00  0.00     0.039 A 
HETATM   31  C   UNL     1       8.101  24.774  55.976  1.00  0.00     0.032 A 
BRANCH  29  32
HETATM   32  O   UNL     1       8.948  21.806  53.906  1.00  0.00    -0.255 OA
BRANCH  32  33
HETATM   33  C   UNL     1       8.206  20.618  54.130  1.00  0.00     0.530 C 
HETATM   34  F   UNL     1       7.403  20.741  55.208  1.00  0.00    -0.144 F 
HETATM   35  F   UNL     1       7.459  20.311  53.047  1.00  0.00    -0.144 F 
HETATM   36  F   UNL     1       9.066  19.602  54.354  1.00  0.00    -0.144 F 
ENDBRANCH  32  33
ENDBRANCH  29  32
ENDBRANCH  23  26
ENDBRANCH  21  22
ENDBRANCH   1  21
TORSDOF 9
ENDMDL
MODEL 6
REMARK VINA RESULT:      -9.5      1.941      2.271
REMARK  9 active torsions:
REMARK  status: ('A' for Active; 'I' for Inactive)
REMARK    1  A    between atoms: C_5  and  C_6 
REMARK    2  A    between atoms: C_8  and  N_9 
REMARK       I    between atoms: N_9  and  C_10 
REMARK    3  A    between atoms: C_10  and  C_11 
REMARK    4  A    between atoms: C_11  and  N_12 
REMARK    5  A    between atoms: N_12  and  C_14 
REMARK    6  A    between atoms: C_14  and  C_15 
REMARK       I    between atoms: C_15  and  N_16 
REMARK    7  A    between atoms: N_16  and  C_17 
REMARK    8  A    between atoms: C_20  and  O_21 
REMARK    9  A    between atoms: O_21  and  C_22 
ROOT
HETATM    1  N   UNL     1       9.105  30.940  58.418  1.00  0.00    -0.058 N 
HETATM    2  H   UNL     1       8.637  31.552  57.740  1.00  0.00     0.280 HD
HETATM    3  C   UNL     1      10.075  31.855  59.134  1.00  0.00     0.270 C 
ENDROOT
BRANCH   1   4
HETATM    4  C   UNL     1       9.805  29.869  57.574  1.00  0.00     0.337 C 
BRANCH   4   5
HETATM    5  C   UNL     1       8.908  28.950  56.737  1.00  0.00     0.248 C 
HETATM    6  N   UNL     1       8.551  27.777  57.377  1.00  0.00    -0.326 N 
HETATM    7  H   UNL     1       9.049  27.501  58.212  1.00  0.00     0.169 HD
HETATM    8  O   UNL     1       8.598  29.295  55.601  1.00  0.00    -0.271 OA
BRANCH   6   9
HETATM    9  C   UNL     1       7.596  26.830  56.939  1.00  0.00     0.035 A 
HETATM   10  C   UNL     1       7.919  25.635  56.288  1.00  0.00     0.043 A 
HETATM   11  C   UNL     1       6.914  24.766  55.817  1.00  0.00    -0.005 A 
HETATM   12  C   UNL     1       5.573  25.112  56.040  1.00  0.00     0.014 A 
HETATM   13  C   UNL     1       5.244  26.298  56.696  1.00  0.00     0.003 A 
HETATM   14  C   UNL     1       6.250  27.157  57.132  1.00  0.00     0.029 A 
BRANCH  11  15
HETATM   15  C   UNL     1       7.296  23.550  55.095  1.00  0.00     0.074 A 
HETATM   16  C   UNL     1       7.312  23.413  53.719  1.00  0.00     0.084 A 
HETATM   17  S   UNL     1       7.826  21.837  53.279  1.00  0.00    -0.085 SA
HETATM   18  C   UNL     1       8.001  21.446  54.940  1.00  0.00     0.071 A 
HETATM   19  C   UNL     1       8.454  20.088  55.348  1.00  0.00     0.078 C 
HETATM   20  N   UNL     1       7.699  22.410  55.783  1.00  0.00    -0.245 NA
ENDBRANCH  11  15
ENDBRANCH   6   9
ENDBRANCH   4   5
ENDBRANCH   1   4
BRANCH   1  21
HETATM   21  C   UNL     1       7.991  30.403  59.317  1.00  0.00     0.337 C 
BRANCH  21  22
HETATM   22  C   UNL     1       7.326  31.436  60.234  1.00  0.00     0.248 C 
HETATM   23  N   UNL     1       7.398  31.128  61.582  1.00  0.00    -0.326 N 
HETATM   24  H   UNL     1       7.708  30.201  61.858  1.00  0.00     0.169 HD
HETATM   25  O   UNL     1       6.834  32.447  59.747  1.00  0.00    -0.271 OA
BRANCH  23  26
HETATM   26  C   UNL     1       6.914  31.923  62.649  1.00  0.00     0.034 A 
HETATM   27  C   UNL     1       5.566  32.064  62.972  1.00  0.00     0.032 A 
HETATM   28  C   UNL     1       5.175  32.855  64.060  1.00  0.00     0.039 A 
HETATM   29  C   UNL     1       6.120  33.516  64.846  1.00  0.00     0.078 A 
HETATM   30  C   UNL     1       7.467  33.399  64.511  1.00  0.00     0.039 A 
HETATM   31  C   UNL     1       7.860  32.610  63.421  1.00  0.00     0.032 A 
BRANCH  29  32
HETATM   32  O   UNL     1       5.595  34.228  65.884  1.00  0.00    -0.255 OA
BRANCH  32  33
HETATM   33  C   UNL     1       4.893  35.423  65.578  1.00  0.00     0.530 C 
HETATM   34  F   UNL     1       5.436  36.047  64.511  1.00  0.00    -0.144 F 
HETATM   35  F   UNL     1       3.592  35.161  65.331  1.00  0.00    -0.144 F 
HETATM   36  F   UNL     1       4.965  36.254  66.639  1.00  0.00    -0.144 F 
ENDBRANCH  32  33
ENDBRANCH  29  32
ENDBRANCH  23  26
ENDBRANCH  21  22
ENDBRANCH   1  21
TORSDOF 9
ENDMDL
MODEL 7
REMARK VINA RESULT:      -9.1      6.396     12.306
REMARK  9 active torsions:
REMARK  status: ('A' for Active; 'I' for Inactive)
REMARK    1  A    between atoms: C_5  and  C_6 
REMARK    2  A    between atoms: C_8  and  N_9 
REMARK       I    between atoms: N_9  and  C_10 
REMARK    3  A    between atoms: C_10  and  C_11 
REMARK    4  A    between atoms: C_11  and  N_12 
REMARK    5  A    between atoms: N_12  and  C_14 
REMARK    6  A    between atoms: C_14  and  C_15 
REMARK       I    between atoms: C_15  and  N_16 
REMARK    7  A    between atoms: N_16  and  C_17 
REMARK    8  A    between atoms: C_20  and  O_21 
REMARK    9  A    between atoms: O_21  and  C_22 
ROOT
HETATM    1  N   UNL     1       9.074  30.155  58.690  1.00  0.00    -0.058 N 
HETATM    2  H   UNL     1       9.319  29.165  58.578  1.00  0.00     0.280 HD
HETATM    3  C   UNL     1      10.042  30.881  57.780  1.00  0.00     0.270 C 
ENDROOT
BRANCH   1   4
HETATM    4  C   UNL     1       9.305  30.458  60.174  1.00  0.00     0.337 C 
BRANCH   4   5
HETATM    5  C   UNL     1       8.737  31.778  60.710  1.00  0.00     0.248 C 
HETATM    6  N   UNL     1       7.841  31.623  61.753  1.00  0.00    -0.326 N 
HETATM    7  H   UNL     1       7.460  30.707  61.942  1.00  0.00     0.169 HD
HETATM    8  O   UNL     1       9.087  32.832  60.187  1.00  0.00    -0.271 OA
BRANCH   6   9
HETATM    9  C   UNL     1       7.301  32.648  62.563  1.00  0.00     0.035 A 
HETATM   10  C   UNL     1       6.382  33.602  62.113  1.00  0.00     0.043 A 
HETATM   11  C   UNL     1       5.934  34.639  62.955  1.00  0.00    -0.005 A 
HETATM   12  C   UNL     1       6.410  34.681  64.274  1.00  0.00     0.014 A 
HETATM   13  C   UNL     1       7.320  33.729  64.733  1.00  0.00     0.003 A 
HETATM   14  C   UNL     1       7.771  32.726  63.878  1.00  0.00     0.029 A 
BRANCH  11  15
HETATM   15  C   UNL     1       5.009  35.645  62.427  1.00  0.00     0.074 A 
HETATM   16  C   UNL     1       4.753  36.873  63.008  1.00  0.00     0.084 A 
HETATM   17  S   UNL     1       3.618  37.755  62.073  1.00  0.00    -0.085 SA
HETATM   18  C   UNL     1       3.551  36.455  60.955  1.00  0.00     0.071 A 
HETATM   19  C   UNL     1       2.663  36.534  59.764  1.00  0.00     0.078 C 
HETATM   20  N   UNL     1       4.312  35.421  61.244  1.00  0.00    -0.245 NA
ENDBRANCH  11  15
ENDBRANCH   6   9
ENDBRANCH   4   5
ENDBRANCH   1   4
BRANCH   1  21
HETATM   21  C   UNL     1       7.615  30.266  58.246  1.00  0.00     0.337 C 
BRANCH  21  22
HETATM   22  C   UNL     1       7.032  29.016  57.576  1.00  0.00     0.248 C 
HETATM   23  N   UNL     1       7.986  28.125  57.112  1.00  0.00    -0.326 N 
HETATM   24  H   UNL     1       8.958  28.417  57.080  1.00  0.00     0.169 HD
HETATM   25  O   UNL     1       5.818  28.864  57.532  1.00  0.00    -0.271 OA
BRANCH  23  26
HETATM   26  C   UNL     1       7.734  26.873  56.498  1.00  0.00     0.034 A 
HETATM   27  C   UNL     1       7.784  25.650  57.163  1.00  0.00     0.032 A 
HETATM   28  C   UNL     1       7.498  24.460  56.483  1.00  0.00     0.039 A 
HETATM   29  C   UNL     1       7.154  24.468  55.131  1.00  0.00     0.078 A 
HETATM   30  C   UNL     1       7.128  25.686  54.455  1.00  0.00     0.039 A 
HETATM   31  C   UNL     1       7.416  26.878  55.134  1.00  0.00     0.032 A 
BRANCH  29  32
HETATM   32  O   UNL     1       6.879  23.238  54.609  1.00  0.00    -0.255 OA
BRANCH  32  33
HETATM   33  C   UNL     1       7.814  22.682  53.697  1.00  0.00     0.530 C 
HETATM   34  F   UNL     1       7.593  21.362  53.519  1.00  0.00    -0.144 F 
HETATM   35  F   UNL     1       7.751  23.313  52.505  1.00  0.00    -0.144 F 
HETATM   36  F   UNL     1       9.057  22.842  54.197  1.00  0.00    -0.144 F 
ENDBRANCH  32  33
ENDBRANCH  29  32
ENDBRANCH  23  26
ENDBRANCH  21  22
ENDBRANCH   1  21
TORSDOF 9
ENDMDL
MODEL 8
REMARK VINA RESULT:      -9.0      6.558     12.003
REMARK  9 active torsions:
REMARK  status: ('A' for Active; 'I' for Inactive)
REMARK    1  A    between atoms: C_5  and  C_6 
REMARK    2  A    between atoms: C_8  and  N_9 
REMARK       I    between atoms: N_9  and  C_10 
REMARK    3  A    between atoms: C_10  and  C_11 
REMARK    4  A    between atoms: C_11  and  N_12 
REMARK    5  A    between atoms: N_12  and  C_14 
REMARK    6  A    between atoms: C_14  and  C_15 
REMARK       I    between atoms: C_15  and  N_16 
REMARK    7  A    between atoms: N_16  and  C_17 
REMARK    8  A    between atoms: C_20  and  O_21 
REMARK    9  A    between atoms: O_21  and  C_22 
ROOT
HETATM    1  N   UNL     1       4.858  29.977  54.900  1.00  0.00    -0.058 N 
HETATM    2  H   UNL     1       5.872  30.117  54.969  1.00  0.00     0.280 HD
HETATM    3  C   UNL     1       4.555  30.184  53.432  1.00  0.00     0.270 C 
ENDROOT
BRANCH   1   4
HETATM    4  C   UNL     1       4.243  31.056  55.797  1.00  0.00     0.337 C 
BRANCH   4   5
HETATM    5  C   UNL     1       5.186  31.770  56.772  1.00  0.00     0.248 C 
HETATM    6  N   UNL     1       5.742  30.939  57.728  1.00  0.00    -0.326 N 
HETATM    7  H   UNL     1       5.349  30.018  57.867  1.00  0.00     0.169 HD
HETATM    8  O   UNL     1       5.361  32.978  56.653  1.00  0.00    -0.271 OA
BRANCH   6   9
HETATM    9  C   UNL     1       6.777  31.264  58.635  1.00  0.00     0.035 A 
HETATM   10  C   UNL     1       6.564  31.821  59.900  1.00  0.00     0.043 A 
HETATM   11  C   UNL     1       7.645  32.185  60.728  1.00  0.00    -0.005 A 
HETATM   12  C   UNL     1       8.948  31.951  60.268  1.00  0.00     0.014 A 
HETATM   13  C   UNL     1       9.169  31.388  59.011  1.00  0.00     0.003 A 
HETATM   14  C   UNL     1       8.089  31.059  58.195  1.00  0.00     0.029 A 
BRANCH  11  15
HETATM   15  C   UNL     1       7.376  32.812  62.025  1.00  0.00     0.074 A 
HETATM   16  C   UNL     1       7.994  32.474  63.215  1.00  0.00     0.084 A 
HETATM   17  S   UNL     1       7.403  33.450  64.496  1.00  0.00    -0.085 SA
HETATM   18  C   UNL     1       6.376  34.260  63.387  1.00  0.00     0.071 A 
HETATM   19  C   UNL     1       5.470  35.344  63.854  1.00  0.00     0.078 C 
HETATM   20  N   UNL     1       6.451  33.844  62.140  1.00  0.00    -0.245 NA
ENDBRANCH  11  15
ENDBRANCH   6   9
ENDBRANCH   4   5
ENDBRANCH   1   4
BRANCH   1  21
HETATM   21  C   UNL     1       4.613  28.546  55.381  1.00  0.00     0.337 C 
BRANCH  21  22
HETATM   22  C   UNL     1       5.771  27.566  55.155  1.00  0.00     0.248 C 
HETATM   23  N   UNL     1       5.370  26.271  54.869  1.00  0.00    -0.326 N 
HETATM   24  H   UNL     1       4.395  26.019  54.998  1.00  0.00     0.169 HD
HETATM   25  O   UNL     1       6.924  27.975  55.194  1.00  0.00    -0.271 OA
BRANCH  23  26
HETATM   26  C   UNL     1       6.221  25.179  54.571  1.00  0.00     0.034 A 
HETATM   27  C   UNL     1       6.680  24.870  53.292  1.00  0.00     0.032 A 
HETATM   28  C   UNL     1       7.539  23.781  53.091  1.00  0.00     0.039 A 
HETATM   29  C   UNL     1       7.955  22.985  54.158  1.00  0.00     0.078 A 
HETATM   30  C   UNL     1       7.477  23.274  55.434  1.00  0.00     0.039 A 
HETATM   31  C   UNL     1       6.616  24.362  55.638  1.00  0.00     0.032 A 
BRANCH  29  32
HETATM   32  O   UNL     1       8.808  21.978  53.814  1.00  0.00    -0.255 OA
BRANCH  32  33
HETATM   33  C   UNL     1       8.258  20.686  53.613  1.00  0.00     0.530 C 
HETATM   34  F   UNL     1       9.175  19.843  53.091  1.00  0.00    -0.144 F 
HETATM   35  F   UNL     1       7.792  20.179  54.775  1.00  0.00    -0.144 F 
HETATM   36  F   UNL     1       7.227  20.780  52.747  1.00  0.00    -0.144 F 
ENDBRANCH  32  33
ENDBRANCH  29  32
ENDBRANCH  23  26
ENDBRANCH  21  22
ENDBRANCH   1  21
TORSDOF 9
ENDMDL
MODEL 9
REMARK VINA RESULT:      -8.9      6.677     12.360
REMARK  9 active torsions:
REMARK  status: ('A' for Active; 'I' for Inactive)
REMARK    1  A    between atoms: C_5  and  C_6 
REMARK    2  A    between atoms: C_8  and  N_9 
REMARK       I    between atoms: N_9  and  C_10 
REMARK    3  A    between atoms: C_10  and  C_11 
REMARK    4  A    between atoms: C_11  and  N_12 
REMARK    5  A    between atoms: N_12  and  C_14 
REMARK    6  A    between atoms: C_14  and  C_15 
REMARK       I    between atoms: C_15  and  N_16 
REMARK    7  A    between atoms: N_16  and  C_17 
REMARK    8  A    between atoms: C_20  and  O_21 
REMARK    9  A    between atoms: O_21  and  C_22 
ROOT
HETATM    1  N   UNL     1       7.551  29.459  57.358  1.00  0.00    -0.058 N 
HETATM    2  H   UNL     1       8.128  30.127  57.883  1.00  0.00     0.280 HD
HETATM    3  C   UNL     1       8.188  29.418  55.986  1.00  0.00     0.270 C 
ENDROOT
BRANCH   1   4
HETATM    4  C   UNL     1       6.144  30.068  57.348  1.00  0.00     0.337 C 
BRANCH   4   5
HETATM    5  C   UNL     1       5.922  31.317  58.209  1.00  0.00     0.248 C 
HETATM    6  N   UNL     1       4.698  31.347  58.852  1.00  0.00    -0.326 N 
HETATM    7  H   UNL     1       3.974  30.704  58.562  1.00  0.00     0.169 HD
HETATM    8  O   UNL     1       6.800  32.174  58.251  1.00  0.00    -0.271 OA
BRANCH   6   9
HETATM    9  C   UNL     1       4.286  32.265  59.846  1.00  0.00     0.035 A 
HETATM   10  C   UNL     1       4.941  32.442  61.069  1.00  0.00     0.043 A 
HETATM   11  C   UNL     1       4.438  33.326  62.045  1.00  0.00    -0.005 A 
HETATM   12  C   UNL     1       3.275  34.052  61.752  1.00  0.00     0.014 A 
HETATM   13  C   UNL     1       2.621  33.888  60.531  1.00  0.00     0.003 A 
HETATM   14  C   UNL     1       3.118  32.990  59.590  1.00  0.00     0.029 A 
BRANCH  11  15
HETATM   15  C   UNL     1       5.128  33.443  63.332  1.00  0.00     0.074 A 
HETATM   16  C   UNL     1       6.497  33.368  63.511  1.00  0.00     0.084 A 
HETATM   17  S   UNL     1       6.897  33.561  65.168  1.00  0.00    -0.085 SA
HETATM   18  C   UNL     1       5.231  33.741  65.534  1.00  0.00     0.071 A 
HETATM   19  C   UNL     1       4.790  33.955  66.939  1.00  0.00     0.078 C 
HETATM   20  N   UNL     1       4.414  33.662  64.505  1.00  0.00    -0.245 NA
ENDBRANCH  11  15
ENDBRANCH   6   9
ENDBRANCH   4   5
ENDBRANCH   1   4
BRANCH   1  21
HETATM   21  C   UNL     1       7.658  28.140  58.124  1.00  0.00     0.337 C 
BRANCH  21  22
HETATM   22  C   UNL     1       7.204  26.893  57.357  1.00  0.00     0.248 C 
HETATM   23  N   UNL     1       8.229  26.013  57.048  1.00  0.00    -0.326 N 
HETATM   24  H   UNL     1       9.190  26.313  57.179  1.00  0.00     0.169 HD
HETATM   25  O   UNL     1       6.015  26.734  57.112  1.00  0.00    -0.271 OA
BRANCH  23  26
HETATM   26  C   UNL     1       8.091  24.766  56.390  1.00  0.00     0.034 A 
HETATM   27  C   UNL     1       8.368  23.535  56.980  1.00  0.00     0.032 A 
HETATM   28  C   UNL     1       8.183  22.346  56.262  1.00  0.00     0.039 A 
HETATM   29  C   UNL     1       7.717  22.365  54.947  1.00  0.00     0.078 A 
HETATM   30  C   UNL     1       7.464  23.595  54.344  1.00  0.00     0.039 A 
HETATM   31  C   UNL     1       7.651  24.786  55.061  1.00  0.00     0.032 A 
BRANCH  29  32
HETATM   32  O   UNL     1       7.563  21.133  54.383  1.00  0.00    -0.255 OA
BRANCH  32  33
HETATM   33  C   UNL     1       8.635  20.621  53.608  1.00  0.00     0.530 C 
HETATM   34  F   UNL     1       9.582  21.562  53.406  1.00  0.00    -0.144 F 
HETATM   35  F   UNL     1       9.190  19.548  54.211  1.00  0.00    -0.144 F 
HETATM   36  F   UNL     1       8.158  20.233  52.406  1.00  0.00    -0.144 F 
ENDBRANCH  32  33
ENDBRANCH  29  32
ENDBRANCH  23  26
ENDBRANCH  21  22
ENDBRANCH   1  21
TORSDOF 9
ENDMDL
MODEL 10
REMARK VINA RESULT:      -8.6      6.449     12.264
REMARK  9 active torsions:
REMARK  status: ('A' for Active; 'I' for Inactive)
REMARK    1  A    between atoms: C_5  and  C_6 
REMARK    2  A    between atoms: C_8  and  N_9 
REMARK       I    between atoms: N_9  and  C_10 
REMARK    3  A    between atoms: C_10  and  C_11 
REMARK    4  A    between atoms: C_11  and  N_12 
REMARK    5  A    between atoms: N_12  and  C_14 
REMARK    6  A    between atoms: C_14  and  C_15 
REMARK       I    between atoms: C_15  and  N_16 
REMARK    7  A    between atoms: N_16  and  C_17 
REMARK    8  A    between atoms: C_20  and  O_21 
REMARK    9  A    between atoms: O_21  and  C_22 
ROOT
HETATM    1  N   UNL     1       9.599  30.138  58.593  1.00  0.00    -0.058 N 
HETATM    2  H   UNL     1      10.249  29.343  58.605  1.00  0.00     0.280 HD
HETATM    3  C   UNL     1      10.302  31.177  57.746  1.00  0.00     0.270 C 
ENDROOT
BRANCH   1   4
HETATM    4  C   UNL     1       9.456  30.558  60.060  1.00  0.00     0.337 C 
BRANCH   4   5
HETATM    5  C   UNL     1       8.603  31.799  60.346  1.00  0.00     0.248 C 
HETATM    6  N   UNL     1       7.279  31.520  60.631  1.00  0.00    -0.326 N 
HETATM    7  H   UNL     1       6.915  30.599  60.426  1.00  0.00     0.169 HD
HETATM    8  O   UNL     1       9.127  32.907  60.287  1.00  0.00    -0.271 OA
BRANCH   6   9
HETATM    9  C   UNL     1       6.306  32.427  61.110  1.00  0.00     0.035 A 
HETATM   10  C   UNL     1       6.188  32.816  62.448  1.00  0.00     0.043 A 
HETATM   11  C   UNL     1       5.152  33.674  62.870  1.00  0.00    -0.005 A 
HETATM   12  C   UNL     1       4.251  34.156  61.910  1.00  0.00     0.014 A 
HETATM   13  C   UNL     1       4.367  33.779  60.572  1.00  0.00     0.003 A 
HETATM   14  C   UNL     1       5.382  32.911  60.178  1.00  0.00     0.029 A 
BRANCH  11  15
HETATM   15  C   UNL     1       5.035  34.015  64.291  1.00  0.00     0.074 A 
HETATM   16  C   UNL     1       6.035  33.854  65.231  1.00  0.00     0.084 A 
HETATM   17  S   UNL     1       5.498  34.380  66.773  1.00  0.00    -0.085 SA
HETATM   18  C   UNL     1       3.981  34.794  66.088  1.00  0.00     0.071 A 
HETATM   19  C   UNL     1       2.901  35.361  66.940  1.00  0.00     0.078 C 
HETATM   20  N   UNL     1       3.861  34.559  64.798  1.00  0.00    -0.245 NA
ENDBRANCH  11  15
ENDBRANCH   6   9
ENDBRANCH   4   5
ENDBRANCH   1   4
BRANCH   1  21
HETATM   21  C   UNL     1       8.313  29.602  57.964  1.00  0.00     0.337 C 
BRANCH  21  22
HETATM   22  C   UNL     1       8.469  28.330  57.123  1.00  0.00     0.248 C 
HETATM   23  N   UNL     1       7.709  27.260  57.567  1.00  0.00    -0.326 N 
HETATM   24  H   UNL     1       7.258  27.320  58.474  1.00  0.00     0.169 HD
HETATM   25  O   UNL     1       9.188  28.345  56.132  1.00  0.00    -0.271 OA
BRANCH  23  26
HETATM   26  C   UNL     1       7.622  25.985  56.956  1.00  0.00     0.034 A 
HETATM   27  C   UNL     1       6.610  25.603  56.078  1.00  0.00     0.032 A 
HETATM   28  C   UNL     1       6.614  24.326  55.502  1.00  0.00     0.039 A 
HETATM   29  C   UNL     1       7.628  23.411  55.788  1.00  0.00     0.078 A 
HETATM   30  C   UNL     1       8.628  23.778  56.685  1.00  0.00     0.039 A 
HETATM   31  C   UNL     1       8.624  25.055  57.265  1.00  0.00     0.032 A 
BRANCH  29  32
HETATM   32  O   UNL     1       7.514  22.218  55.136  1.00  0.00    -0.255 OA
BRANCH  32  33
HETATM   33  C   UNL     1       8.126  22.100  53.861  1.00  0.00     0.530 C 
HETATM   34  F   UNL     1       8.912  23.166  53.598  1.00  0.00    -0.144 F 
HETATM   35  F   UNL     1       8.863  20.971  53.789  1.00  0.00    -0.144 F 
HETATM   36  F   UNL     1       7.162  22.039  52.918  1.00  0.00    -0.144 F 
ENDBRANCH  32  33
ENDBRANCH  29  32
ENDBRANCH  23  26
ENDBRANCH  21  22
ENDBRANCH   1  21
TORSDOF 9
ENDMDL
