MODEL 1
REMARK VINA RESULT:      -8.1      0.000      0.000
REMARK  5 active torsions:
REMARK  status: ('A' for Active; 'I' for Inactive)
REMARK    1  A    between atoms: C_3  and  N_4 
REMARK       I    between atoms: N_4  and  C_5 
REMARK       I    between atoms: C_5  and  N_6 
REMARK    2  A    between atoms: N_6  and  C_7 
REMARK    3  A    between atoms: C_8  and  O_9 
REMARK    4  A    between atoms: O_9  and  C_10 
REMARK    5  A    between atoms: C_10  and  C_11 
ROOT
HETATM    1  N   UNL     1       6.656  31.248  61.447  1.00  0.00    -0.307 N 
HETATM    2  C   UNL     1       7.288  31.508  60.244  1.00  0.00     0.325 C 
HETATM    3  N   UNL     1       8.037  30.407  59.874  1.00  0.00    -0.306 N 
HETATM    4  O   UNL     1       7.191  32.544  59.604  1.00  0.00    -0.247 OA
HETATM    5  H   UNL     1       6.407  30.274  61.558  1.00  0.00     0.170 HD
HETATM    6  H   UNL     1       8.110  29.650  60.542  1.00  0.00     0.171 HD
ENDROOT
BRANCH   3   7
HETATM    7  C   UNL     1       8.897  30.246  58.768  1.00  0.00     0.069 A 
HETATM    8  C   UNL     1       8.571  29.205  57.872  1.00  0.00     0.095 A 
HETATM    9  C   UNL     1       9.380  28.957  56.761  1.00  0.00     0.039 A 
HETATM   10  C   UNL     1      10.516  29.738  56.544  1.00  0.00     0.003 A 
HETATM   11  C   UNL     1      10.840  30.767  57.427  1.00  0.00     0.002 A 
HETATM   12  C   UNL     1      10.032  31.024  58.538  1.00  0.00     0.032 A 
BRANCH   8  13
HETATM   13  O   UNL     1       7.419  28.515  58.172  1.00  0.00    -0.348 OA
BRANCH  13  14
HETATM   14  C   UNL     1       7.003  27.520  57.237  1.00  0.00     0.180 C 
BRANCH  14  15
HETATM   15  C   UNL     1       7.295  26.146  57.776  1.00  0.00     0.010 A 
HETATM   16  C   UNL     1       7.034  24.887  56.985  1.00  0.00     0.007 A 
HETATM   17  C   UNL     1       8.449  25.332  57.245  1.00  0.00     0.007 A 
ENDBRANCH  14  15
ENDBRANCH  13  14
ENDBRANCH   8  13
ENDBRANCH   3   7
BRANCH   1  18
HETATM   18  C   UNL     1       6.034  32.143  62.347  1.00  0.00     0.059 A 
HETATM   19  C   UNL     1       6.643  32.868  63.382  1.00  0.00    -0.032 A 
HETATM   20  C   UNL     1       8.103  32.822  63.730  1.00  0.00     0.050 C 
HETATM   21  C   UNL     1       5.830  33.693  64.182  1.00  0.00     0.028 A 
HETATM   22  C   UNL     1       4.461  33.731  63.970  1.00  0.00     0.117 A 
HETATM   23  N   UNL     1       3.840  33.015  63.019  1.00  0.00    -0.271 NA
HETATM   24  C   UNL     1       4.639  32.248  62.239  1.00  0.00     0.146 A 
ENDBRANCH   1  18
TORSDOF 5
ENDMDL
MODEL 2
REMARK VINA RESULT:      -7.9      4.524      7.639
REMARK  5 active torsions:
REMARK  status: ('A' for Active; 'I' for Inactive)
REMARK    1  A    between atoms: C_3  and  N_4 
REMARK       I    between atoms: N_4  and  C_5 
REMARK       I    between atoms: C_5  and  N_6 
REMARK    2  A    between atoms: N_6  and  C_7 
REMARK    3  A    between atoms: C_8  and  O_9 
REMARK    4  A    between atoms: O_9  and  C_10 
REMARK    5  A    between atoms: C_10  and  C_11 
ROOT
HETATM    1  N   UNL     1       8.253  26.618  56.760  1.00  0.00    -0.307 N 
HETATM    2  C   UNL     1       7.654  25.371  56.705  1.00  0.00     0.325 C 
HETATM    3  N   UNL     1       8.565  24.448  56.228  1.00  0.00    -0.306 N 
HETATM    4  O   UNL     1       6.504  25.124  57.035  1.00  0.00    -0.247 OA
HETATM    5  H   UNL     1       9.241  26.571  56.968  1.00  0.00     0.170 HD
HETATM    6  H   UNL     1       9.454  24.801  55.898  1.00  0.00     0.171 HD
ENDROOT
BRANCH   3   7
HETATM    7  C   UNL     1       8.378  23.080  55.940  1.00  0.00     0.069 A 
HETATM    8  C   UNL     1       8.212  22.748  54.578  1.00  0.00     0.095 A 
HETATM    9  C   UNL     1       7.998  21.420  54.202  1.00  0.00     0.039 A 
HETATM   10  C   UNL     1       7.940  20.424  55.178  1.00  0.00     0.003 A 
HETATM   11  C   UNL     1       8.104  20.750  56.523  1.00  0.00     0.002 A 
HETATM   12  C   UNL     1       8.325  22.076  56.906  1.00  0.00     0.032 A 
BRANCH   8  13
HETATM   13  O   UNL     1       8.309  23.804  53.702  1.00  0.00    -0.348 OA
BRANCH  13  14
HETATM   14  C   UNL     1       7.414  23.802  52.590  1.00  0.00     0.180 C 
BRANCH  14  15
HETATM   15  C   UNL     1       6.428  24.932  52.714  1.00  0.00     0.010 A 
HETATM   16  C   UNL     1       4.999  24.823  52.238  1.00  0.00     0.007 A 
HETATM   17  C   UNL     1       5.298  24.871  53.713  1.00  0.00     0.007 A 
ENDBRANCH  14  15
ENDBRANCH  13  14
ENDBRANCH   8  13
ENDBRANCH   3   7
BRANCH   1  18
HETATM   18  C   UNL     1       7.660  27.894  56.898  1.00  0.00     0.059 A 
HETATM   19  C   UNL     1       6.961  28.617  55.921  1.00  0.00    -0.032 A 
HETATM   20  C   UNL     1       6.711  28.156  54.514  1.00  0.00     0.050 C 
HETATM   21  C   UNL     1       6.468  29.890  56.264  1.00  0.00     0.028 A 
HETATM   22  C   UNL     1       6.723  30.416  57.519  1.00  0.00     0.117 A 
HETATM   23  N   UNL     1       7.427  29.770  58.463  1.00  0.00    -0.271 NA
HETATM   24  C   UNL     1       7.871  28.536  58.128  1.00  0.00     0.146 A 
ENDBRANCH   1  18
TORSDOF 5
ENDMDL
MODEL 3
REMARK VINA RESULT:      -7.7      4.890      9.397
REMARK  5 active torsions:
REMARK  status: ('A' for Active; 'I' for Inactive)
REMARK    1  A    between atoms: C_3  and  N_4 
REMARK       I    between atoms: N_4  and  C_5 
REMARK       I    between atoms: C_5  and  N_6 
REMARK    2  A    between atoms: N_6  and  C_7 
REMARK    3  A    between atoms: C_8  and  O_9 
REMARK    4  A    between atoms: O_9  and  C_10 
REMARK    5  A    between atoms: C_10  and  C_11 
ROOT
HETATM    1  N   UNL     1       7.935  24.502  55.474  1.00  0.00    -0.307 N 
HETATM    2  C   UNL     1       6.760  25.233  55.446  1.00  0.00     0.325 C 
HETATM    3  N   UNL     1       7.010  26.518  55.888  1.00  0.00    -0.306 N 
HETATM    4  O   UNL     1       5.673  24.810  55.080  1.00  0.00    -0.247 OA
HETATM    5  H   UNL     1       8.752  25.066  55.283  1.00  0.00     0.170 HD
HETATM    6  H   UNL     1       7.933  26.711  56.255  1.00  0.00     0.171 HD
ENDROOT
BRANCH   3   7
HETATM    7  C   UNL     1       6.106  27.581  56.094  1.00  0.00     0.069 A 
HETATM    8  C   UNL     1       6.407  28.455  57.161  1.00  0.00     0.095 A 
HETATM    9  C   UNL     1       5.554  29.522  57.453  1.00  0.00     0.039 A 
HETATM   10  C   UNL     1       4.400  29.716  56.692  1.00  0.00     0.003 A 
HETATM   11  C   UNL     1       4.102  28.853  55.638  1.00  0.00     0.002 A 
HETATM   12  C   UNL     1       4.954  27.787  55.336  1.00  0.00     0.032 A 
BRANCH   8  13
HETATM   13  O   UNL     1       7.578  28.183  57.828  1.00  0.00    -0.348 OA
BRANCH  13  14
HETATM   14  C   UNL     1       8.519  29.250  57.937  1.00  0.00     0.180 C 
BRANCH  14  15
HETATM   15  C   UNL     1       9.751  28.941  57.130  1.00  0.00     0.010 A 
HETATM   16  C   UNL     1      10.107  29.685  55.866  1.00  0.00     0.007 A 
HETATM   17  C   UNL     1      10.927  29.886  57.113  1.00  0.00     0.007 A 
ENDBRANCH  14  15
ENDBRANCH  13  14
ENDBRANCH   8  13
ENDBRANCH   3   7
BRANCH   1  18
HETATM   18  C   UNL     1       8.125  23.104  55.397  1.00  0.00     0.059 A 
HETATM   19  C   UNL     1       8.072  22.301  54.248  1.00  0.00    -0.032 A 
HETATM   20  C   UNL     1       7.794  22.793  52.858  1.00  0.00     0.050 C 
HETATM   21  C   UNL     1       8.270  20.915  54.398  1.00  0.00     0.028 A 
HETATM   22  C   UNL     1       8.459  20.375  55.660  1.00  0.00     0.117 A 
HETATM   23  N   UNL     1       8.470  21.109  56.785  1.00  0.00    -0.271 NA
HETATM   24  C   UNL     1       8.306  22.443  56.621  1.00  0.00     0.146 A 
ENDBRANCH   1  18
TORSDOF 5
ENDMDL
MODEL 4
REMARK VINA RESULT:      -7.7      3.612      6.254
REMARK  5 active torsions:
REMARK  status: ('A' for Active; 'I' for Inactive)
REMARK    1  A    between atoms: C_3  and  N_4 
REMARK       I    between atoms: N_4  and  C_5 
REMARK       I    between atoms: C_5  and  N_6 
REMARK    2  A    between atoms: N_6  and  C_7 
REMARK    3  A    between atoms: C_8  and  O_9 
REMARK    4  A    between atoms: O_9  and  C_10 
REMARK    5  A    between atoms: C_10  and  C_11 
ROOT
HETATM    1  N   UNL     1       8.195  28.241  57.410  1.00  0.00    -0.307 N 
HETATM    2  C   UNL     1       7.349  28.019  56.338  1.00  0.00     0.325 C 
HETATM    3  N   UNL     1       7.401  26.685  55.982  1.00  0.00    -0.306 N 
HETATM    4  O   UNL     1       6.656  28.868  55.797  1.00  0.00    -0.247 OA
HETATM    5  H   UNL     1       8.260  27.445  58.030  1.00  0.00     0.170 HD
HETATM    6  H   UNL     1       8.089  26.107  56.448  1.00  0.00     0.171 HD
ENDROOT
BRANCH   3   7
HETATM    7  C   UNL     1       6.766  26.023  54.911  1.00  0.00     0.069 A 
HETATM    8  C   UNL     1       7.273  24.748  54.579  1.00  0.00     0.095 A 
HETATM    9  C   UNL     1       6.720  24.029  53.516  1.00  0.00     0.039 A 
HETATM   10  C   UNL     1       5.671  24.580  52.779  1.00  0.00     0.003 A 
HETATM   11  C   UNL     1       5.170  25.839  53.105  1.00  0.00     0.002 A 
HETATM   12  C   UNL     1       5.714  26.561  54.171  1.00  0.00     0.032 A 
BRANCH   8  13
HETATM   13  O   UNL     1       8.291  24.295  55.385  1.00  0.00    -0.348 OA
BRANCH  13  14
HETATM   14  C   UNL     1       7.975  23.235  56.288  1.00  0.00     0.180 C 
BRANCH  14  15
HETATM   15  C   UNL     1       8.651  21.963  55.853  1.00  0.00     0.010 A 
HETATM   16  C   UNL     1       8.412  20.638  56.534  1.00  0.00     0.007 A 
HETATM   17  C   UNL     1       7.881  20.876  55.145  1.00  0.00     0.007 A 
ENDBRANCH  14  15
ENDBRANCH  13  14
ENDBRANCH   8  13
ENDBRANCH   3   7
BRANCH   1  18
HETATM   18  C   UNL     1       8.692  29.460  57.926  1.00  0.00     0.059 A 
HETATM   19  C   UNL     1       9.922  30.067  57.637  1.00  0.00    -0.032 A 
HETATM   20  C   UNL     1      10.963  29.517  56.704  1.00  0.00     0.050 C 
HETATM   21  C   UNL     1      10.232  31.279  58.283  1.00  0.00     0.028 A 
HETATM   22  C   UNL     1       9.355  31.812  59.213  1.00  0.00     0.117 A 
HETATM   23  N   UNL     1       8.189  31.233  59.547  1.00  0.00    -0.271 NA
HETATM   24  C   UNL     1       7.893  30.082  58.897  1.00  0.00     0.146 A 
ENDBRANCH   1  18
TORSDOF 5
ENDMDL
MODEL 5
REMARK VINA RESULT:      -7.7      6.735      8.905
REMARK  5 active torsions:
REMARK  status: ('A' for Active; 'I' for Inactive)
REMARK    1  A    between atoms: C_3  and  N_4 
REMARK       I    between atoms: N_4  and  C_5 
REMARK       I    between atoms: C_5  and  N_6 
REMARK    2  A    between atoms: N_6  and  C_7 
REMARK    3  A    between atoms: C_8  and  O_9 
REMARK    4  A    between atoms: O_9  and  C_10 
REMARK    5  A    between atoms: C_10  and  C_11 
ROOT
HETATM    1  N   UNL     1       6.447  26.683  53.987  1.00  0.00    -0.307 N 
HETATM    2  C   UNL     1       6.192  25.326  53.899  1.00  0.00     0.325 C 
HETATM    3  N   UNL     1       7.355  24.625  54.156  1.00  0.00    -0.306 N 
HETATM    4  O   UNL     1       5.107  24.826  53.643  1.00  0.00    -0.247 OA
HETATM    5  H   UNL     1       7.155  26.906  54.672  1.00  0.00     0.170 HD
HETATM    6  H   UNL     1       8.207  25.162  54.257  1.00  0.00     0.171 HD
ENDROOT
BRANCH   3   7
HETATM    7  C   UNL     1       7.586  23.234  54.107  1.00  0.00     0.069 A 
HETATM    8  C   UNL     1       7.680  22.576  55.352  1.00  0.00     0.095 A 
HETATM    9  C   UNL     1       7.930  21.203  55.400  1.00  0.00     0.039 A 
HETATM   10  C   UNL     1       8.095  20.486  54.214  1.00  0.00     0.003 A 
HETATM   11  C   UNL     1       8.003  21.135  52.984  1.00  0.00     0.002 A 
HETATM   12  C   UNL     1       7.746  22.508  52.928  1.00  0.00     0.032 A 
BRANCH   8  13
HETATM   13  O   UNL     1       7.479  23.375  56.453  1.00  0.00    -0.348 OA
BRANCH  13  14
HETATM   14  C   UNL     1       8.641  23.950  57.051  1.00  0.00     0.180 C 
BRANCH  14  15
HETATM   15  C   UNL     1       8.276  25.211  57.787  1.00  0.00     0.010 A 
HETATM   16  C   UNL     1       8.282  26.570  57.128  1.00  0.00     0.007 A 
HETATM   17  C   UNL     1       6.976  25.924  57.509  1.00  0.00     0.007 A 
ENDBRANCH  14  15
ENDBRANCH  13  14
ENDBRANCH   8  13
ENDBRANCH   3   7
BRANCH   1  18
HETATM   18  C   UNL     1       5.670  27.775  53.534  1.00  0.00     0.059 A 
HETATM   19  C   UNL     1       4.753  28.532  54.278  1.00  0.00    -0.032 A 
HETATM   20  C   UNL     1       4.420  28.314  55.725  1.00  0.00     0.050 C 
HETATM   21  C   UNL     1       4.064  29.570  53.621  1.00  0.00     0.028 A 
HETATM   22  C   UNL     1       4.263  29.785  52.268  1.00  0.00     0.117 A 
HETATM   23  N   UNL     1       5.099  29.050  51.517  1.00  0.00    -0.271 NA
HETATM   24  C   UNL     1       5.775  28.073  52.168  1.00  0.00     0.146 A 
ENDBRANCH   1  18
TORSDOF 5
ENDMDL
MODEL 6
REMARK VINA RESULT:      -7.7      5.345      9.652
REMARK  5 active torsions:
REMARK  status: ('A' for Active; 'I' for Inactive)
REMARK    1  A    between atoms: C_3  and  N_4 
REMARK       I    between atoms: N_4  and  C_5 
REMARK       I    between atoms: C_5  and  N_6 
REMARK    2  A    between atoms: N_6  and  C_7 
REMARK    3  A    between atoms: C_8  and  O_9 
REMARK    4  A    between atoms: O_9  and  C_10 
REMARK    5  A    between atoms: C_10  and  C_11 
ROOT
HETATM    1  N   UNL     1       7.028  23.492  55.712  1.00  0.00    -0.307 N 
HETATM    2  C   UNL     1       7.582  24.662  56.201  1.00  0.00     0.325 C 
HETATM    3  N   UNL     1       6.590  25.615  56.336  1.00  0.00    -0.306 N 
HETATM    4  O   UNL     1       8.760  24.824  56.479  1.00  0.00    -0.247 OA
HETATM    5  H   UNL     1       6.078  23.346  56.026  1.00  0.00     0.170 HD
HETATM    6  H   UNL     1       5.672  25.384  55.977  1.00  0.00     0.171 HD
ENDROOT
BRANCH   3   7
HETATM    7  C   UNL     1       6.700  26.966  56.727  1.00  0.00     0.069 A 
HETATM    8  C   UNL     1       5.879  27.883  56.036  1.00  0.00     0.095 A 
HETATM    9  C   UNL     1       5.939  29.244  56.341  1.00  0.00     0.039 A 
HETATM   10  C   UNL     1       6.819  29.696  57.325  1.00  0.00     0.003 A 
HETATM   11  C   UNL     1       7.631  28.792  58.008  1.00  0.00     0.002 A 
HETATM   12  C   UNL     1       7.572  27.427  57.713  1.00  0.00     0.032 A 
BRANCH   8  13
HETATM   13  O   UNL     1       5.036  27.325  55.103  1.00  0.00    -0.348 OA
BRANCH  13  14
HETATM   14  C   UNL     1       5.288  27.645  53.735  1.00  0.00     0.180 C 
BRANCH  14  15
HETATM   15  C   UNL     1       4.642  26.626  52.836  1.00  0.00     0.010 A 
HETATM   16  C   UNL     1       5.429  25.777  51.867  1.00  0.00     0.007 A 
HETATM   17  C   UNL     1       4.812  25.148  53.088  1.00  0.00     0.007 A 
ENDBRANCH  14  15
ENDBRANCH  13  14
ENDBRANCH   8  13
ENDBRANCH   3   7
BRANCH   1  18
HETATM   18  C   UNL     1       7.666  22.363  55.149  1.00  0.00     0.059 A 
HETATM   19  C   UNL     1       8.090  22.201  53.822  1.00  0.00    -0.032 A 
HETATM   20  C   UNL     1       7.940  23.223  52.732  1.00  0.00     0.050 C 
HETATM   21  C   UNL     1       8.688  20.978  53.462  1.00  0.00     0.028 A 
HETATM   22  C   UNL     1       8.795  19.959  54.393  1.00  0.00     0.117 A 
HETATM   23  N   UNL     1       8.358  20.064  55.659  1.00  0.00    -0.271 NA
HETATM   24  C   UNL     1       7.811  21.256  55.998  1.00  0.00     0.146 A 
ENDBRANCH   1  18
TORSDOF 5
ENDMDL
MODEL 7
REMARK VINA RESULT:      -7.5      7.086     11.005
REMARK  5 active torsions:
REMARK  status: ('A' for Active; 'I' for Inactive)
REMARK    1  A    between atoms: C_3  and  N_4 
REMARK       I    between atoms: N_4  and  C_5 
REMARK       I    between atoms: C_5  and  N_6 
REMARK    2  A    between atoms: N_6  and  C_7 
REMARK    3  A    between atoms: C_8  and  O_9 
REMARK    4  A    between atoms: O_9  and  C_10 
REMARK    5  A    between atoms: C_10  and  C_11 
ROOT
HETATM    1  N   UNL     1       5.598  26.817  50.325  1.00  0.00    -0.307 N 
HETATM    2  C   UNL     1       5.610  25.829  51.294  1.00  0.00     0.325 C 
HETATM    3  N   UNL     1       6.884  25.717  51.818  1.00  0.00    -0.306 N 
HETATM    4  O   UNL     1       4.643  25.165  51.638  1.00  0.00    -0.247 OA
HETATM    5  H   UNL     1       6.245  27.568  50.522  1.00  0.00     0.170 HD
HETATM    6  H   UNL     1       7.616  26.258  51.376  1.00  0.00     0.171 HD
ENDROOT
BRANCH   3   7
HETATM    7  C   UNL     1       7.378  24.802  52.770  1.00  0.00     0.069 A 
HETATM    8  C   UNL     1       7.350  25.228  54.116  1.00  0.00     0.095 A 
HETATM    9  C   UNL     1       7.841  24.396  55.124  1.00  0.00     0.039 A 
HETATM   10  C   UNL     1       8.366  23.145  54.796  1.00  0.00     0.003 A 
HETATM   11  C   UNL     1       8.395  22.723  53.468  1.00  0.00     0.002 A 
HETATM   12  C   UNL     1       7.900  23.548  52.454  1.00  0.00     0.032 A 
BRANCH   8  13
HETATM   13  O   UNL     1       6.791  26.467  54.325  1.00  0.00    -0.348 OA
BRANCH  13  14
HETATM   14  C   UNL     1       7.608  27.440  54.976  1.00  0.00     0.180 C 
BRANCH  14  15
HETATM   15  C   UNL     1       7.044  27.768  56.332  1.00  0.00     0.010 A 
HETATM   16  C   UNL     1       7.533  27.109  57.600  1.00  0.00     0.007 A 
HETATM   17  C   UNL     1       7.846  28.559  57.337  1.00  0.00     0.007 A 
ENDBRANCH  14  15
ENDBRANCH  13  14
ENDBRANCH   8  13
ENDBRANCH   3   7
BRANCH   1  18
HETATM   18  C   UNL     1       4.630  27.091  49.332  1.00  0.00     0.059 A 
HETATM   19  C   UNL     1       3.554  27.985  49.417  1.00  0.00    -0.032 A 
HETATM   20  C   UNL     1       3.224  28.835  50.611  1.00  0.00     0.050 C 
HETATM   21  C   UNL     1       2.688  28.089  48.311  1.00  0.00     0.028 A 
HETATM   22  C   UNL     1       2.883  27.283  47.202  1.00  0.00     0.117 A 
HETATM   23  N   UNL     1       3.876  26.385  47.105  1.00  0.00    -0.271 NA
HETATM   24  C   UNL     1       4.716  26.316  48.166  1.00  0.00     0.146 A 
ENDBRANCH   1  18
TORSDOF 5
ENDMDL
MODEL 8
REMARK VINA RESULT:      -7.5      2.116      6.990
REMARK  5 active torsions:
REMARK  status: ('A' for Active; 'I' for Inactive)
REMARK    1  A    between atoms: C_3  and  N_4 
REMARK       I    between atoms: N_4  and  C_5 
REMARK       I    between atoms: C_5  and  N_6 
REMARK    2  A    between atoms: N_6  and  C_7 
REMARK    3  A    between atoms: C_8  and  O_9 
REMARK    4  A    between atoms: O_9  and  C_10 
REMARK    5  A    between atoms: C_10  and  C_11 
ROOT
HETATM    1  N   UNL     1       8.324  30.164  59.726  1.00  0.00    -0.307 N 
HETATM    2  C   UNL     1       8.255  31.345  60.443  1.00  0.00     0.325 C 
HETATM    3  N   UNL     1       7.517  31.140  61.593  1.00  0.00    -0.306 N 
HETATM    4  O   UNL     1       8.773  32.402  60.115  1.00  0.00    -0.247 OA
HETATM    5  H   UNL     1       8.331  29.345  60.318  1.00  0.00     0.170 HD
HETATM    6  H   UNL     1       7.061  30.242  61.697  1.00  0.00     0.171 HD
ENDROOT
BRANCH   3   7
HETATM    7  C   UNL     1       7.129  32.069  62.580  1.00  0.00     0.069 A 
HETATM    8  C   UNL     1       5.802  32.544  62.500  1.00  0.00     0.095 A 
HETATM    9  C   UNL     1       5.338  33.484  63.422  1.00  0.00     0.039 A 
HETATM   10  C   UNL     1       6.193  33.960  64.418  1.00  0.00     0.003 A 
HETATM   11  C   UNL     1       7.504  33.493  64.497  1.00  0.00     0.002 A 
HETATM   12  C   UNL     1       7.973  32.547  63.582  1.00  0.00     0.032 A 
BRANCH   8  13
HETATM   13  O   UNL     1       5.043  31.991  61.495  1.00  0.00    -0.348 OA
BRANCH  13  14
HETATM   14  C   UNL     1       4.800  32.807  60.350  1.00  0.00     0.180 C 
BRANCH  14  15
HETATM   15  C   UNL     1       4.853  31.974  59.098  1.00  0.00     0.010 A 
HETATM   16  C   UNL     1       4.018  32.281  57.878  1.00  0.00     0.007 A 
HETATM   17  C   UNL     1       5.508  32.496  57.843  1.00  0.00     0.007 A 
ENDBRANCH  14  15
ENDBRANCH  13  14
ENDBRANCH   8  13
ENDBRANCH   3   7
BRANCH   1  18
HETATM   18  C   UNL     1       8.707  29.949  58.382  1.00  0.00     0.059 A 
HETATM   19  C   UNL     1       7.930  29.393  57.356  1.00  0.00    -0.032 A 
HETATM   20  C   UNL     1       6.516  28.910  57.502  1.00  0.00     0.050 C 
HETATM   21  C   UNL     1       8.518  29.247  56.084  1.00  0.00     0.028 A 
HETATM   22  C   UNL     1       9.842  29.600  55.889  1.00  0.00     0.117 A 
HETATM   23  N   UNL     1      10.627  30.093  56.861  1.00  0.00    -0.271 NA
HETATM   24  C   UNL     1      10.040  30.253  58.071  1.00  0.00     0.146 A 
ENDBRANCH   1  18
TORSDOF 5
ENDMDL
MODEL 9
REMARK VINA RESULT:      -7.4      5.427      9.479
REMARK  5 active torsions:
REMARK  status: ('A' for Active; 'I' for Inactive)
REMARK    1  A    between atoms: C_3  and  N_4 
REMARK       I    between atoms: N_4  and  C_5 
REMARK       I    between atoms: C_5  and  N_6 
REMARK    2  A    between atoms: N_6  and  C_7 
REMARK    3  A    between atoms: C_8  and  O_9 
REMARK    4  A    between atoms: O_9  and  C_10 
REMARK    5  A    between atoms: C_10  and  C_11 
ROOT
HETATM    1  N   UNL     1       7.760  24.621  54.249  1.00  0.00    -0.307 N 
HETATM    2  C   UNL     1       6.676  25.453  54.470  1.00  0.00     0.325 C 
HETATM    3  N   UNL     1       7.112  26.762  54.543  1.00  0.00    -0.306 N 
HETATM    4  O   UNL     1       5.515  25.087  54.576  1.00  0.00    -0.247 OA
HETATM    5  H   UNL     1       8.482  25.057  53.691  1.00  0.00     0.170 HD
HETATM    6  H   UNL     1       8.112  26.919  54.538  1.00  0.00     0.171 HD
ENDROOT
BRANCH   3   7
HETATM    7  C   UNL     1       6.376  27.931  54.826  1.00  0.00     0.069 A 
HETATM    8  C   UNL     1       6.622  28.534  56.079  1.00  0.00     0.095 A 
HETATM    9  C   UNL     1       5.920  29.682  56.453  1.00  0.00     0.039 A 
HETATM   10  C   UNL     1       4.971  30.227  55.588  1.00  0.00     0.003 A 
HETATM   11  C   UNL     1       4.726  29.633  54.350  1.00  0.00     0.002 A 
HETATM   12  C   UNL     1       5.429  28.487  53.966  1.00  0.00     0.032 A 
BRANCH   8  13
HETATM   13  O   UNL     1       7.592  27.926  56.840  1.00  0.00    -0.348 OA
BRANCH  13  14
HETATM   14  C   UNL     1       8.457  28.783  57.585  1.00  0.00     0.180 C 
BRANCH  14  15
HETATM   15  C   UNL     1       9.826  28.808  56.962  1.00  0.00     0.010 A 
HETATM   16  C   UNL     1      10.221  29.807  55.901  1.00  0.00     0.007 A 
HETATM   17  C   UNL     1      10.807  29.908  57.285  1.00  0.00     0.007 A 
ENDBRANCH  14  15
ENDBRANCH  13  14
ENDBRANCH   8  13
ENDBRANCH   3   7
BRANCH   1  18
HETATM   18  C   UNL     1       7.859  23.218  54.388  1.00  0.00     0.059 A 
HETATM   19  C   UNL     1       8.111  22.496  55.563  1.00  0.00    -0.032 A 
HETATM   20  C   UNL     1       8.329  23.098  56.921  1.00  0.00     0.050 C 
HETATM   21  C   UNL     1       8.193  21.093  55.476  1.00  0.00     0.028 A 
HETATM   22  C   UNL     1       8.077  20.468  54.245  1.00  0.00     0.117 A 
HETATM   23  N   UNL     1       7.881  21.132  53.094  1.00  0.00    -0.271 NA
HETATM   24  C   UNL     1       7.777  22.479  53.198  1.00  0.00     0.146 A 
ENDBRANCH   1  18
TORSDOF 5
ENDMDL
MODEL 10
REMARK VINA RESULT:      -7.3      2.024      7.728
REMARK  5 active torsions:
REMARK  status: ('A' for Active; 'I' for Inactive)
REMARK    1  A    between atoms: C_3  and  N_4 
REMARK       I    between atoms: N_4  and  C_5 
REMARK       I    between atoms: C_5  and  N_6 
REMARK    2  A    between atoms: N_6  and  C_7 
REMARK    3  A    between atoms: C_8  and  O_9 
REMARK    4  A    between atoms: O_9  and  C_10 
REMARK    5  A    between atoms: C_10  and  C_11 
ROOT
HETATM    1  N   UNL     1       7.121  31.085  59.851  1.00  0.00    -0.307 N 
HETATM    2  C   UNL     1       6.367  32.235  60.007  1.00  0.00     0.325 C 
HETATM    3  N   UNL     1       5.190  31.924  60.662  1.00  0.00    -0.306 N 
HETATM    4  O   UNL     1       6.694  33.352  59.633  1.00  0.00    -0.247 OA
HETATM    5  H   UNL     1       6.999  30.430  60.610  1.00  0.00     0.170 HD
HETATM    6  H   UNL     1       4.998  30.945  60.830  1.00  0.00     0.171 HD
ENDROOT
BRANCH   3   7
HETATM    7  C   UNL     1       4.096  32.759  60.971  1.00  0.00     0.069 A 
HETATM    8  C   UNL     1       3.794  32.906  62.342  1.00  0.00     0.095 A 
HETATM    9  C   UNL     1       2.712  33.695  62.740  1.00  0.00     0.039 A 
HETATM   10  C   UNL     1       1.927  34.331  61.776  1.00  0.00     0.003 A 
HETATM   11  C   UNL     1       2.224  34.186  60.422  1.00  0.00     0.002 A 
HETATM   12  C   UNL     1       3.309  33.403  60.017  1.00  0.00     0.032 A 
BRANCH   8  13
HETATM   13  O   UNL     1       4.645  32.254  63.202  1.00  0.00    -0.348 OA
BRANCH  13  14
HETATM   14  C   UNL     1       5.174  33.017  64.287  1.00  0.00     0.180 C 
BRANCH  14  15
HETATM   15  C   UNL     1       6.480  33.650  63.888  1.00  0.00     0.010 A 
HETATM   16  C   UNL     1       7.649  33.773  64.834  1.00  0.00     0.007 A 
HETATM   17  C   UNL     1       7.717  32.813  63.676  1.00  0.00     0.007 A 
ENDBRANCH  14  15
ENDBRANCH  13  14
ENDBRANCH   8  13
ENDBRANCH   3   7
BRANCH   1  18
HETATM   18  C   UNL     1       8.232  30.847  59.010  1.00  0.00     0.059 A 
HETATM   19  C   UNL     1       8.439  29.746  58.166  1.00  0.00    -0.032 A 
HETATM   20  C   UNL     1       7.495  28.591  58.000  1.00  0.00     0.050 C 
HETATM   21  C   UNL     1       9.636  29.694  57.425  1.00  0.00     0.028 A 
HETATM   22  C   UNL     1      10.590  30.685  57.581  1.00  0.00     0.117 A 
HETATM   23  N   UNL     1      10.444  31.729  58.414  1.00  0.00    -0.271 NA
HETATM   24  C   UNL     1       9.277  31.780  59.099  1.00  0.00     0.146 A 
ENDBRANCH   1  18
TORSDOF 5
ENDMDL
