MODEL 1
REMARK VINA RESULT:      -8.5      0.000      0.000
REMARK  10 active torsions:
REMARK  status: ('A' for Active; 'I' for Inactive)
REMARK    1  A    between atoms: C_2  and  C_3 
REMARK    2  A    between atoms: C_3  and  C_4 
REMARK    3  A    between atoms: N_7  and  C_9 
REMARK    4  A    between atoms: C_9  and  C_10 
REMARK    5  A    between atoms: C_12  and  O_13 
REMARK    6  A    between atoms: O_13  and  C_14 
REMARK    7  A    between atoms: C_16  and  O_17 
REMARK    8  A    between atoms: N_25  and  C_26 
REMARK    9  A    between atoms: C_26  and  C_27 
REMARK   10  A    between atoms: C_27  and  C_28 
ROOT
HETATM    1  C   UNL     1       4.596  28.297  54.468  1.00  0.00     0.026 C 
HETATM    2  C   UNL     1       3.871  27.355  53.482  1.00  0.00     0.035 C 
HETATM    3  C   UNL     1       4.256  27.540  52.019  1.00  0.00     0.235 C 
HETATM    4  N   UNL     1       4.078  28.980  51.605  1.00  0.00    -0.067 N 
HETATM    5  H   UNL     1       3.068  29.168  51.633  1.00  0.00     0.280 HD
HETATM    6  C   UNL     1       4.762  29.966  52.520  1.00  0.00     0.235 C 
HETATM    7  C   UNL     1       4.375  29.738  53.973  1.00  0.00     0.035 C 
ENDROOT
BRANCH   1   8
HETATM    8  C   UNL     1       6.084  27.908  54.807  1.00  0.00     0.119 A 
HETATM    9  N   UNL     1       6.843  27.554  53.632  1.00  0.00    -0.324 N 
HETATM   10  C   UNL     1       7.178  26.217  53.608  1.00  0.00     0.326 A 
HETATM   11  H   UNL     1       7.376  28.185  53.045  1.00  0.00     0.165 HD
HETATM   12  O   UNL     1       7.755  25.711  52.664  1.00  0.00    -0.247 OA
HETATM   13  N   UNL     1       6.704  25.622  54.734  1.00  0.00    -0.268 N 
HETATM   14  C   UNL     1       6.071  26.540  55.529  1.00  0.00     0.256 A 
HETATM   15  O   UNL     1       5.507  26.323  56.591  1.00  0.00    -0.270 OA
BRANCH   8  16
HETATM   16  C   UNL     1       6.806  28.970  55.657  1.00  0.00     0.037 C 
HETATM   17  C   UNL     1       8.331  28.929  55.581  1.00  0.00     0.008 C 
ENDBRANCH   8  16
BRANCH  13  18
HETATM   18  C   UNL     1       6.695  24.188  54.975  1.00  0.00     0.142 C 
BRANCH  18  19
HETATM   19  C   UNL     1       8.070  23.599  55.300  1.00  0.00     0.068 C 
BRANCH  19  20
HETATM   20  C   UNL     1       8.242  22.263  54.645  1.00  0.00     0.010 A 
HETATM   21  S   UNL     1       8.090  22.098  52.940  1.00  0.00    -0.085 SA
HETATM   22  C   UNL     1       8.368  20.416  53.091  1.00  0.00     0.166 A 
HETATM   23  N   UNL     1       8.570  19.975  54.311  1.00  0.00    -0.258 NA
HETATM   24  C   UNL     1       8.515  21.026  55.211  1.00  0.00     0.044 A 
HETATM   25  C   UNL     1       8.738  20.730  56.651  1.00  0.00     0.071 C 
ENDBRANCH  19  20
ENDBRANCH  18  19
ENDBRANCH  13  18
ENDBRANCH   1   8
BRANCH   4  26
HETATM   26  C   UNL     1       4.518  29.236  50.167  1.00  0.00     0.273 C 
BRANCH  26  27
HETATM   27  C   UNL     1       4.036  28.239  49.148  1.00  0.00    -0.030 A 
HETATM   28  C   UNL     1       2.686  28.257  48.739  1.00  0.00     0.048 A 
HETATM   29  C   UNL     1       2.215  27.339  47.799  1.00  0.00     0.102 A 
HETATM   30  C   UNL     1       3.113  26.426  47.245  1.00  0.00     0.099 A 
HETATM   31  C   UNL     1       4.445  26.386  47.638  1.00  0.00     0.040 A 
HETATM   32  C   UNL     1       4.907  27.283  48.601  1.00  0.00     0.012 A 
BRANCH  29  33
HETATM   33  O   UNL     1       0.929  27.250  47.338  1.00  0.00    -0.349 OA
BRANCH  33  34
HETATM   34  C   UNL     1       0.466  28.323  46.515  1.00  0.00     0.171 C 
HETATM   35  C   UNL     1      -0.963  28.020  46.104  1.00  0.00     0.034 C 
ENDBRANCH  33  34
ENDBRANCH  29  33
BRANCH  30  36
HETATM   36  O   UNL     1       2.696  25.529  46.302  1.00  0.00    -0.358 OA
HETATM   37  H   UNL     1       3.437  24.902  46.183  1.00  0.00     0.218 HD
ENDBRANCH  30  36
ENDBRANCH  26  27
ENDBRANCH   4  26
TORSDOF 10
ENDMDL
MODEL 2
REMARK VINA RESULT:      -8.5      4.063      8.095
REMARK  10 active torsions:
REMARK  status: ('A' for Active; 'I' for Inactive)
REMARK    1  A    between atoms: C_2  and  C_3 
REMARK    2  A    between atoms: C_3  and  C_4 
REMARK    3  A    between atoms: N_7  and  C_9 
REMARK    4  A    between atoms: C_9  and  C_10 
REMARK    5  A    between atoms: C_12  and  O_13 
REMARK    6  A    between atoms: O_13  and  C_14 
REMARK    7  A    between atoms: C_16  and  O_17 
REMARK    8  A    between atoms: N_25  and  C_26 
REMARK    9  A    between atoms: C_26  and  C_27 
REMARK   10  A    between atoms: C_27  and  C_28 
ROOT
HETATM    1  C   UNL     1       4.490  27.034  53.019  1.00  0.00     0.026 C 
HETATM    2  C   UNL     1       4.648  25.787  53.918  1.00  0.00     0.035 C 
HETATM    3  C   UNL     1       6.017  25.120  53.850  1.00  0.00     0.235 C 
HETATM    4  N   UNL     1       6.374  24.793  52.421  1.00  0.00    -0.067 N 
HETATM    5  H   UNL     1       5.716  24.066  52.115  1.00  0.00     0.280 HD
HETATM    6  C   UNL     1       6.247  25.965  51.478  1.00  0.00     0.235 C 
HETATM    7  C   UNL     1       4.880  26.622  51.588  1.00  0.00     0.035 C 
ENDROOT
BRANCH   1   8
HETATM    8  C   UNL     1       5.163  28.351  53.563  1.00  0.00     0.119 A 
HETATM    9  N   UNL     1       6.521  28.506  53.104  1.00  0.00    -0.324 N 
HETATM   10  C   UNL     1       7.436  28.384  54.127  1.00  0.00     0.326 A 
HETATM   11  H   UNL     1       6.822  28.968  52.253  1.00  0.00     0.165 HD
HETATM   12  O   UNL     1       8.637  28.411  53.929  1.00  0.00    -0.247 OA
HETATM   13  N   UNL     1       6.772  28.173  55.292  1.00  0.00    -0.268 N 
HETATM   14  C   UNL     1       5.419  28.170  55.077  1.00  0.00     0.256 A 
HETATM   15  O   UNL     1       4.546  27.973  55.909  1.00  0.00    -0.270 OA
BRANCH   8  16
HETATM   16  C   UNL     1       4.320  29.612  53.296  1.00  0.00     0.037 C 
HETATM   17  C   UNL     1       4.524  30.244  51.920  1.00  0.00     0.008 C 
ENDBRANCH   8  16
BRANCH  13  18
HETATM   18  C   UNL     1       7.399  27.808  56.553  1.00  0.00     0.142 C 
BRANCH  18  19
HETATM   19  C   UNL     1       7.099  28.772  57.703  1.00  0.00     0.068 C 
BRANCH  19  20
HETATM   20  C   UNL     1       8.214  29.759  57.871  1.00  0.00     0.010 A 
HETATM   21  S   UNL     1       9.758  29.461  57.175  1.00  0.00    -0.085 SA
HETATM   22  C   UNL     1      10.330  30.926  57.847  1.00  0.00     0.166 A 
HETATM   23  N   UNL     1       9.457  31.618  58.542  1.00  0.00    -0.258 NA
HETATM   24  C   UNL     1       8.235  30.967  58.553  1.00  0.00     0.044 A 
HETATM   25  C   UNL     1       7.105  31.605  59.279  1.00  0.00     0.071 C 
ENDBRANCH  19  20
ENDBRANCH  18  19
ENDBRANCH  13  18
ENDBRANCH   1   8
BRANCH   4  26
HETATM   26  C   UNL     1       7.768  24.187  52.289  1.00  0.00     0.273 C 
BRANCH  26  27
HETATM   27  C   UNL     1       8.048  22.996  53.164  1.00  0.00    -0.030 A 
HETATM   28  C   UNL     1       8.273  23.181  54.545  1.00  0.00     0.048 A 
HETATM   29  C   UNL     1       8.540  22.092  55.375  1.00  0.00     0.102 A 
HETATM   30  C   UNL     1       8.546  20.811  54.820  1.00  0.00     0.099 A 
HETATM   31  C   UNL     1       8.334  20.606  53.463  1.00  0.00     0.040 A 
HETATM   32  C   UNL     1       8.098  21.699  52.628  1.00  0.00     0.012 A 
BRANCH  29  33
HETATM   33  O   UNL     1       8.788  22.149  56.720  1.00  0.00    -0.349 OA
BRANCH  33  34
HETATM   34  C   UNL     1       8.172  23.218  57.442  1.00  0.00     0.171 C 
HETATM   35  C   UNL     1       9.122  24.402  57.436  1.00  0.00     0.034 C 
ENDBRANCH  33  34
ENDBRANCH  29  33
BRANCH  30  36
HETATM   36  O   UNL     1       8.776  19.717  55.605  1.00  0.00    -0.358 OA
HETATM   37  H   UNL     1       8.442  19.950  56.494  1.00  0.00     0.218 HD
ENDBRANCH  30  36
ENDBRANCH  26  27
ENDBRANCH   4  26
TORSDOF 10
ENDMDL
MODEL 3
REMARK VINA RESULT:      -8.4      5.714      9.473
REMARK  10 active torsions:
REMARK  status: ('A' for Active; 'I' for Inactive)
REMARK    1  A    between atoms: C_2  and  C_3 
REMARK    2  A    between atoms: C_3  and  C_4 
REMARK    3  A    between atoms: N_7  and  C_9 
REMARK    4  A    between atoms: C_9  and  C_10 
REMARK    5  A    between atoms: C_12  and  O_13 
REMARK    6  A    between atoms: O_13  and  C_14 
REMARK    7  A    between atoms: C_16  and  O_17 
REMARK    8  A    between atoms: N_25  and  C_26 
REMARK    9  A    between atoms: C_26  and  C_27 
REMARK   10  A    between atoms: C_27  and  C_28 
ROOT
HETATM    1  C   UNL     1       4.991  29.356  57.412  1.00  0.00     0.026 C 
HETATM    2  C   UNL     1       6.221  28.463  57.690  1.00  0.00     0.035 C 
HETATM    3  C   UNL     1       7.077  28.155  56.467  1.00  0.00     0.235 C 
HETATM    4  N   UNL     1       6.230  27.565  55.366  1.00  0.00    -0.067 N 
HETATM    5  H   UNL     1       5.916  26.645  55.702  1.00  0.00     0.280 HD
HETATM    6  C   UNL     1       5.007  28.383  55.033  1.00  0.00     0.235 C 
HETATM    7  C   UNL     1       4.189  28.694  56.277  1.00  0.00     0.035 C 
ENDROOT
BRANCH   1   8
HETATM    8  C   UNL     1       5.296  30.891  57.234  1.00  0.00     0.119 A 
HETATM    9  N   UNL     1       6.663  31.223  57.553  1.00  0.00    -0.324 N 
HETATM   10  C   UNL     1       6.761  31.996  58.691  1.00  0.00     0.326 A 
HETATM   11  H   UNL     1       7.450  31.220  56.915  1.00  0.00     0.165 HD
HETATM   12  O   UNL     1       7.836  32.317  59.164  1.00  0.00    -0.247 OA
HETATM   13  N   UNL     1       5.514  32.239  59.170  1.00  0.00    -0.268 N 
HETATM   14  C   UNL     1       4.571  31.661  58.362  1.00  0.00     0.256 A 
HETATM   15  O   UNL     1       3.361  31.663  58.532  1.00  0.00    -0.270 OA
BRANCH   8  16
HETATM   16  C   UNL     1       4.884  31.430  55.851  1.00  0.00     0.037 C 
HETATM   17  C   UNL     1       4.819  32.952  55.745  1.00  0.00     0.008 C 
ENDBRANCH   8  16
BRANCH  13  18
HETATM   18  C   UNL     1       5.222  32.855  60.455  1.00  0.00     0.142 C 
BRANCH  18  19
HETATM   19  C   UNL     1       5.270  31.885  61.639  1.00  0.00     0.068 C 
BRANCH  19  20
HETATM   20  C   UNL     1       6.063  32.468  62.769  1.00  0.00     0.010 A 
HETATM   21  S   UNL     1       5.324  33.539  63.894  1.00  0.00    -0.085 SA
HETATM   22  C   UNL     1       6.825  33.707  64.698  1.00  0.00     0.166 A 
HETATM   23  N   UNL     1       7.826  33.022  64.196  1.00  0.00    -0.258 NA
HETATM   24  C   UNL     1       7.400  32.296  63.096  1.00  0.00     0.044 A 
HETATM   25  C   UNL     1       8.391  31.438  62.394  1.00  0.00     0.071 C 
ENDBRANCH  19  20
ENDBRANCH  18  19
ENDBRANCH  13  18
ENDBRANCH   1   8
BRANCH   4  26
HETATM   26  C   UNL     1       7.026  27.303  54.092  1.00  0.00     0.273 C 
BRANCH  26  27
HETATM   27  C   UNL     1       7.296  25.857  53.774  1.00  0.00    -0.030 A 
HETATM   28  C   UNL     1       7.132  24.880  54.779  1.00  0.00     0.048 A 
HETATM   29  C   UNL     1       7.382  23.534  54.510  1.00  0.00     0.102 A 
HETATM   30  C   UNL     1       7.762  23.167  53.219  1.00  0.00     0.099 A 
HETATM   31  C   UNL     1       7.936  24.112  52.216  1.00  0.00     0.040 A 
HETATM   32  C   UNL     1       7.717  25.462  52.495  1.00  0.00     0.012 A 
BRANCH  29  33
HETATM   33  O   UNL     1       7.272  22.502  55.404  1.00  0.00    -0.349 OA
BRANCH  33  34
HETATM   34  C   UNL     1       8.333  22.357  56.351  1.00  0.00     0.171 C 
HETATM   35  C   UNL     1       8.493  20.880  56.659  1.00  0.00     0.034 C 
ENDBRANCH  33  34
ENDBRANCH  29  33
BRANCH  30  36
HETATM   36  O   UNL     1       7.989  21.856  52.908  1.00  0.00    -0.358 OA
HETATM   37  H   UNL     1       8.032  21.382  53.763  1.00  0.00     0.218 HD
ENDBRANCH  30  36
ENDBRANCH  26  27
ENDBRANCH   4  26
TORSDOF 10
ENDMDL
MODEL 4
REMARK VINA RESULT:      -8.4      3.132      5.499
REMARK  10 active torsions:
REMARK  status: ('A' for Active; 'I' for Inactive)
REMARK    1  A    between atoms: C_2  and  C_3 
REMARK    2  A    between atoms: C_3  and  C_4 
REMARK    3  A    between atoms: N_7  and  C_9 
REMARK    4  A    between atoms: C_9  and  C_10 
REMARK    5  A    between atoms: C_12  and  O_13 
REMARK    6  A    between atoms: O_13  and  C_14 
REMARK    7  A    between atoms: C_16  and  O_17 
REMARK    8  A    between atoms: N_25  and  C_26 
REMARK    9  A    between atoms: C_26  and  C_27 
REMARK   10  A    between atoms: C_27  and  C_28 
ROOT
HETATM    1  C   UNL     1       6.744  26.061  53.956  1.00  0.00     0.026 C 
HETATM    2  C   UNL     1       7.306  27.311  53.242  1.00  0.00     0.035 C 
HETATM    3  C   UNL     1       6.270  28.136  52.487  1.00  0.00     0.235 C 
HETATM    4  N   UNL     1       5.510  27.268  51.516  1.00  0.00    -0.067 N 
HETATM    5  H   UNL     1       6.184  26.976  50.796  1.00  0.00     0.280 HD
HETATM    6  C   UNL     1       4.926  26.024  52.139  1.00  0.00     0.235 C 
HETATM    7  C   UNL     1       5.979  25.237  52.905  1.00  0.00     0.035 C 
ENDROOT
BRANCH   1   8
HETATM    8  C   UNL     1       5.977  26.338  55.303  1.00  0.00     0.119 A 
HETATM    9  N   UNL     1       4.757  27.079  55.101  1.00  0.00    -0.324 N 
HETATM   10  C   UNL     1       4.823  28.352  55.628  1.00  0.00     0.326 A 
HETATM   11  H   UNL     1       3.838  26.692  54.917  1.00  0.00     0.165 HD
HETATM   12  O   UNL     1       3.919  29.156  55.494  1.00  0.00    -0.247 OA
HETATM   13  N   UNL     1       6.036  28.525  56.214  1.00  0.00    -0.268 N 
HETATM   14  C   UNL     1       6.784  27.382  56.110  1.00  0.00     0.256 A 
HETATM   15  O   UNL     1       7.930  27.220  56.503  1.00  0.00    -0.270 OA
BRANCH   8  16
HETATM   16  C   UNL     1       5.742  25.064  56.135  1.00  0.00     0.037 C 
HETATM   17  C   UNL     1       4.901  25.262  57.395  1.00  0.00     0.008 C 
ENDBRANCH   8  16
BRANCH  13  18
HETATM   18  C   UNL     1       6.547  29.793  56.708  1.00  0.00     0.142 C 
BRANCH  18  19
HETATM   19  C   UNL     1       7.154  29.719  58.112  1.00  0.00     0.068 C 
BRANCH  19  20
HETATM   20  C   UNL     1       8.439  30.486  58.175  1.00  0.00     0.010 A 
HETATM   21  S   UNL     1       9.768  30.048  57.176  1.00  0.00    -0.085 SA
HETATM   22  C   UNL     1      10.696  31.299  57.882  1.00  0.00     0.166 A 
HETATM   23  N   UNL     1      10.087  32.018  58.798  1.00  0.00    -0.258 NA
HETATM   24  C   UNL     1       8.787  31.571  58.966  1.00  0.00     0.044 A 
HETATM   25  C   UNL     1       7.926  32.273  59.953  1.00  0.00     0.071 C 
ENDBRANCH  19  20
ENDBRANCH  18  19
ENDBRANCH  13  18
ENDBRANCH   1   8
BRANCH   4  26
HETATM   26  C   UNL     1       4.411  28.030  50.784  1.00  0.00     0.273 C 
BRANCH  26  27
HETATM   27  C   UNL     1       3.886  27.381  49.532  1.00  0.00    -0.030 A 
HETATM   28  C   UNL     1       2.528  27.538  49.182  1.00  0.00     0.048 A 
HETATM   29  C   UNL     1       2.017  26.941  48.029  1.00  0.00     0.102 A 
HETATM   30  C   UNL     1       2.882  26.217  47.208  1.00  0.00     0.099 A 
HETATM   31  C   UNL     1       4.221  26.044  47.536  1.00  0.00     0.040 A 
HETATM   32  C   UNL     1       4.724  26.615  48.707  1.00  0.00     0.012 A 
BRANCH  29  33
HETATM   33  O   UNL     1       0.720  27.010  47.596  1.00  0.00    -0.349 OA
BRANCH  33  34
HETATM   34  C   UNL     1       0.352  28.171  46.849  1.00  0.00     0.171 C 
HETATM   35  C   UNL     1      -0.646  27.752  45.785  1.00  0.00     0.034 C 
ENDBRANCH  33  34
ENDBRANCH  29  33
BRANCH  30  36
HETATM   36  O   UNL     1       2.427  25.641  46.056  1.00  0.00    -0.358 OA
HETATM   37  H   UNL     1       3.163  25.703  45.416  1.00  0.00     0.218 HD
ENDBRANCH  30  36
ENDBRANCH  26  27
ENDBRANCH   4  26
TORSDOF 10
ENDMDL
MODEL 5
REMARK VINA RESULT:      -8.4      4.574      8.014
REMARK  10 active torsions:
REMARK  status: ('A' for Active; 'I' for Inactive)
REMARK    1  A    between atoms: C_2  and  C_3 
REMARK    2  A    between atoms: C_3  and  C_4 
REMARK    3  A    between atoms: N_7  and  C_9 
REMARK    4  A    between atoms: C_9  and  C_10 
REMARK    5  A    between atoms: C_12  and  O_13 
REMARK    6  A    between atoms: O_13  and  C_14 
REMARK    7  A    between atoms: C_16  and  O_17 
REMARK    8  A    between atoms: N_25  and  C_26 
REMARK    9  A    between atoms: C_26  and  C_27 
REMARK   10  A    between atoms: C_27  and  C_28 
ROOT
HETATM    1  C   UNL     1       4.854  28.071  55.524  1.00  0.00     0.026 C 
HETATM    2  C   UNL     1       4.821  29.330  54.629  1.00  0.00     0.035 C 
HETATM    3  C   UNL     1       5.352  30.597  55.289  1.00  0.00     0.235 C 
HETATM    4  N   UNL     1       4.635  30.854  56.591  1.00  0.00    -0.067 N 
HETATM    5  H   UNL     1       3.661  31.076  56.348  1.00  0.00     0.280 HD
HETATM    6  C   UNL     1       4.625  29.668  57.525  1.00  0.00     0.235 C 
HETATM    7  C   UNL     1       4.114  28.416  56.829  1.00  0.00     0.035 C 
ENDROOT
BRANCH   1   8
HETATM    8  C   UNL     1       6.267  27.396  55.693  1.00  0.00     0.119 A 
HETATM    9  N   UNL     1       7.127  27.625  54.558  1.00  0.00    -0.324 N 
HETATM   10  C   UNL     1       7.376  26.469  53.849  1.00  0.00     0.326 A 
HETATM   11  H   UNL     1       7.761  28.405  54.428  1.00  0.00     0.165 HD
HETATM   12  O   UNL     1       8.020  26.470  52.816  1.00  0.00    -0.247 OA
HETATM   13  N   UNL     1       6.743  25.433  54.456  1.00  0.00    -0.268 N 
HETATM   14  C   UNL     1       6.086  25.864  55.578  1.00  0.00     0.256 A 
HETATM   15  O   UNL     1       5.395  25.190  56.326  1.00  0.00    -0.270 OA
BRANCH   8  16
HETATM   16  C   UNL     1       6.957  27.768  57.019  1.00  0.00     0.037 C 
HETATM   17  C   UNL     1       8.281  27.052  57.280  1.00  0.00     0.008 C 
ENDBRANCH   8  16
BRANCH  13  18
HETATM   18  C   UNL     1       6.615  24.096  53.899  1.00  0.00     0.142 C 
BRANCH  18  19
HETATM   19  C   UNL     1       7.952  23.413  53.596  1.00  0.00     0.068 C 
BRANCH  19  20
HETATM   20  C   UNL     1       8.165  22.241  54.505  1.00  0.00     0.010 A 
HETATM   21  S   UNL     1       8.227  22.456  56.210  1.00  0.00    -0.085 SA
HETATM   22  C   UNL     1       8.515  20.780  56.398  1.00  0.00     0.166 A 
HETATM   23  N   UNL     1       8.561  20.077  55.289  1.00  0.00    -0.258 NA
HETATM   24  C   UNL     1       8.349  20.901  54.196  1.00  0.00     0.044 A 
HETATM   25  C   UNL     1       8.348  20.285  52.843  1.00  0.00     0.071 C 
ENDBRANCH  19  20
ENDBRANCH  18  19
ENDBRANCH  13  18
ENDBRANCH   1   8
BRANCH   4  26
HETATM   26  C   UNL     1       5.177  32.074  57.328  1.00  0.00     0.273 C 
BRANCH  26  27
HETATM   27  C   UNL     1       6.211  31.794  58.385  1.00  0.00    -0.030 A 
HETATM   28  C   UNL     1       7.412  31.143  58.031  1.00  0.00     0.048 A 
HETATM   29  C   UNL     1       8.383  30.868  58.994  1.00  0.00     0.102 A 
HETATM   30  C   UNL     1       8.161  31.282  60.308  1.00  0.00     0.099 A 
HETATM   31  C   UNL     1       6.984  31.919  60.680  1.00  0.00     0.040 A 
HETATM   32  C   UNL     1       6.000  32.164  59.722  1.00  0.00     0.012 A 
BRANCH  29  33
HETATM   33  O   UNL     1       9.575  30.231  58.774  1.00  0.00    -0.349 OA
BRANCH  33  34
HETATM   34  C   UNL     1      10.426  30.789  57.770  1.00  0.00     0.171 C 
HETATM   35  C   UNL     1      10.941  29.654  56.903  1.00  0.00     0.034 C 
ENDBRANCH  33  34
ENDBRANCH  29  33
BRANCH  30  36
HETATM   36  O   UNL     1       9.100  31.056  61.274  1.00  0.00    -0.358 OA
HETATM   37  H   UNL     1       9.454  31.935  61.514  1.00  0.00     0.218 HD
ENDBRANCH  30  36
ENDBRANCH  26  27
ENDBRANCH   4  26
TORSDOF 10
ENDMDL
MODEL 6
REMARK VINA RESULT:      -8.3      4.757      8.818
REMARK  10 active torsions:
REMARK  status: ('A' for Active; 'I' for Inactive)
REMARK    1  A    between atoms: C_2  and  C_3 
REMARK    2  A    between atoms: C_3  and  C_4 
REMARK    3  A    between atoms: N_7  and  C_9 
REMARK    4  A    between atoms: C_9  and  C_10 
REMARK    5  A    between atoms: C_12  and  O_13 
REMARK    6  A    between atoms: O_13  and  C_14 
REMARK    7  A    between atoms: C_16  and  O_17 
REMARK    8  A    between atoms: N_25  and  C_26 
REMARK    9  A    between atoms: C_26  and  C_27 
REMARK   10  A    between atoms: C_27  and  C_28 
ROOT
HETATM    1  C   UNL     1       5.062  28.168  55.869  1.00  0.00     0.026 C 
HETATM    2  C   UNL     1       5.089  29.464  55.029  1.00  0.00     0.035 C 
HETATM    3  C   UNL     1       5.751  30.655  55.712  1.00  0.00     0.235 C 
HETATM    4  N   UNL     1       5.118  30.909  57.058  1.00  0.00    -0.067 N 
HETATM    5  H   UNL     1       4.155  31.217  56.874  1.00  0.00     0.280 HD
HETATM    6  C   UNL     1       5.057  29.687  57.942  1.00  0.00     0.235 C 
HETATM    7  C   UNL     1       4.415  28.511  57.223  1.00  0.00     0.035 C 
ENDROOT
BRANCH   1   8
HETATM    8  C   UNL     1       6.423  27.377  55.939  1.00  0.00     0.119 A 
HETATM    9  N   UNL     1       7.265  27.628  54.795  1.00  0.00    -0.324 N 
HETATM   10  C   UNL     1       7.403  26.514  53.994  1.00  0.00     0.326 A 
HETATM   11  H   UNL     1       7.954  28.365  54.703  1.00  0.00     0.165 HD
HETATM   12  O   UNL     1       8.016  26.546  52.942  1.00  0.00    -0.247 OA
HETATM   13  N   UNL     1       6.709  25.485  54.543  1.00  0.00    -0.268 N 
HETATM   14  C   UNL     1       6.120  25.877  55.716  1.00  0.00     0.256 A 
HETATM   15  O   UNL     1       5.400  25.201  56.435  1.00  0.00    -0.270 OA
BRANCH   8  16
HETATM   16  C   UNL     1       7.177  27.593  57.264  1.00  0.00     0.037 C 
HETATM   17  C   UNL     1       8.692  27.739  57.128  1.00  0.00     0.008 C 
ENDBRANCH   8  16
BRANCH  13  18
HETATM   18  C   UNL     1       6.462  24.208  53.892  1.00  0.00     0.142 C 
BRANCH  18  19
HETATM   19  C   UNL     1       7.732  23.456  53.485  1.00  0.00     0.068 C 
BRANCH  19  20
HETATM   20  C   UNL     1       8.001  22.322  54.426  1.00  0.00     0.010 A 
HETATM   21  S   UNL     1       8.063  22.590  56.124  1.00  0.00    -0.085 SA
HETATM   22  C   UNL     1       8.423  20.934  56.359  1.00  0.00     0.166 A 
HETATM   23  N   UNL     1       8.494  20.202  55.272  1.00  0.00    -0.258 NA
HETATM   24  C   UNL     1       8.240  20.983  54.156  1.00  0.00     0.044 A 
HETATM   25  C   UNL     1       8.258  20.327  52.822  1.00  0.00     0.071 C 
ENDBRANCH  19  20
ENDBRANCH  18  19
ENDBRANCH  13  18
ENDBRANCH   1   8
BRANCH   4  26
HETATM   26  C   UNL     1       5.791  32.048  57.817  1.00  0.00     0.273 C 
BRANCH  26  27
HETATM   27  C   UNL     1       6.798  31.638  58.857  1.00  0.00    -0.030 A 
HETATM   28  C   UNL     1       6.555  31.929  60.216  1.00  0.00     0.048 A 
HETATM   29  C   UNL     1       7.476  31.563  61.198  1.00  0.00     0.102 A 
HETATM   30  C   UNL     1       8.626  30.871  60.815  1.00  0.00     0.099 A 
HETATM   31  C   UNL     1       8.888  30.579  59.482  1.00  0.00     0.040 A 
HETATM   32  C   UNL     1       7.982  30.974  58.498  1.00  0.00     0.012 A 
BRANCH  29  33
HETATM   33  O   UNL     1       7.358  31.804  62.540  1.00  0.00    -0.349 OA
BRANCH  33  34
HETATM   34  C   UNL     1       7.120  33.159  62.931  1.00  0.00     0.171 C 
HETATM   35  C   UNL     1       7.445  33.288  64.409  1.00  0.00     0.034 C 
ENDBRANCH  33  34
ENDBRANCH  29  33
BRANCH  30  36
HETATM   36  O   UNL     1       9.538  30.470  61.750  1.00  0.00    -0.358 OA
HETATM   37  H   UNL     1      10.394  30.851  61.469  1.00  0.00     0.218 HD
ENDBRANCH  30  36
ENDBRANCH  26  27
ENDBRANCH   4  26
TORSDOF 10
ENDMDL
MODEL 7
REMARK VINA RESULT:      -8.3      2.928      3.728
REMARK  10 active torsions:
REMARK  status: ('A' for Active; 'I' for Inactive)
REMARK    1  A    between atoms: C_2  and  C_3 
REMARK    2  A    between atoms: C_3  and  C_4 
REMARK    3  A    between atoms: N_7  and  C_9 
REMARK    4  A    between atoms: C_9  and  C_10 
REMARK    5  A    between atoms: C_12  and  O_13 
REMARK    6  A    between atoms: O_13  and  C_14 
REMARK    7  A    between atoms: C_16  and  O_17 
REMARK    8  A    between atoms: N_25  and  C_26 
REMARK    9  A    between atoms: C_26  and  C_27 
REMARK   10  A    between atoms: C_27  and  C_28 
ROOT
HETATM    1  C   UNL     1       6.357  28.338  57.367  1.00  0.00     0.026 C 
HETATM    2  C   UNL     1       5.019  27.632  57.052  1.00  0.00     0.035 C 
HETATM    3  C   UNL     1       4.356  28.071  55.752  1.00  0.00     0.235 C 
HETATM    4  N   UNL     1       4.184  29.570  55.727  1.00  0.00    -0.067 N 
HETATM    5  H   UNL     1       3.498  29.797  56.459  1.00  0.00     0.280 HD
HETATM    6  C   UNL     1       5.452  30.333  56.024  1.00  0.00     0.235 C 
HETATM    7  C   UNL     1       6.101  29.855  57.313  1.00  0.00     0.035 C 
ENDROOT
BRANCH   1   8
HETATM    8  C   UNL     1       7.603  27.822  56.553  1.00  0.00     0.119 A 
HETATM    9  N   UNL     1       7.313  27.654  55.150  1.00  0.00    -0.324 N 
HETATM   10  C   UNL     1       7.327  26.329  54.768  1.00  0.00     0.326 A 
HETATM   11  H   UNL     1       7.409  28.355  54.425  1.00  0.00     0.165 HD
HETATM   12  O   UNL     1       7.034  25.977  53.640  1.00  0.00    -0.247 OA
HETATM   13  N   UNL     1       7.639  25.562  55.844  1.00  0.00    -0.268 N 
HETATM   14  C   UNL     1       7.857  26.347  56.944  1.00  0.00     0.256 A 
HETATM   15  O   UNL     1       8.122  25.966  58.075  1.00  0.00    -0.270 OA
BRANCH   8  16
HETATM   16  C   UNL     1       8.865  28.675  56.779  1.00  0.00     0.037 C 
HETATM   17  C   UNL     1       9.425  29.343  55.524  1.00  0.00     0.008 C 
ENDBRANCH   8  16
BRANCH  13  18
HETATM   18  C   UNL     1       7.564  24.110  55.879  1.00  0.00     0.142 C 
BRANCH  18  19
HETATM   19  C   UNL     1       8.879  23.406  55.533  1.00  0.00     0.068 C 
BRANCH  19  20
HETATM   20  C   UNL     1       8.627  22.200  54.682  1.00  0.00     0.010 A 
HETATM   21  S   UNL     1       8.008  22.370  53.086  1.00  0.00    -0.085 SA
HETATM   22  C   UNL     1       8.003  20.667  52.921  1.00  0.00     0.166 A 
HETATM   23  N   UNL     1       8.433  19.988  53.959  1.00  0.00    -0.258 NA
HETATM   24  C   UNL     1       8.807  20.856  54.972  1.00  0.00     0.044 A 
HETATM   25  C   UNL     1       9.339  20.275  56.233  1.00  0.00     0.071 C 
ENDBRANCH  19  20
ENDBRANCH  18  19
ENDBRANCH  13  18
ENDBRANCH   1   8
BRANCH   4  26
HETATM   26  C   UNL     1       3.588  30.070  54.416  1.00  0.00     0.273 C 
BRANCH  26  27
HETATM   27  C   UNL     1       4.164  29.468  53.163  1.00  0.00    -0.030 A 
HETATM   28  C   UNL     1       4.850  30.292  52.245  1.00  0.00     0.048 A 
HETATM   29  C   UNL     1       5.388  29.758  51.074  1.00  0.00     0.102 A 
HETATM   30  C   UNL     1       5.269  28.386  50.845  1.00  0.00     0.099 A 
HETATM   31  C   UNL     1       4.593  27.558  51.732  1.00  0.00     0.040 A 
HETATM   32  C   UNL     1       4.027  28.099  52.887  1.00  0.00     0.012 A 
BRANCH  29  33
HETATM   33  O   UNL     1       6.057  30.457  50.105  1.00  0.00    -0.349 OA
BRANCH  33  34
HETATM   34  C   UNL     1       5.875  31.875  50.094  1.00  0.00     0.171 C 
HETATM   35  C   UNL     1       6.368  32.404  48.760  1.00  0.00     0.034 C 
ENDBRANCH  33  34
ENDBRANCH  29  33
BRANCH  30  36
HETATM   36  O   UNL     1       5.807  27.821  49.724  1.00  0.00    -0.358 OA
HETATM   37  H   UNL     1       6.286  27.025  50.029  1.00  0.00     0.218 HD
ENDBRANCH  30  36
ENDBRANCH  26  27
ENDBRANCH   4  26
TORSDOF 10
ENDMDL
MODEL 8
REMARK VINA RESULT:      -8.2      5.303      8.891
REMARK  10 active torsions:
REMARK  status: ('A' for Active; 'I' for Inactive)
REMARK    1  A    between atoms: C_2  and  C_3 
REMARK    2  A    between atoms: C_3  and  C_4 
REMARK    3  A    between atoms: N_7  and  C_9 
REMARK    4  A    between atoms: C_9  and  C_10 
REMARK    5  A    between atoms: C_12  and  O_13 
REMARK    6  A    between atoms: O_13  and  C_14 
REMARK    7  A    between atoms: C_16  and  O_17 
REMARK    8  A    between atoms: N_25  and  C_26 
REMARK    9  A    between atoms: C_26  and  C_27 
REMARK   10  A    between atoms: C_27  and  C_28 
ROOT
HETATM    1  C   UNL     1       4.983  27.829  55.592  1.00  0.00     0.026 C 
HETATM    2  C   UNL     1       5.702  26.716  56.386  1.00  0.00     0.035 C 
HETATM    3  C   UNL     1       6.938  26.140  55.705  1.00  0.00     0.235 C 
HETATM    4  N   UNL     1       6.600  25.666  54.313  1.00  0.00    -0.067 N 
HETATM    5  H   UNL     1       5.968  24.863  54.425  1.00  0.00     0.280 HD
HETATM    6  C   UNL     1       5.896  26.701  53.471  1.00  0.00     0.235 C 
HETATM    7  C   UNL     1       4.683  27.272  54.188  1.00  0.00     0.035 C 
ENDROOT
BRANCH   1   8
HETATM    8  C   UNL     1       5.672  29.245  55.636  1.00  0.00     0.119 A 
HETATM    9  N   UNL     1       6.992  29.235  55.055  1.00  0.00    -0.324 N 
HETATM   10  C   UNL     1       7.979  29.440  55.995  1.00  0.00     0.326 A 
HETATM   11  H   UNL     1       7.225  29.398  54.082  1.00  0.00     0.165 HD
HETATM   12  O   UNL     1       9.162  29.393  55.712  1.00  0.00    -0.247 OA
HETATM   13  N   UNL     1       7.401  29.618  57.211  1.00  0.00    -0.268 N 
HETATM   14  C   UNL     1       6.037  29.557  57.106  1.00  0.00     0.256 A 
HETATM   15  O   UNL     1       5.228  29.643  58.018  1.00  0.00    -0.270 OA
BRANCH   8  16
HETATM   16  C   UNL     1       4.793  30.361  55.041  1.00  0.00     0.037 C 
HETATM   17  C   UNL     1       3.405  30.492  55.667  1.00  0.00     0.008 C 
ENDBRANCH   8  16
BRANCH  13  18
HETATM   18  C   UNL     1       8.122  29.671  58.474  1.00  0.00     0.142 C 
BRANCH  18  19
HETATM   19  C   UNL     1       8.523  31.084  58.907  1.00  0.00     0.068 C 
BRANCH  19  20
HETATM   20  C   UNL     1       8.155  31.323  60.339  1.00  0.00     0.010 A 
HETATM   21  S   UNL     1       9.171  30.763  61.608  1.00  0.00    -0.085 SA
HETATM   22  C   UNL     1       8.058  31.378  62.753  1.00  0.00     0.166 A 
HETATM   23  N   UNL     1       6.996  31.972  62.259  1.00  0.00    -0.258 NA
HETATM   24  C   UNL     1       7.045  31.960  60.875  1.00  0.00     0.044 A 
HETATM   25  C   UNL     1       5.933  32.603  60.127  1.00  0.00     0.071 C 
ENDBRANCH  19  20
ENDBRANCH  18  19
ENDBRANCH  13  18
ENDBRANCH   1   8
BRANCH   4  26
HETATM   26  C   UNL     1       7.819  25.144  53.560  1.00  0.00     0.273 C 
BRANCH  26  27
HETATM   27  C   UNL     1       8.069  23.664  53.663  1.00  0.00    -0.030 A 
HETATM   28  C   UNL     1       8.529  23.117  54.879  1.00  0.00     0.048 A 
HETATM   29  C   UNL     1       8.773  21.748  54.997  1.00  0.00     0.102 A 
HETATM   30  C   UNL     1       8.517  20.924  53.900  1.00  0.00     0.099 A 
HETATM   31  C   UNL     1       8.069  21.442  52.691  1.00  0.00     0.040 A 
HETATM   32  C   UNL     1       7.857  22.815  52.564  1.00  0.00     0.012 A 
BRANCH  29  33
HETATM   33  O   UNL     1       9.233  21.107  56.116  1.00  0.00    -0.349 OA
BRANCH  33  34
HETATM   34  C   UNL     1       8.255  20.727  57.087  1.00  0.00     0.171 C 
HETATM   35  C   UNL     1       8.543  21.486  58.369  1.00  0.00     0.034 C 
ENDBRANCH  33  34
ENDBRANCH  29  33
BRANCH  30  36
HETATM   36  O   UNL     1       8.716  19.575  53.984  1.00  0.00    -0.358 OA
HETATM   37  H   UNL     1       7.826  19.171  53.964  1.00  0.00     0.218 HD
ENDBRANCH  30  36
ENDBRANCH  26  27
ENDBRANCH   4  26
TORSDOF 10
ENDMDL
MODEL 9
REMARK VINA RESULT:      -8.2      5.320      9.075
REMARK  10 active torsions:
REMARK  status: ('A' for Active; 'I' for Inactive)
REMARK    1  A    between atoms: C_2  and  C_3 
REMARK    2  A    between atoms: C_3  and  C_4 
REMARK    3  A    between atoms: N_7  and  C_9 
REMARK    4  A    between atoms: C_9  and  C_10 
REMARK    5  A    between atoms: C_12  and  O_13 
REMARK    6  A    between atoms: O_13  and  C_14 
REMARK    7  A    between atoms: C_16  and  O_17 
REMARK    8  A    between atoms: N_25  and  C_26 
REMARK    9  A    between atoms: C_26  and  C_27 
REMARK   10  A    between atoms: C_27  and  C_28 
ROOT
HETATM    1  C   UNL     1       6.362  28.630  54.635  1.00  0.00     0.026 C 
HETATM    2  C   UNL     1       5.127  28.340  53.753  1.00  0.00     0.035 C 
HETATM    3  C   UNL     1       4.829  26.861  53.537  1.00  0.00     0.235 C 
HETATM    4  N   UNL     1       6.045  26.150  52.997  1.00  0.00    -0.067 N 
HETATM    5  H   UNL     1       6.205  26.523  52.052  1.00  0.00     0.280 HD
HETATM    6  C   UNL     1       7.296  26.383  53.808  1.00  0.00     0.235 C 
HETATM    7  C   UNL     1       7.552  27.866  54.026  1.00  0.00     0.035 C 
ENDROOT
BRANCH   1   8
HETATM    8  C   UNL     1       6.146  28.443  56.184  1.00  0.00     0.119 A 
HETATM    9  N   UNL     1       4.825  28.837  56.608  1.00  0.00    -0.324 N 
HETATM   10  C   UNL     1       4.844  29.965  57.400  1.00  0.00     0.326 A 
HETATM   11  H   UNL     1       4.002  28.246  56.648  1.00  0.00     0.165 HD
HETATM   12  O   UNL     1       3.822  30.495  57.797  1.00  0.00    -0.247 OA
HETATM   13  N   UNL     1       6.131  30.366  57.568  1.00  0.00    -0.268 N 
HETATM   14  C   UNL     1       6.985  29.514  56.920  1.00  0.00     0.256 A 
HETATM   15  O   UNL     1       8.201  29.613  56.846  1.00  0.00    -0.270 OA
BRANCH   8  16
HETATM   16  C   UNL     1       6.508  27.030  56.677  1.00  0.00     0.037 C 
HETATM   17  C   UNL     1       5.315  26.147  57.038  1.00  0.00     0.008 C 
ENDBRANCH   8  16
BRANCH  13  18
HETATM   18  C   UNL     1       6.537  31.621  58.181  1.00  0.00     0.142 C 
BRANCH  18  19
HETATM   19  C   UNL     1       7.337  31.455  59.476  1.00  0.00     0.068 C 
BRANCH  19  20
HETATM   20  C   UNL     1       6.679  32.189  60.603  1.00  0.00     0.010 A 
HETATM   21  S   UNL     1       5.106  32.857  60.411  1.00  0.00    -0.085 SA
HETATM   22  C   UNL     1       5.185  33.469  62.007  1.00  0.00     0.166 A 
HETATM   23  N   UNL     1       6.289  33.207  62.668  1.00  0.00    -0.258 NA
HETATM   24  C   UNL     1       7.149  32.461  61.879  1.00  0.00     0.044 A 
HETATM   25  C   UNL     1       8.454  32.049  62.460  1.00  0.00     0.071 C 
ENDBRANCH  19  20
ENDBRANCH  18  19
ENDBRANCH  13  18
ENDBRANCH   1   8
BRANCH   4  26
HETATM   26  C   UNL     1       5.823  24.651  52.829  1.00  0.00     0.273 C 
BRANCH  26  27
HETATM   27  C   UNL     1       6.852  23.760  53.469  1.00  0.00    -0.030 A 
HETATM   28  C   UNL     1       6.914  23.664  54.876  1.00  0.00     0.048 A 
HETATM   29  C   UNL     1       7.864  22.849  55.493  1.00  0.00     0.102 A 
HETATM   30  C   UNL     1       8.728  22.102  54.691  1.00  0.00     0.099 A 
HETATM   31  C   UNL     1       8.690  22.186  53.305  1.00  0.00     0.040 A 
HETATM   32  C   UNL     1       7.761  23.026  52.691  1.00  0.00     0.012 A 
BRANCH  29  33
HETATM   33  O   UNL     1       8.029  22.688  56.842  1.00  0.00    -0.349 OA
BRANCH  33  34
HETATM   34  C   UNL     1       8.150  23.880  57.622  1.00  0.00     0.171 C 
HETATM   35  C   UNL     1       9.376  24.635  57.144  1.00  0.00     0.034 C 
ENDBRANCH  33  34
ENDBRANCH  29  33
BRANCH  30  36
HETATM   36  O   UNL     1       9.654  21.271  55.257  1.00  0.00    -0.358 OA
HETATM   37  H   UNL     1      10.477  21.794  55.327  1.00  0.00     0.218 HD
ENDBRANCH  30  36
ENDBRANCH  26  27
ENDBRANCH   4  26
TORSDOF 10
ENDMDL
MODEL 10
REMARK VINA RESULT:      -8.2      4.143      8.608
REMARK  10 active torsions:
REMARK  status: ('A' for Active; 'I' for Inactive)
REMARK    1  A    between atoms: C_2  and  C_3 
REMARK    2  A    between atoms: C_3  and  C_4 
REMARK    3  A    between atoms: N_7  and  C_9 
REMARK    4  A    between atoms: C_9  and  C_10 
REMARK    5  A    between atoms: C_12  and  O_13 
REMARK    6  A    between atoms: O_13  and  C_14 
REMARK    7  A    between atoms: C_16  and  O_17 
REMARK    8  A    between atoms: N_25  and  C_26 
REMARK    9  A    between atoms: C_26  and  C_27 
REMARK   10  A    between atoms: C_27  and  C_28 
ROOT
HETATM    1  C   UNL     1       4.960  27.716  55.601  1.00  0.00     0.026 C 
HETATM    2  C   UNL     1       4.318  28.910  54.861  1.00  0.00     0.035 C 
HETATM    3  C   UNL     1       4.865  30.277  55.256  1.00  0.00     0.235 C 
HETATM    4  N   UNL     1       4.777  30.469  56.750  1.00  0.00    -0.067 N 
HETATM    5  H   UNL     1       3.776  30.514  56.979  1.00  0.00     0.280 HD
HETATM    6  C   UNL     1       5.388  29.341  57.546  1.00  0.00     0.235 C 
HETATM    7  C   UNL     1       4.839  27.991  57.111  1.00  0.00     0.035 C 
ENDROOT
BRANCH   1   8
HETATM    8  C   UNL     1       6.390  27.294  55.092  1.00  0.00     0.119 A 
HETATM    9  N   UNL     1       6.570  27.544  53.683  1.00  0.00    -0.324 N 
HETATM   10  C   UNL     1       6.675  26.379  52.954  1.00  0.00     0.326 A 
HETATM   11  H   UNL     1       6.916  28.398  53.261  1.00  0.00     0.165 HD
HETATM   12  O   UNL     1       6.758  26.381  51.739  1.00  0.00    -0.247 OA
HETATM   13  N   UNL     1       6.599  25.320  53.800  1.00  0.00    -0.268 N 
HETATM   14  C   UNL     1       6.466  25.749  55.093  1.00  0.00     0.256 A 
HETATM   15  O   UNL     1       6.336  25.050  56.087  1.00  0.00    -0.270 OA
BRANCH   8  16
HETATM   16  C   UNL     1       7.530  27.899  55.932  1.00  0.00     0.037 C 
HETATM   17  C   UNL     1       8.425  28.888  55.187  1.00  0.00     0.008 C 
ENDBRANCH   8  16
BRANCH  13  18
HETATM   18  C   UNL     1       6.480  23.931  53.384  1.00  0.00     0.142 C 
BRANCH  18  19
HETATM   19  C   UNL     1       7.775  23.331  52.829  1.00  0.00     0.068 C 
BRANCH  19  20
HETATM   20  C   UNL     1       8.240  22.192  53.684  1.00  0.00     0.010 A 
HETATM   21  S   UNL     1       8.063  20.567  53.149  1.00  0.00    -0.085 SA
HETATM   22  C   UNL     1       8.748  20.023  54.619  1.00  0.00     0.166 A 
HETATM   23  N   UNL     1       9.101  20.959  55.470  1.00  0.00    -0.258 NA
HETATM   24  C   UNL     1       8.828  22.209  54.940  1.00  0.00     0.044 A 
HETATM   25  C   UNL     1       9.174  23.406  55.752  1.00  0.00     0.071 C 
ENDBRANCH  19  20
ENDBRANCH  18  19
ENDBRANCH  13  18
ENDBRANCH   1   8
BRANCH   4  26
HETATM   26  C   UNL     1       5.378  31.794  57.207  1.00  0.00     0.273 C 
BRANCH  26  27
HETATM   27  C   UNL     1       5.251  32.099  58.674  1.00  0.00    -0.030 A 
HETATM   28  C   UNL     1       6.414  32.269  59.455  1.00  0.00     0.048 A 
HETATM   29  C   UNL     1       6.321  32.547  60.819  1.00  0.00     0.102 A 
HETATM   30  C   UNL     1       5.056  32.690  61.390  1.00  0.00     0.099 A 
HETATM   31  C   UNL     1       3.897  32.521  60.642  1.00  0.00     0.040 A 
HETATM   32  C   UNL     1       3.992  32.211  59.285  1.00  0.00     0.012 A 
BRANCH  29  33
HETATM   33  O   UNL     1       7.374  32.717  61.678  1.00  0.00    -0.349 OA
BRANCH  33  34
HETATM   34  C   UNL     1       8.161  31.559  61.966  1.00  0.00     0.171 C 
HETATM   35  C   UNL     1       9.576  31.818  61.483  1.00  0.00     0.034 C 
ENDBRANCH  33  34
ENDBRANCH  29  33
BRANCH  30  36
HETATM   36  O   UNL     1       4.923  32.990  62.717  1.00  0.00    -0.358 OA
HETATM   37  H   UNL     1       5.206  33.921  62.810  1.00  0.00     0.218 HD
ENDBRANCH  30  36
ENDBRANCH  26  27
ENDBRANCH   4  26
TORSDOF 10
ENDMDL
