MODEL 1
REMARK VINA RESULT:      -8.7      0.000      0.000
REMARK  10 active torsions:
REMARK  status: ('A' for Active; 'I' for Inactive)
REMARK    1  A    between atoms: C_2  and  C_3 
REMARK    2  A    between atoms: C_3  and  N_4 
REMARK    3  A    between atoms: C_7  and  C_8 
REMARK       I    between atoms: C_8  and  N_9 
REMARK    4  A    between atoms: N_9  and  C_10 
REMARK    5  A    between atoms: C_10  and  C_11 
REMARK    6  A    between atoms: C_11  and  O_12 
REMARK    7  A    between atoms: C_11  and  C_13 
REMARK    8  A    between atoms: C_13  and  O_14 
REMARK    9  A    between atoms: O_14  and  C_15 
REMARK   10  A    between atoms: C_23  and  C_24 
ROOT
HETATM    1  C   UNL     1       7.570  26.540  56.433  1.00  0.00     0.255 C 
HETATM    2  N   UNL     1       8.608  27.303  56.902  1.00  0.00    -0.354 N 
HETATM    3  O   UNL     1       6.436  26.980  56.275  1.00  0.00    -0.268 OA
HETATM    4  H   UNL     1       9.535  26.898  56.937  1.00  0.00     0.162 HD
ENDROOT
BRANCH   2   5
HETATM    5  C   UNL     1       8.501  28.747  57.006  1.00  0.00     0.156 C 
BRANCH   5   6
HETATM    6  C   UNL     1       7.836  29.187  58.310  1.00  0.00     0.160 C 
BRANCH   6   7
HETATM    7  O   UNL     1       6.447  29.460  58.058  1.00  0.00    -0.392 OA
HETATM    8  H   UNL     1       6.136  29.974  58.829  1.00  0.00     0.210 HD
ENDBRANCH   6   7
BRANCH   6   9
HETATM    9  C   UNL     1       8.499  30.435  58.901  1.00  0.00     0.209 C 
BRANCH   9  10
HETATM   10  O   UNL     1       8.701  30.192  60.298  1.00  0.00    -0.349 OA
BRANCH  10  11
HETATM   11  C   UNL     1       8.215  31.135  61.161  1.00  0.00     0.069 A 
HETATM   12  C   UNL     1       7.111  31.849  60.684  1.00  0.00     0.043 A 
HETATM   13  C   UNL     1       6.510  32.850  61.458  1.00  0.00    -0.059 A 
HETATM   14  C   UNL     1       5.331  33.620  60.941  1.00  0.00     0.048 C 
HETATM   15  C   UNL     1       7.045  33.148  62.716  1.00  0.00     0.007 A 
HETATM   16  C   UNL     1       8.147  32.442  63.196  1.00  0.00     0.003 A 
HETATM   17  C   UNL     1       8.730  31.434  62.423  1.00  0.00     0.037 A 
ENDBRANCH  10  11
ENDBRANCH   9  10
ENDBRANCH   6   9
ENDBRANCH   5   6
ENDBRANCH   2   5
BRANCH   1  18
HETATM   18  C   UNL     1       7.883  25.144  56.220  1.00  0.00     0.075 A 
HETATM   19  C   UNL     1       8.418  24.306  57.223  1.00  0.00     0.158 A 
HETATM   20  N   UNL     1       8.538  23.042  56.834  1.00  0.00    -0.183 NA
HETATM   21  N   UNL     1       7.996  23.031  55.599  1.00  0.00    -0.268 N 
HETATM   22  C   UNL     1       7.643  24.293  55.147  1.00  0.00     0.052 A 
BRANCH  21  23
HETATM   23  C   UNL     1       7.800  21.739  54.937  1.00  0.00     0.106 C 
HETATM   24  C   UNL     1       7.640  20.596  55.944  1.00  0.00     0.034 C 
BRANCH  23  25
HETATM   25  C   UNL     1       8.855  21.462  53.850  1.00  0.00     0.022 C 
HETATM   26  C   UNL     1       8.497  20.384  52.835  1.00  0.00     0.007 C 
ENDBRANCH  23  25
ENDBRANCH  21  23
BRANCH  22  27
HETATM   27  C   UNL     1       7.024  24.576  53.773  1.00  0.00     0.038 A 
HETATM   28  C   UNL     1       7.402  25.804  52.980  1.00  0.00     0.011 A 
HETATM   29  C   UNL     1       7.850  24.460  52.515  1.00  0.00     0.011 A 
ENDBRANCH  22  27
ENDBRANCH   1  18
TORSDOF 10
ENDMDL
MODEL 2
REMARK VINA RESULT:      -8.5      2.041      3.131
REMARK  10 active torsions:
REMARK  status: ('A' for Active; 'I' for Inactive)
REMARK    1  A    between atoms: C_2  and  C_3 
REMARK    2  A    between atoms: C_3  and  N_4 
REMARK    3  A    between atoms: C_7  and  C_8 
REMARK       I    between atoms: C_8  and  N_9 
REMARK    4  A    between atoms: N_9  and  C_10 
REMARK    5  A    between atoms: C_10  and  C_11 
REMARK    6  A    between atoms: C_11  and  O_12 
REMARK    7  A    between atoms: C_11  and  C_13 
REMARK    8  A    between atoms: C_13  and  O_14 
REMARK    9  A    between atoms: O_14  and  C_15 
REMARK   10  A    between atoms: C_23  and  C_24 
ROOT
HETATM    1  C   UNL     1       6.999  26.606  55.070  1.00  0.00     0.255 C 
HETATM    2  N   UNL     1       5.718  26.853  55.491  1.00  0.00    -0.354 N 
HETATM    3  O   UNL     1       7.680  27.439  54.481  1.00  0.00    -0.268 OA
HETATM    4  H   UNL     1       5.240  26.148  56.039  1.00  0.00     0.162 HD
ENDROOT
BRANCH   2   5
HETATM    5  C   UNL     1       5.166  28.195  55.495  1.00  0.00     0.156 C 
BRANCH   5   6
HETATM    6  C   UNL     1       4.805  28.670  56.903  1.00  0.00     0.160 C 
BRANCH   6   7
HETATM    7  O   UNL     1       3.548  29.367  56.854  1.00  0.00    -0.392 OA
HETATM    8  H   UNL     1       3.564  29.989  57.608  1.00  0.00     0.210 HD
ENDBRANCH   6   7
BRANCH   6   9
HETATM    9  C   UNL     1       5.876  29.596  57.488  1.00  0.00     0.209 C 
BRANCH   9  10
HETATM   10  O   UNL     1       7.055  28.808  57.695  1.00  0.00    -0.349 OA
BRANCH  10  11
HETATM   11  C   UNL     1       8.241  29.486  57.764  1.00  0.00     0.069 A 
HETATM   12  C   UNL     1       8.337  30.385  58.831  1.00  0.00     0.043 A 
HETATM   13  C   UNL     1       9.493  31.153  59.026  1.00  0.00    -0.059 A 
HETATM   14  C   UNL     1       9.591  32.123  60.165  1.00  0.00     0.048 C 
HETATM   15  C   UNL     1      10.551  31.027  58.119  1.00  0.00     0.007 A 
HETATM   16  C   UNL     1      10.460  30.134  57.053  1.00  0.00     0.003 A 
HETATM   17  C   UNL     1       9.310  29.362  56.876  1.00  0.00     0.037 A 
ENDBRANCH  10  11
ENDBRANCH   9  10
ENDBRANCH   6   9
ENDBRANCH   5   6
ENDBRANCH   2   5
BRANCH   1  18
HETATM   18  C   UNL     1       7.467  25.256  55.289  1.00  0.00     0.075 A 
HETATM   19  C   UNL     1       7.962  24.795  56.529  1.00  0.00     0.158 A 
HETATM   20  N   UNL     1       8.246  23.498  56.525  1.00  0.00    -0.183 NA
HETATM   21  N   UNL     1       7.852  23.084  55.304  1.00  0.00    -0.268 N 
HETATM   22  C   UNL     1       7.433  24.121  54.485  1.00  0.00     0.052 A 
BRANCH  21  23
HETATM   23  C   UNL     1       7.857  21.647  55.021  1.00  0.00     0.106 C 
HETATM   24  C   UNL     1       7.936  20.810  56.302  1.00  0.00     0.034 C 
BRANCH  23  25
HETATM   25  C   UNL     1       8.902  21.253  53.960  1.00  0.00     0.022 C 
HETATM   26  C   UNL     1       8.380  20.442  52.781  1.00  0.00     0.007 C 
ENDBRANCH  23  25
ENDBRANCH  21  23
BRANCH  22  27
HETATM   27  C   UNL     1       6.951  23.940  53.042  1.00  0.00     0.038 A 
HETATM   28  C   UNL     1       5.787  24.734  52.497  1.00  0.00     0.011 A 
HETATM   29  C   UNL     1       7.168  25.023  52.013  1.00  0.00     0.011 A 
ENDBRANCH  22  27
ENDBRANCH   1  18
TORSDOF 10
ENDMDL
MODEL 3
REMARK VINA RESULT:      -8.5      2.647      9.431
REMARK  10 active torsions:
REMARK  status: ('A' for Active; 'I' for Inactive)
REMARK    1  A    between atoms: C_2  and  C_3 
REMARK    2  A    between atoms: C_3  and  N_4 
REMARK    3  A    between atoms: C_7  and  C_8 
REMARK       I    between atoms: C_8  and  N_9 
REMARK    4  A    between atoms: N_9  and  C_10 
REMARK    5  A    between atoms: C_10  and  C_11 
REMARK    6  A    between atoms: C_11  and  O_12 
REMARK    7  A    between atoms: C_11  and  C_13 
REMARK    8  A    between atoms: C_13  and  O_14 
REMARK    9  A    between atoms: O_14  and  C_15 
REMARK   10  A    between atoms: C_23  and  C_24 
ROOT
HETATM    1  C   UNL     1       5.275  28.446  56.115  1.00  0.00     0.255 C 
HETATM    2  N   UNL     1       5.765  27.924  54.946  1.00  0.00    -0.354 N 
HETATM    3  O   UNL     1       4.080  28.640  56.310  1.00  0.00    -0.268 OA
HETATM    4  H   UNL     1       6.754  27.718  54.879  1.00  0.00     0.162 HD
ENDROOT
BRANCH   2   5
HETATM    5  C   UNL     1       4.887  27.328  53.955  1.00  0.00     0.156 C 
BRANCH   5   6
HETATM    6  C   UNL     1       5.206  25.853  53.709  1.00  0.00     0.160 C 
BRANCH   6   7
HETATM    7  O   UNL     1       4.010  25.182  53.276  1.00  0.00    -0.392 OA
HETATM    8  H   UNL     1       3.969  24.357  53.798  1.00  0.00     0.210 HD
ENDBRANCH   6   7
BRANCH   6   9
HETATM    9  C   UNL     1       5.746  25.165  54.967  1.00  0.00     0.209 C 
BRANCH   9  10
HETATM   10  O   UNL     1       7.132  24.881  54.737  1.00  0.00    -0.349 OA
BRANCH  10  11
HETATM   11  C   UNL     1       7.443  23.601  54.370  1.00  0.00     0.069 A 
HETATM   12  C   UNL     1       7.530  22.695  55.432  1.00  0.00     0.043 A 
HETATM   13  C   UNL     1       7.845  21.349  55.209  1.00  0.00    -0.059 A 
HETATM   14  C   UNL     1       7.945  20.381  56.350  1.00  0.00     0.048 C 
HETATM   15  C   UNL     1       8.099  20.921  53.901  1.00  0.00     0.007 A 
HETATM   16  C   UNL     1       8.018  21.819  52.839  1.00  0.00     0.003 A 
HETATM   17  C   UNL     1       7.687  23.156  53.071  1.00  0.00     0.037 A 
ENDBRANCH  10  11
ENDBRANCH   9  10
ENDBRANCH   6   9
ENDBRANCH   5   6
ENDBRANCH   2   5
BRANCH   1  18
HETATM   18  C   UNL     1       6.279  28.842  57.077  1.00  0.00     0.075 A 
HETATM   19  C   UNL     1       7.319  27.990  57.512  1.00  0.00     0.158 A 
HETATM   20  N   UNL     1       8.179  28.593  58.325  1.00  0.00    -0.183 NA
HETATM   21  N   UNL     1       7.753  29.872  58.354  1.00  0.00    -0.268 N 
HETATM   22  C   UNL     1       6.564  30.068  57.670  1.00  0.00     0.052 A 
BRANCH  21  23
HETATM   23  C   UNL     1       8.590  30.869  59.026  1.00  0.00     0.106 C 
HETATM   24  C   UNL     1       9.941  31.050  58.325  1.00  0.00     0.034 C 
BRANCH  23  25
HETATM   25  C   UNL     1       8.709  30.621  60.541  1.00  0.00     0.022 C 
HETATM   26  C   UNL     1       9.093  31.830  61.385  1.00  0.00     0.007 C 
ENDBRANCH  23  25
ENDBRANCH  21  23
BRANCH  22  27
HETATM   27  C   UNL     1       5.844  31.416  57.557  1.00  0.00     0.038 A 
HETATM   28  C   UNL     1       4.500  31.645  58.205  1.00  0.00     0.011 A 
HETATM   29  C   UNL     1       5.709  32.323  58.756  1.00  0.00     0.011 A 
ENDBRANCH  22  27
ENDBRANCH   1  18
TORSDOF 10
ENDMDL
MODEL 4
REMARK VINA RESULT:      -8.5      2.325      3.950
REMARK  10 active torsions:
REMARK  status: ('A' for Active; 'I' for Inactive)
REMARK    1  A    between atoms: C_2  and  C_3 
REMARK    2  A    between atoms: C_3  and  N_4 
REMARK    3  A    between atoms: C_7  and  C_8 
REMARK       I    between atoms: C_8  and  N_9 
REMARK    4  A    between atoms: N_9  and  C_10 
REMARK    5  A    between atoms: C_10  and  C_11 
REMARK    6  A    between atoms: C_11  and  O_12 
REMARK    7  A    between atoms: C_11  and  C_13 
REMARK    8  A    between atoms: C_13  and  O_14 
REMARK    9  A    between atoms: O_14  and  C_15 
REMARK   10  A    between atoms: C_23  and  C_24 
ROOT
HETATM    1  C   UNL     1       7.072  26.491  54.107  1.00  0.00     0.255 C 
HETATM    2  N   UNL     1       5.825  26.783  54.597  1.00  0.00    -0.354 N 
HETATM    3  O   UNL     1       7.896  27.353  53.824  1.00  0.00    -0.268 OA
HETATM    4  H   UNL     1       5.221  26.022  54.881  1.00  0.00     0.162 HD
ENDROOT
BRANCH   2   5
HETATM    5  C   UNL     1       5.483  28.117  55.053  1.00  0.00     0.156 C 
BRANCH   5   6
HETATM    6  C   UNL     1       5.020  28.131  56.511  1.00  0.00     0.160 C 
BRANCH   6   7
HETATM    7  O   UNL     1       3.635  28.517  56.558  1.00  0.00    -0.392 OA
HETATM    8  H   UNL     1       3.610  29.337  57.088  1.00  0.00     0.210 HD
ENDBRANCH   6   7
BRANCH   6   9
HETATM    9  C   UNL     1       5.845  29.096  57.367  1.00  0.00     0.209 C 
BRANCH   9  10
HETATM   10  O   UNL     1       7.003  28.383  57.819  1.00  0.00    -0.349 OA
BRANCH  10  11
HETATM   11  C   UNL     1       8.201  29.037  57.728  1.00  0.00     0.069 A 
HETATM   12  C   UNL     1       8.354  30.100  58.624  1.00  0.00     0.043 A 
HETATM   13  C   UNL     1       9.528  30.864  58.643  1.00  0.00    -0.059 A 
HETATM   14  C   UNL     1       9.687  32.008  59.599  1.00  0.00     0.048 C 
HETATM   15  C   UNL     1      10.545  30.566  57.730  1.00  0.00     0.007 A 
HETATM   16  C   UNL     1      10.397  29.510  56.833  1.00  0.00     0.003 A 
HETATM   17  C   UNL     1       9.229  28.744  56.833  1.00  0.00     0.037 A 
ENDBRANCH  10  11
ENDBRANCH   9  10
ENDBRANCH   6   9
ENDBRANCH   5   6
ENDBRANCH   2   5
BRANCH   1  18
HETATM   18  C   UNL     1       7.318  25.088  53.857  1.00  0.00     0.075 A 
HETATM   19  C   UNL     1       7.449  24.539  52.562  1.00  0.00     0.158 A 
HETATM   20  N   UNL     1       7.766  23.249  52.574  1.00  0.00    -0.183 NA
HETATM   21  N   UNL     1       7.931  22.970  53.883  1.00  0.00    -0.268 N 
HETATM   22  C   UNL     1       7.607  24.030  54.713  1.00  0.00     0.052 A 
BRANCH  21  23
HETATM   23  C   UNL     1       8.467  21.657  54.251  1.00  0.00     0.106 C 
HETATM   24  C   UNL     1       8.665  20.754  53.029  1.00  0.00     0.034 C 
BRANCH  23  25
HETATM   25  C   UNL     1       7.674  20.989  55.390  1.00  0.00     0.022 C 
HETATM   26  C   UNL     1       8.506  20.385  56.514  1.00  0.00     0.007 C 
ENDBRANCH  23  25
ENDBRANCH  21  23
BRANCH  22  27
HETATM   27  C   UNL     1       7.683  23.983  56.243  1.00  0.00     0.038 A 
HETATM   28  C   UNL     1       8.999  24.134  56.969  1.00  0.00     0.011 A 
HETATM   29  C   UNL     1       7.988  25.228  57.041  1.00  0.00     0.011 A 
ENDBRANCH  22  27
ENDBRANCH   1  18
TORSDOF 10
ENDMDL
MODEL 5
REMARK VINA RESULT:      -8.2      2.318     10.553
REMARK  10 active torsions:
REMARK  status: ('A' for Active; 'I' for Inactive)
REMARK    1  A    between atoms: C_2  and  C_3 
REMARK    2  A    between atoms: C_3  and  N_4 
REMARK    3  A    between atoms: C_7  and  C_8 
REMARK       I    between atoms: C_8  and  N_9 
REMARK    4  A    between atoms: N_9  and  C_10 
REMARK    5  A    between atoms: C_10  and  C_11 
REMARK    6  A    between atoms: C_11  and  O_12 
REMARK    7  A    between atoms: C_11  and  C_13 
REMARK    8  A    between atoms: C_13  and  O_14 
REMARK    9  A    between atoms: O_14  and  C_15 
REMARK   10  A    between atoms: C_23  and  C_24 
ROOT
HETATM    1  C   UNL     1       8.092  30.461  58.546  1.00  0.00     0.255 C 
HETATM    2  N   UNL     1       7.541  29.258  58.187  1.00  0.00    -0.354 N 
HETATM    3  O   UNL     1       9.284  30.716  58.410  1.00  0.00    -0.268 OA
HETATM    4  H   UNL     1       6.538  29.141  58.255  1.00  0.00     0.162 HD
ENDROOT
BRANCH   2   5
HETATM    5  C   UNL     1       8.277  28.294  57.390  1.00  0.00     0.156 C 
BRANCH   5   6
HETATM    6  C   UNL     1       7.495  26.997  57.179  1.00  0.00     0.160 C 
BRANCH   6   7
HETATM    7  O   UNL     1       7.976  26.005  58.102  1.00  0.00    -0.392 OA
HETATM    8  H   UNL     1       7.760  25.143  57.696  1.00  0.00     0.210 HD
ENDBRANCH   6   7
BRANCH   6   9
HETATM    9  C   UNL     1       7.634  26.469  55.748  1.00  0.00     0.209 C 
BRANCH   9  10
HETATM   10  O   UNL     1       6.724  25.371  55.608  1.00  0.00    -0.349 OA
BRANCH  10  11
HETATM   11  C   UNL     1       7.154  24.310  54.859  1.00  0.00     0.069 A 
HETATM   12  C   UNL     1       7.295  23.114  55.570  1.00  0.00     0.043 A 
HETATM   13  C   UNL     1       7.731  21.944  54.935  1.00  0.00    -0.059 A 
HETATM   14  C   UNL     1       7.889  20.664  55.701  1.00  0.00     0.048 C 
HETATM   15  C   UNL     1       8.051  21.990  53.574  1.00  0.00     0.007 A 
HETATM   16  C   UNL     1       7.916  23.180  52.861  1.00  0.00     0.003 A 
HETATM   17  C   UNL     1       7.464  24.337  53.500  1.00  0.00     0.037 A 
ENDBRANCH  10  11
ENDBRANCH   9  10
ENDBRANCH   6   9
ENDBRANCH   5   6
ENDBRANCH   2   5
BRANCH   1  18
HETATM   18  C   UNL     1       7.182  31.385  59.185  1.00  0.00     0.075 A 
HETATM   19  C   UNL     1       6.125  32.032  58.506  1.00  0.00     0.158 A 
HETATM   20  N   UNL     1       5.361  32.762  59.310  1.00  0.00    -0.183 NA
HETATM   21  N   UNL     1       5.865  32.524  60.538  1.00  0.00    -0.268 N 
HETATM   22  C   UNL     1       7.014  31.749  60.517  1.00  0.00     0.052 A 
BRANCH  21  23
HETATM   23  C   UNL     1       5.137  33.041  61.700  1.00  0.00     0.106 C 
HETATM   24  C   UNL     1       3.789  32.339  61.891  1.00  0.00     0.034 C 
BRANCH  23  25
HETATM   25  C   UNL     1       5.040  34.578  61.706  1.00  0.00     0.022 C 
HETATM   26  C   UNL     1       5.879  35.293  62.757  1.00  0.00     0.007 C 
ENDBRANCH  23  25
ENDBRANCH  21  23
BRANCH  22  27
HETATM   27  C   UNL     1       7.804  31.342  61.765  1.00  0.00     0.038 A 
HETATM   28  C   UNL     1       9.276  31.653  61.899  1.00  0.00     0.011 A 
HETATM   29  C   UNL     1       8.289  32.382  62.747  1.00  0.00     0.011 A 
ENDBRANCH  22  27
ENDBRANCH   1  18
TORSDOF 10
ENDMDL
MODEL 6
REMARK VINA RESULT:      -8.0      2.563     10.013
REMARK  10 active torsions:
REMARK  status: ('A' for Active; 'I' for Inactive)
REMARK    1  A    between atoms: C_2  and  C_3 
REMARK    2  A    between atoms: C_3  and  N_4 
REMARK    3  A    between atoms: C_7  and  C_8 
REMARK       I    between atoms: C_8  and  N_9 
REMARK    4  A    between atoms: N_9  and  C_10 
REMARK    5  A    between atoms: C_10  and  C_11 
REMARK    6  A    between atoms: C_11  and  O_12 
REMARK    7  A    between atoms: C_11  and  C_13 
REMARK    8  A    between atoms: C_13  and  O_14 
REMARK    9  A    between atoms: O_14  and  C_15 
REMARK   10  A    between atoms: C_23  and  C_24 
ROOT
HETATM    1  C   UNL     1       5.970  30.534  57.532  1.00  0.00     0.255 C 
HETATM    2  N   UNL     1       6.013  29.171  57.670  1.00  0.00    -0.354 N 
HETATM    3  O   UNL     1       5.750  31.089  56.461  1.00  0.00    -0.268 OA
HETATM    4  H   UNL     1       6.124  28.777  58.596  1.00  0.00     0.162 HD
ENDROOT
BRANCH   2   5
HETATM    5  C   UNL     1       5.554  28.287  56.615  1.00  0.00     0.156 C 
BRANCH   5   6
HETATM    6  C   UNL     1       6.692  27.833  55.700  1.00  0.00     0.160 C 
BRANCH   6   7
HETATM    7  O   UNL     1       6.854  28.795  54.644  1.00  0.00    -0.392 OA
HETATM    8  H   UNL     1       6.037  28.739  54.111  1.00  0.00     0.210 HD
ENDBRANCH   6   7
BRANCH   6   9
HETATM    9  C   UNL     1       6.427  26.452  55.093  1.00  0.00     0.209 C 
BRANCH   9  10
HETATM   10  O   UNL     1       7.568  25.634  55.377  1.00  0.00    -0.349 OA
BRANCH  10  11
HETATM   11  C   UNL     1       7.661  24.453  54.695  1.00  0.00     0.069 A 
HETATM   12  C   UNL     1       7.658  23.311  55.502  1.00  0.00     0.043 A 
HETATM   13  C   UNL     1       7.751  22.030  54.942  1.00  0.00    -0.059 A 
HETATM   14  C   UNL     1       7.755  20.808  55.810  1.00  0.00     0.048 C 
HETATM   15  C   UNL     1       7.874  21.905  53.554  1.00  0.00     0.007 A 
HETATM   16  C   UNL     1       7.881  23.039  52.744  1.00  0.00     0.003 A 
HETATM   17  C   UNL     1       7.771  24.311  53.311  1.00  0.00     0.037 A 
ENDBRANCH  10  11
ENDBRANCH   9  10
ENDBRANCH   6   9
ENDBRANCH   5   6
ENDBRANCH   2   5
BRANCH   1  18
HETATM   18  C   UNL     1       6.294  31.282  58.727  1.00  0.00     0.075 A 
HETATM   19  C   UNL     1       5.348  32.040  59.450  1.00  0.00     0.158 A 
HETATM   20  N   UNL     1       5.845  32.566  60.564  1.00  0.00    -0.183 NA
HETATM   21  N   UNL     1       7.100  32.077  60.619  1.00  0.00    -0.268 N 
HETATM   22  C   UNL     1       7.451  31.345  59.495  1.00  0.00     0.052 A 
BRANCH  21  23
HETATM   23  C   UNL     1       7.887  32.316  61.831  1.00  0.00     0.106 C 
HETATM   24  C   UNL     1       8.326  31.008  62.498  1.00  0.00     0.034 C 
BRANCH  23  25
HETATM   25  C   UNL     1       7.206  33.303  62.797  1.00  0.00     0.022 C 
HETATM   26  C   UNL     1       7.583  33.165  64.266  1.00  0.00     0.007 C 
ENDBRANCH  23  25
ENDBRANCH  21  23
BRANCH  22  27
HETATM   27  C   UNL     1       8.822  30.692  59.284  1.00  0.00     0.038 A 
HETATM   28  C   UNL     1       9.488  30.687  57.929  1.00  0.00     0.011 A 
HETATM   29  C   UNL     1      10.047  31.534  59.023  1.00  0.00     0.011 A 
ENDBRANCH  22  27
ENDBRANCH   1  18
TORSDOF 10
ENDMDL
MODEL 7
REMARK VINA RESULT:      -7.9      6.733     10.486
REMARK  10 active torsions:
REMARK  status: ('A' for Active; 'I' for Inactive)
REMARK    1  A    between atoms: C_2  and  C_3 
REMARK    2  A    between atoms: C_3  and  N_4 
REMARK    3  A    between atoms: C_7  and  C_8 
REMARK       I    between atoms: C_8  and  N_9 
REMARK    4  A    between atoms: N_9  and  C_10 
REMARK    5  A    between atoms: C_10  and  C_11 
REMARK    6  A    between atoms: C_11  and  O_12 
REMARK    7  A    between atoms: C_11  and  C_13 
REMARK    8  A    between atoms: C_13  and  O_14 
REMARK    9  A    between atoms: O_14  and  C_15 
REMARK   10  A    between atoms: C_23  and  C_24 
ROOT
HETATM    1  C   UNL     1       4.939  26.985  50.874  1.00  0.00     0.255 C 
HETATM    2  N   UNL     1       4.495  25.769  51.324  1.00  0.00    -0.354 N 
HETATM    3  O   UNL     1       5.992  27.490  51.247  1.00  0.00    -0.268 OA
HETATM    4  H   UNL     1       3.655  25.375  50.918  1.00  0.00     0.162 HD
ENDROOT
BRANCH   2   5
HETATM    5  C   UNL     1       5.357  24.878  52.079  1.00  0.00     0.156 C 
BRANCH   5   6
HETATM    6  C   UNL     1       5.106  24.967  53.585  1.00  0.00     0.160 C 
BRANCH   6   7
HETATM    7  O   UNL     1       4.526  26.247  53.888  1.00  0.00    -0.392 OA
HETATM    8  H   UNL     1       5.003  26.571  54.676  1.00  0.00     0.210 HD
ENDBRANCH   6   7
BRANCH   6   9
HETATM    9  C   UNL     1       6.395  24.791  54.393  1.00  0.00     0.209 C 
BRANCH   9  10
HETATM   10  O   UNL     1       7.366  24.192  53.526  1.00  0.00    -0.349 OA
BRANCH  10  11
HETATM   11  C   UNL     1       7.681  22.883  53.768  1.00  0.00     0.069 A 
HETATM   12  C   UNL     1       7.837  22.563  55.121  1.00  0.00     0.043 A 
HETATM   13  C   UNL     1       8.165  21.261  55.521  1.00  0.00    -0.059 A 
HETATM   14  C   UNL     1       8.339  20.921  56.971  1.00  0.00     0.048 C 
HETATM   15  C   UNL     1       8.361  20.280  54.542  1.00  0.00     0.007 A 
HETATM   16  C   UNL     1       8.210  20.594  53.193  1.00  0.00     0.003 A 
HETATM   17  C   UNL     1       7.867  21.892  52.805  1.00  0.00     0.037 A 
ENDBRANCH  10  11
ENDBRANCH   9  10
ENDBRANCH   6   9
ENDBRANCH   5   6
ENDBRANCH   2   5
BRANCH   1  18
HETATM   18  C   UNL     1       4.030  27.681  49.990  1.00  0.00     0.075 A 
HETATM   19  C   UNL     1       3.514  28.967  50.260  1.00  0.00     0.158 A 
HETATM   20  N   UNL     1       2.774  29.449  49.269  1.00  0.00    -0.183 NA
HETATM   21  N   UNL     1       2.877  28.512  48.304  1.00  0.00    -0.268 N 
HETATM   22  C   UNL     1       3.572  27.384  48.710  1.00  0.00     0.052 A 
BRANCH  21  23
HETATM   23  C   UNL     1       2.320  28.811  46.983  1.00  0.00     0.106 C 
HETATM   24  C   UNL     1       2.814  30.156  46.440  1.00  0.00     0.034 C 
BRANCH  23  25
HETATM   25  C   UNL     1       0.789  28.650  46.934  1.00  0.00     0.022 C 
HETATM   26  C   UNL     1       0.022  29.785  46.267  1.00  0.00     0.007 C 
ENDBRANCH  23  25
ENDBRANCH  21  23
BRANCH  22  27
HETATM   27  C   UNL     1       3.823  26.159  47.824  1.00  0.00     0.038 A 
HETATM   28  C   UNL     1       3.174  24.828  48.123  1.00  0.00     0.011 A 
HETATM   29  C   UNL     1       2.734  25.613  46.933  1.00  0.00     0.011 A 
ENDBRANCH  22  27
ENDBRANCH   1  18
TORSDOF 10
ENDMDL
MODEL 8
REMARK VINA RESULT:      -7.9      4.809      8.400
REMARK  10 active torsions:
REMARK  status: ('A' for Active; 'I' for Inactive)
REMARK    1  A    between atoms: C_2  and  C_3 
REMARK    2  A    between atoms: C_3  and  N_4 
REMARK    3  A    between atoms: C_7  and  C_8 
REMARK       I    between atoms: C_8  and  N_9 
REMARK    4  A    between atoms: N_9  and  C_10 
REMARK    5  A    between atoms: C_10  and  C_11 
REMARK    6  A    between atoms: C_11  and  O_12 
REMARK    7  A    between atoms: C_11  and  C_13 
REMARK    8  A    between atoms: C_13  and  O_14 
REMARK    9  A    between atoms: O_14  and  C_15 
REMARK   10  A    between atoms: C_23  and  C_24 
ROOT
HETATM    1  C   UNL     1       6.812  26.799  54.039  1.00  0.00     0.255 C 
HETATM    2  N   UNL     1       5.501  27.174  53.899  1.00  0.00    -0.354 N 
HETATM    3  O   UNL     1       7.727  27.604  54.168  1.00  0.00    -0.268 OA
HETATM    4  H   UNL     1       4.788  26.457  53.873  1.00  0.00     0.162 HD
ENDROOT
BRANCH   2   5
HETATM    5  C   UNL     1       5.073  28.539  54.145  1.00  0.00     0.156 C 
BRANCH   5   6
HETATM    6  C   UNL     1       4.083  29.036  53.091  1.00  0.00     0.160 C 
BRANCH   6   7
HETATM    7  O   UNL     1       3.118  28.002  52.832  1.00  0.00    -0.392 OA
HETATM    8  H   UNL     1       3.622  27.268  52.430  1.00  0.00     0.210 HD
ENDBRANCH   6   7
BRANCH   6   9
HETATM    9  C   UNL     1       4.781  29.418  51.782  1.00  0.00     0.209 C 
BRANCH   9  10
HETATM   10  O   UNL     1       5.407  28.235  51.270  1.00  0.00    -0.349 OA
BRANCH  10  11
HETATM   11  C   UNL     1       5.164  27.930  49.960  1.00  0.00     0.069 A 
HETATM   12  C   UNL     1       4.400  26.775  49.762  1.00  0.00     0.043 A 
HETATM   13  C   UNL     1       4.076  26.337  48.471  1.00  0.00    -0.059 A 
HETATM   14  C   UNL     1       3.264  25.094  48.261  1.00  0.00     0.048 C 
HETATM   15  C   UNL     1       4.548  27.061  47.371  1.00  0.00     0.007 A 
HETATM   16  C   UNL     1       5.312  28.211  47.562  1.00  0.00     0.003 A 
HETATM   17  C   UNL     1       5.617  28.648  48.853  1.00  0.00     0.037 A 
ENDBRANCH  10  11
ENDBRANCH   9  10
ENDBRANCH   6   9
ENDBRANCH   5   6
ENDBRANCH   2   5
BRANCH   1  18
HETATM   18  C   UNL     1       7.057  25.377  53.933  1.00  0.00     0.075 A 
HETATM   19  C   UNL     1       7.298  24.719  52.707  1.00  0.00     0.158 A 
HETATM   20  N   UNL     1       7.590  23.432  52.857  1.00  0.00    -0.183 NA
HETATM   21  N   UNL     1       7.628  23.263  54.195  1.00  0.00    -0.268 N 
HETATM   22  C   UNL     1       7.246  24.394  54.899  1.00  0.00     0.052 A 
BRANCH  21  23
HETATM   23  C   UNL     1       8.104  21.982  54.721  1.00  0.00     0.106 C 
HETATM   24  C   UNL     1       9.606  22.008  55.024  1.00  0.00     0.034 C 
BRANCH  23  25
HETATM   25  C   UNL     1       7.670  20.785  53.854  1.00  0.00     0.022 C 
HETATM   26  C   UNL     1       8.736  20.212  52.929  1.00  0.00     0.007 C 
ENDBRANCH  23  25
ENDBRANCH  21  23
BRANCH  22  27
HETATM   27  C   UNL     1       7.179  24.477  56.428  1.00  0.00     0.038 A 
HETATM   28  C   UNL     1       8.422  24.695  57.257  1.00  0.00     0.011 A 
HETATM   29  C   UNL     1       7.413  25.787  57.142  1.00  0.00     0.011 A 
ENDBRANCH  22  27
ENDBRANCH   1  18
TORSDOF 10
ENDMDL
MODEL 9
REMARK VINA RESULT:      -7.8      3.023      8.836
REMARK  10 active torsions:
REMARK  status: ('A' for Active; 'I' for Inactive)
REMARK    1  A    between atoms: C_2  and  C_3 
REMARK    2  A    between atoms: C_3  and  N_4 
REMARK    3  A    between atoms: C_7  and  C_8 
REMARK       I    between atoms: C_8  and  N_9 
REMARK    4  A    between atoms: N_9  and  C_10 
REMARK    5  A    between atoms: C_10  and  C_11 
REMARK    6  A    between atoms: C_11  and  O_12 
REMARK    7  A    between atoms: C_11  and  C_13 
REMARK    8  A    between atoms: C_13  and  O_14 
REMARK    9  A    between atoms: O_14  and  C_15 
REMARK   10  A    between atoms: C_23  and  C_24 
ROOT
HETATM    1  C   UNL     1       4.877  30.043  56.216  1.00  0.00     0.255 C 
HETATM    2  N   UNL     1       5.357  29.703  54.977  1.00  0.00    -0.354 N 
HETATM    3  O   UNL     1       3.692  29.953  56.519  1.00  0.00    -0.268 OA
HETATM    4  H   UNL     1       6.356  29.729  54.817  1.00  0.00     0.162 HD
ENDROOT
BRANCH   2   5
HETATM    5  C   UNL     1       4.543  28.975  54.022  1.00  0.00     0.156 C 
BRANCH   5   6
HETATM    6  C   UNL     1       4.617  27.462  54.230  1.00  0.00     0.160 C 
BRANCH   6   7
HETATM    7  O   UNL     1       4.577  27.181  55.639  1.00  0.00    -0.392 OA
HETATM    8  H   UNL     1       3.873  26.513  55.754  1.00  0.00     0.210 HD
ENDBRANCH   6   7
BRANCH   6   9
HETATM    9  C   UNL     1       5.891  26.861  53.628  1.00  0.00     0.209 C 
BRANCH   9  10
HETATM   10  O   UNL     1       5.639  25.469  53.397  1.00  0.00    -0.349 OA
BRANCH  10  11
HETATM   11  C   UNL     1       6.634  24.599  53.749  1.00  0.00     0.069 A 
HETATM   12  C   UNL     1       7.142  24.786  55.038  1.00  0.00     0.043 A 
HETATM   13  C   UNL     1       8.168  23.971  55.534  1.00  0.00    -0.059 A 
HETATM   14  C   UNL     1       8.717  24.177  56.914  1.00  0.00     0.048 C 
HETATM   15  C   UNL     1       8.700  22.974  54.710  1.00  0.00     0.007 A 
HETATM   16  C   UNL     1       8.200  22.785  53.423  1.00  0.00     0.003 A 
HETATM   17  C   UNL     1       7.166  23.593  52.943  1.00  0.00     0.037 A 
ENDBRANCH  10  11
ENDBRANCH   9  10
ENDBRANCH   6   9
ENDBRANCH   5   6
ENDBRANCH   2   5
BRANCH   1  18
HETATM   18  C   UNL     1       5.855  30.607  57.119  1.00  0.00     0.075 A 
HETATM   19  C   UNL     1       5.771  31.917  57.638  1.00  0.00     0.158 A 
HETATM   20  N   UNL     1       6.726  32.190  58.520  1.00  0.00    -0.183 NA
HETATM   21  N   UNL     1       7.390  31.023  58.647  1.00  0.00    -0.268 N 
HETATM   22  C   UNL     1       6.948  30.045  57.770  1.00  0.00     0.052 A 
BRANCH  21  23
HETATM   23  C   UNL     1       8.412  30.914  59.691  1.00  0.00     0.106 C 
HETATM   24  C   UNL     1       7.833  31.150  61.089  1.00  0.00     0.034 C 
BRANCH  23  25
HETATM   25  C   UNL     1       9.662  31.762  59.389  1.00  0.00     0.022 C 
HETATM   26  C   UNL     1      10.399  31.425  58.099  1.00  0.00     0.007 C 
ENDBRANCH  23  25
ENDBRANCH  21  23
BRANCH  22  27
HETATM   27  C   UNL     1       7.536  28.632  57.685  1.00  0.00     0.038 A 
HETATM   28  C   UNL     1       7.919  28.019  56.359  1.00  0.00     0.011 A 
HETATM   29  C   UNL     1       8.986  28.418  57.321  1.00  0.00     0.011 A 
ENDBRANCH  22  27
ENDBRANCH   1  18
TORSDOF 10
ENDMDL
MODEL 10
REMARK VINA RESULT:      -7.8      2.719      9.836
REMARK  10 active torsions:
REMARK  status: ('A' for Active; 'I' for Inactive)
REMARK    1  A    between atoms: C_2  and  C_3 
REMARK    2  A    between atoms: C_3  and  N_4 
REMARK    3  A    between atoms: C_7  and  C_8 
REMARK       I    between atoms: C_8  and  N_9 
REMARK    4  A    between atoms: N_9  and  C_10 
REMARK    5  A    between atoms: C_10  and  C_11 
REMARK    6  A    between atoms: C_11  and  O_12 
REMARK    7  A    between atoms: C_11  and  C_13 
REMARK    8  A    between atoms: C_13  and  O_14 
REMARK    9  A    between atoms: O_14  and  C_15 
REMARK   10  A    between atoms: C_23  and  C_24 
ROOT
HETATM    1  C   UNL     1       9.290  31.483  59.011  1.00  0.00     0.255 C 
HETATM    2  N   UNL     1       9.124  30.218  58.508  1.00  0.00    -0.354 N 
HETATM    3  O   UNL     1      10.135  32.264  58.589  1.00  0.00    -0.268 OA
HETATM    4  H   UNL     1       8.357  29.653  58.851  1.00  0.00     0.162 HD
ENDROOT
BRANCH   2   5
HETATM    5  C   UNL     1       9.764  29.804  57.273  1.00  0.00     0.156 C 
BRANCH   5   6
HETATM    6  C   UNL     1       8.915  28.806  56.485  1.00  0.00     0.160 C 
BRANCH   6   7
HETATM    7  O   UNL     1       8.039  29.531  55.605  1.00  0.00    -0.392 OA
HETATM    8  H   UNL     1       7.280  29.805  56.157  1.00  0.00     0.210 HD
ENDBRANCH   6   7
BRANCH   6   9
HETATM    9  C   UNL     1       8.081  27.909  57.405  1.00  0.00     0.209 C 
BRANCH   9  10
HETATM   10  O   UNL     1       7.238  27.106  56.570  1.00  0.00    -0.349 OA
BRANCH  10  11
HETATM   11  C   UNL     1       7.680  25.843  56.287  1.00  0.00     0.069 A 
HETATM   12  C   UNL     1       7.433  25.419  54.977  1.00  0.00     0.043 A 
HETATM   13  C   UNL     1       7.826  24.145  54.545  1.00  0.00    -0.059 A 
HETATM   14  C   UNL     1       7.554  23.690  53.142  1.00  0.00     0.048 C 
HETATM   15  C   UNL     1       8.452  23.285  55.453  1.00  0.00     0.007 A 
HETATM   16  C   UNL     1       8.698  23.700  56.760  1.00  0.00     0.003 A 
HETATM   17  C   UNL     1       8.317  24.978  57.177  1.00  0.00     0.037 A 
ENDBRANCH  10  11
ENDBRANCH   9  10
ENDBRANCH   6   9
ENDBRANCH   5   6
ENDBRANCH   2   5
BRANCH   1  18
HETATM   18  C   UNL     1       8.454  31.804  60.147  1.00  0.00     0.075 A 
HETATM   19  C   UNL     1       8.925  31.832  61.478  1.00  0.00     0.158 A 
HETATM   20  N   UNL     1       8.009  32.243  62.346  1.00  0.00    -0.183 NA
HETATM   21  N   UNL     1       6.956  32.573  61.571  1.00  0.00    -0.268 N 
HETATM   22  C   UNL     1       7.144  32.264  60.233  1.00  0.00     0.052 A 
BRANCH  21  23
HETATM   23  C   UNL     1       5.814  33.243  62.198  1.00  0.00     0.106 C 
HETATM   24  C   UNL     1       6.068  34.740  62.403  1.00  0.00     0.034 C 
BRANCH  23  25
HETATM   25  C   UNL     1       5.324  32.520  63.466  1.00  0.00     0.022 C 
HETATM   26  C   UNL     1       5.227  33.374  64.724  1.00  0.00     0.007 C 
ENDBRANCH  23  25
ENDBRANCH  21  23
BRANCH  22  27
HETATM   27  C   UNL     1       6.104  32.513  59.135  1.00  0.00     0.038 A 
HETATM   28  C   UNL     1       5.659  31.406  58.209  1.00  0.00     0.011 A 
HETATM   29  C   UNL     1       4.715  31.930  59.238  1.00  0.00     0.011 A 
ENDBRANCH  22  27
ENDBRANCH   1  18
TORSDOF 10
ENDMDL
