MODEL 1
REMARK VINA RESULT:     -10.1      0.000      0.000
REMARK  8 active torsions:
REMARK  status: ('A' for Active; 'I' for Inactive)
REMARK    1  A    between atoms: O_2  and  C_3 
REMARK    2  A    between atoms: C_4  and  O_5 
REMARK    3  A    between atoms: C_8  and  C_9 
REMARK    4  A    between atoms: C_9  and  C_10 
REMARK    5  A    between atoms: C_10  and  N_11 
REMARK       I    between atoms: N_11  and  C_12 
REMARK    6  A    between atoms: C_12  and  C_13 
REMARK    7  A    between atoms: C_13  and  S_14 
REMARK    8  A    between atoms: S_14  and  C_15 
ROOT
HETATM    1  N   UNL     1       7.927  30.077  59.610  1.00  0.00    -0.360 N 
HETATM    2  C   UNL     1       8.298  29.549  58.395  1.00  0.00     0.227 C 
HETATM    3  O   UNL     1       9.426  29.682  57.924  1.00  0.00    -0.273 OA
HETATM    4  H   UNL     1       6.937  30.069  59.860  1.00  0.00     0.162 HD
ENDROOT
BRANCH   2   5
HETATM    5  C   UNL     1       7.225  28.727  57.702  1.00  0.00     0.185 C 
BRANCH   5   6
HETATM    6  S   UNL     1       7.800  27.053  57.306  1.00  0.00    -0.080 SA
BRANCH   6   7
HETATM    7  C   UNL     1       7.509  26.979  55.600  1.00  0.00     0.197 A 
HETATM    8  N   UNL     1       7.622  25.874  54.773  1.00  0.00    -0.271 N 
HETATM    9  C   UNL     1       7.441  26.408  53.497  1.00  0.00     0.159 A 
HETATM   10  C   UNL     1       7.849  24.484  54.993  1.00  0.00     0.053 A 
HETATM   11  C   UNL     1       7.554  25.575  52.360  1.00  0.00     0.054 A 
HETATM   12  N   UNL     1       7.170  27.693  53.575  1.00  0.00    -0.129 NA
HETATM   13  C   UNL     1       7.803  24.267  52.501  1.00  0.00     0.017 A 
HETATM   14  C   UNL     1       7.942  23.676  53.837  1.00  0.00    -0.009 A 
HETATM   15  C   UNL     1       8.158  22.298  53.962  1.00  0.00     0.014 A 
HETATM   16  C   UNL     1       8.268  21.719  55.225  1.00  0.00     0.001 A 
HETATM   17  C   UNL     1       8.160  22.514  56.364  1.00  0.00     0.002 A 
HETATM   18  C   UNL     1       7.950  23.892  56.253  1.00  0.00     0.031 A 
HETATM   19  N   UNL     1       7.203  28.045  54.892  1.00  0.00    -0.122 NA
ENDBRANCH   6   7
ENDBRANCH   5   6
ENDBRANCH   2   5
BRANCH   1  20
HETATM   20  C   UNL     1       8.845  30.788  60.471  1.00  0.00     0.127 C 
BRANCH  20  21
HETATM   21  C   UNL     1       8.529  32.280  60.602  1.00  0.00     0.058 C 
BRANCH  21  22
HETATM   22  C   UNL     1       7.572  32.517  61.748  1.00  0.00    -0.054 A 
HETATM   23  C   UNL     1       6.183  32.468  61.533  1.00  0.00     0.046 A 
HETATM   24  C   UNL     1       5.289  32.604  62.600  1.00  0.00     0.102 A 
HETATM   25  C   UNL     1       5.799  32.766  63.898  1.00  0.00     0.101 A 
HETATM   26  C   UNL     1       7.177  32.853  64.115  1.00  0.00     0.040 A 
HETATM   27  C   UNL     1       8.060  32.723  63.044  1.00  0.00     0.010 A 
BRANCH  24  28
HETATM   28  O   UNL     1       3.923  32.549  62.488  1.00  0.00    -0.353 OA
HETATM   29  C   UNL     1       3.309  33.463  61.592  1.00  0.00     0.210 C 
ENDBRANCH  24  28
BRANCH  25  30
HETATM   30  O   UNL     1       4.910  32.898  64.938  1.00  0.00    -0.353 OA
HETATM   31  C   UNL     1       5.290  33.929  65.847  1.00  0.00     0.210 C 
ENDBRANCH  25  30
ENDBRANCH  21  22
ENDBRANCH  20  21
ENDBRANCH   1  20
TORSDOF 8
ENDMDL
MODEL 2
REMARK VINA RESULT:      -9.8      1.389      2.554
REMARK  8 active torsions:
REMARK  status: ('A' for Active; 'I' for Inactive)
REMARK    1  A    between atoms: O_2  and  C_3 
REMARK    2  A    between atoms: C_4  and  O_5 
REMARK    3  A    between atoms: C_8  and  C_9 
REMARK    4  A    between atoms: C_9  and  C_10 
REMARK    5  A    between atoms: C_10  and  N_11 
REMARK       I    between atoms: N_11  and  C_12 
REMARK    6  A    between atoms: C_12  and  C_13 
REMARK    7  A    between atoms: C_13  and  S_14 
REMARK    8  A    between atoms: S_14  and  C_15 
ROOT
HETATM    1  N   UNL     1       8.017  30.192  59.673  1.00  0.00    -0.360 N 
HETATM    2  C   UNL     1       7.622  29.930  58.382  1.00  0.00     0.227 C 
HETATM    3  O   UNL     1       6.859  30.662  57.754  1.00  0.00    -0.273 OA
HETATM    4  H   UNL     1       8.514  29.462  60.186  1.00  0.00     0.162 HD
ENDROOT
BRANCH   2   5
HETATM    5  C   UNL     1       8.251  28.695  57.760  1.00  0.00     0.185 C 
BRANCH   5   6
HETATM    6  S   UNL     1       7.011  27.601  57.017  1.00  0.00    -0.080 SA
BRANCH   6   7
HETATM    7  C   UNL     1       7.821  26.071  57.068  1.00  0.00     0.197 A 
HETATM    8  N   UNL     1       7.976  25.164  56.032  1.00  0.00    -0.271 N 
HETATM    9  C   UNL     1       8.545  24.055  56.659  1.00  0.00     0.159 A 
HETATM   10  C   UNL     1       7.699  25.191  54.634  1.00  0.00     0.053 A 
HETATM   11  C   UNL     1       8.795  22.877  55.918  1.00  0.00     0.054 A 
HETATM   12  N   UNL     1       8.771  24.316  57.928  1.00  0.00    -0.129 NA
HETATM   13  C   UNL     1       8.521  22.828  54.609  1.00  0.00     0.017 A 
HETATM   14  C   UNL     1       7.974  24.003  53.920  1.00  0.00    -0.009 A 
HETATM   15  C   UNL     1       7.737  23.945  52.541  1.00  0.00     0.014 A 
HETATM   16  C   UNL     1       7.241  25.060  51.869  1.00  0.00     0.001 A 
HETATM   17  C   UNL     1       6.985  26.236  52.571  1.00  0.00     0.002 A 
HETATM   18  C   UNL     1       7.212  26.306  53.949  1.00  0.00     0.031 A 
HETATM   19  N   UNL     1       8.327  25.580  58.179  1.00  0.00    -0.122 NA
ENDBRANCH   6   7
ENDBRANCH   5   6
ENDBRANCH   2   5
BRANCH   1  20
HETATM   20  C   UNL     1       7.617  31.382  60.391  1.00  0.00     0.127 C 
BRANCH  20  21
HETATM   21  C   UNL     1       8.347  31.568  61.723  1.00  0.00     0.058 C 
BRANCH  21  22
HETATM   22  C   UNL     1       7.447  32.253  62.726  1.00  0.00    -0.054 A 
HETATM   23  C   UNL     1       6.053  32.247  62.548  1.00  0.00     0.046 A 
HETATM   24  C   UNL     1       5.205  32.806  63.511  1.00  0.00     0.102 A 
HETATM   25  C   UNL     1       5.767  33.354  64.674  1.00  0.00     0.101 A 
HETATM   26  C   UNL     1       7.154  33.399  64.842  1.00  0.00     0.040 A 
HETATM   27  C   UNL     1       7.991  32.844  63.873  1.00  0.00     0.010 A 
BRANCH  24  28
HETATM   28  O   UNL     1       3.837  32.827  63.430  1.00  0.00    -0.353 OA
HETATM   29  C   UNL     1       3.260  33.572  62.368  1.00  0.00     0.210 C 
ENDBRANCH  24  28
BRANCH  25  30
HETATM   30  O   UNL     1       4.924  33.900  65.613  1.00  0.00    -0.353 OA
HETATM   31  C   UNL     1       5.607  34.249  66.815  1.00  0.00     0.210 C 
ENDBRANCH  25  30
ENDBRANCH  21  22
ENDBRANCH  20  21
ENDBRANCH   1  20
TORSDOF 8
ENDMDL
MODEL 3
REMARK VINA RESULT:      -9.3      1.947      2.651
REMARK  8 active torsions:
REMARK  status: ('A' for Active; 'I' for Inactive)
REMARK    1  A    between atoms: O_2  and  C_3 
REMARK    2  A    between atoms: C_4  and  O_5 
REMARK    3  A    between atoms: C_8  and  C_9 
REMARK    4  A    between atoms: C_9  and  C_10 
REMARK    5  A    between atoms: C_10  and  N_11 
REMARK       I    between atoms: N_11  and  C_12 
REMARK    6  A    between atoms: C_12  and  C_13 
REMARK    7  A    between atoms: C_13  and  S_14 
REMARK    8  A    between atoms: S_14  and  C_15 
ROOT
HETATM    1  N   UNL     1       8.716  28.067  57.217  1.00  0.00    -0.360 N 
HETATM    2  C   UNL     1       7.466  27.600  57.549  1.00  0.00     0.227 C 
HETATM    3  O   UNL     1       6.504  28.343  57.739  1.00  0.00    -0.273 OA
HETATM    4  H   UNL     1       9.500  27.412  57.238  1.00  0.00     0.162 HD
ENDROOT
BRANCH   2   5
HETATM    5  C   UNL     1       7.342  26.087  57.602  1.00  0.00     0.185 C 
BRANCH   5   6
HETATM    6  S   UNL     1       5.720  25.518  57.025  1.00  0.00    -0.080 SA
BRANCH   6   7
HETATM    7  C   UNL     1       5.822  25.841  55.326  1.00  0.00     0.197 A 
HETATM    8  N   UNL     1       6.486  25.097  54.365  1.00  0.00    -0.271 N 
HETATM    9  C   UNL     1       6.385  25.888  53.220  1.00  0.00     0.159 A 
HETATM   10  C   UNL     1       7.146  23.834  54.362  1.00  0.00     0.053 A 
HETATM   11  C   UNL     1       7.013  25.479  52.021  1.00  0.00     0.054 A 
HETATM   12  N   UNL     1       5.663  26.959  53.469  1.00  0.00    -0.129 NA
HETATM   13  C   UNL     1       7.680  24.319  51.967  1.00  0.00     0.017 A 
HETATM   14  C   UNL     1       7.751  23.447  53.145  1.00  0.00    -0.009 A 
HETATM   15  C   UNL     1       8.416  22.218  53.053  1.00  0.00     0.014 A 
HETATM   16  C   UNL     1       8.470  21.369  54.157  1.00  0.00     0.001 A 
HETATM   17  C   UNL     1       7.860  21.743  55.351  1.00  0.00     0.002 A 
HETATM   18  C   UNL     1       7.198  22.970  55.459  1.00  0.00     0.031 A 
HETATM   19  N   UNL     1       5.304  26.922  54.783  1.00  0.00    -0.122 NA
ENDBRANCH   6   7
ENDBRANCH   5   6
ENDBRANCH   2   5
BRANCH   1  20
HETATM   20  C   UNL     1       9.001  29.469  57.004  1.00  0.00     0.127 C 
BRANCH  20  21
HETATM   21  C   UNL     1       9.839  30.099  58.119  1.00  0.00     0.058 C 
BRANCH  21  22
HETATM   22  C   UNL     1       8.943  30.759  59.142  1.00  0.00    -0.054 A 
HETATM   23  C   UNL     1       7.745  31.377  58.743  1.00  0.00     0.046 A 
HETATM   24  C   UNL     1       6.868  31.918  59.690  1.00  0.00     0.102 A 
HETATM   25  C   UNL     1       7.189  31.813  61.052  1.00  0.00     0.101 A 
HETATM   26  C   UNL     1       8.396  31.234  61.455  1.00  0.00     0.040 A 
HETATM   27  C   UNL     1       9.266  30.702  60.504  1.00  0.00     0.010 A 
BRANCH  24  28
HETATM   28  O   UNL     1       5.672  32.519  59.394  1.00  0.00    -0.353 OA
HETATM   29  C   UNL     1       4.927  31.984  58.310  1.00  0.00     0.210 C 
ENDBRANCH  24  28
BRANCH  25  30
HETATM   30  O   UNL     1       6.320  32.347  61.972  1.00  0.00    -0.353 OA
HETATM   31  C   UNL     1       6.905  33.420  62.709  1.00  0.00     0.210 C 
ENDBRANCH  25  30
ENDBRANCH  21  22
ENDBRANCH  20  21
ENDBRANCH   1  20
TORSDOF 8
ENDMDL
MODEL 4
REMARK VINA RESULT:      -9.1      3.250     10.668
REMARK  8 active torsions:
REMARK  status: ('A' for Active; 'I' for Inactive)
REMARK    1  A    between atoms: O_2  and  C_3 
REMARK    2  A    between atoms: C_4  and  O_5 
REMARK    3  A    between atoms: C_8  and  C_9 
REMARK    4  A    between atoms: C_9  and  C_10 
REMARK    5  A    between atoms: C_10  and  N_11 
REMARK       I    between atoms: N_11  and  C_12 
REMARK    6  A    between atoms: C_12  and  C_13 
REMARK    7  A    between atoms: C_13  and  S_14 
REMARK    8  A    between atoms: S_14  and  C_15 
ROOT
HETATM    1  N   UNL     1       8.680  28.816  57.634  1.00  0.00    -0.360 N 
HETATM    2  C   UNL     1       9.638  29.765  57.364  1.00  0.00     0.227 C 
HETATM    3  O   UNL     1      10.295  29.775  56.324  1.00  0.00    -0.273 OA
HETATM    4  H   UNL     1       8.294  28.771  58.578  1.00  0.00     0.162 HD
ENDROOT
BRANCH   2   5
HETATM    5  C   UNL     1       9.782  30.846  58.421  1.00  0.00     0.185 C 
BRANCH   5   6
HETATM    6  S   UNL     1       8.674  30.570  59.829  1.00  0.00    -0.080 SA
BRANCH   6   7
HETATM    7  C   UNL     1       7.367  31.646  59.460  1.00  0.00     0.197 A 
HETATM    8  N   UNL     1       6.670  32.459  60.339  1.00  0.00    -0.271 N 
HETATM    9  C   UNL     1       5.637  32.970  59.553  1.00  0.00     0.159 A 
HETATM   10  C   UNL     1       6.830  32.810  61.711  1.00  0.00     0.053 A 
HETATM   11  C   UNL     1       4.658  33.809  60.132  1.00  0.00     0.054 A 
HETATM   12  N   UNL     1       5.762  32.555  58.311  1.00  0.00    -0.129 NA
HETATM   13  C   UNL     1       4.733  34.145  61.426  1.00  0.00     0.017 A 
HETATM   14  C   UNL     1       5.843  33.662  62.256  1.00  0.00    -0.009 A 
HETATM   15  C   UNL     1       5.926  34.062  63.596  1.00  0.00     0.014 A 
HETATM   16  C   UNL     1       6.987  33.631  64.389  1.00  0.00     0.001 A 
HETATM   17  C   UNL     1       7.968  32.804  63.847  1.00  0.00     0.002 A 
HETATM   18  C   UNL     1       7.894  32.392  62.512  1.00  0.00     0.031 A 
HETATM   19  N   UNL     1       6.850  31.736  58.253  1.00  0.00    -0.122 NA
ENDBRANCH   6   7
ENDBRANCH   5   6
ENDBRANCH   2   5
BRANCH   1  20
HETATM   20  C   UNL     1       8.317  27.777  56.696  1.00  0.00     0.127 C 
BRANCH  20  21
HETATM   21  C   UNL     1       7.813  26.496  57.366  1.00  0.00     0.058 C 
BRANCH  21  22
HETATM   22  C   UNL     1       7.934  25.324  56.420  1.00  0.00    -0.054 A 
HETATM   23  C   UNL     1       7.268  25.338  55.183  1.00  0.00     0.046 A 
HETATM   24  C   UNL     1       7.439  24.296  54.265  1.00  0.00     0.102 A 
HETATM   25  C   UNL     1       8.309  23.242  54.587  1.00  0.00     0.101 A 
HETATM   26  C   UNL     1       8.946  23.201  55.831  1.00  0.00     0.040 A 
HETATM   27  C   UNL     1       8.764  24.242  56.742  1.00  0.00     0.010 A 
BRANCH  24  28
HETATM   28  O   UNL     1       6.846  24.237  53.030  1.00  0.00    -0.353 OA
HETATM   29  C   UNL     1       7.270  25.185  52.061  1.00  0.00     0.210 C 
ENDBRANCH  24  28
BRANCH  25  30
HETATM   30  O   UNL     1       8.469  22.225  53.678  1.00  0.00    -0.353 OA
HETATM   31  C   UNL     1       8.260  20.940  54.261  1.00  0.00     0.210 C 
ENDBRANCH  25  30
ENDBRANCH  21  22
ENDBRANCH  20  21
ENDBRANCH   1  20
TORSDOF 8
ENDMDL
MODEL 5
REMARK VINA RESULT:      -9.1      3.042     10.317
REMARK  8 active torsions:
REMARK  status: ('A' for Active; 'I' for Inactive)
REMARK    1  A    between atoms: O_2  and  C_3 
REMARK    2  A    between atoms: C_4  and  O_5 
REMARK    3  A    between atoms: C_8  and  C_9 
REMARK    4  A    between atoms: C_9  and  C_10 
REMARK    5  A    between atoms: C_10  and  N_11 
REMARK       I    between atoms: N_11  and  C_12 
REMARK    6  A    between atoms: C_12  and  C_13 
REMARK    7  A    between atoms: C_13  and  S_14 
REMARK    8  A    between atoms: S_14  and  C_15 
ROOT
HETATM    1  N   UNL     1       7.499  27.683  53.906  1.00  0.00    -0.360 N 
HETATM    2  C   UNL     1       7.446  27.928  55.259  1.00  0.00     0.227 C 
HETATM    3  O   UNL     1       6.762  27.260  56.033  1.00  0.00    -0.273 OA
HETATM    4  H   UNL     1       7.953  28.374  53.306  1.00  0.00     0.162 HD
ENDROOT
BRANCH   2   5
HETATM    5  C   UNL     1       8.350  29.049  55.741  1.00  0.00     0.185 C 
BRANCH   5   6
HETATM    6  S   UNL     1       8.284  29.249  57.542  1.00  0.00    -0.080 SA
BRANCH   6   7
HETATM    7  C   UNL     1       7.065  30.468  57.713  1.00  0.00     0.197 A 
HETATM    8  N   UNL     1       6.815  31.260  58.822  1.00  0.00    -0.271 N 
HETATM    9  C   UNL     1       5.641  31.931  58.478  1.00  0.00     0.159 A 
HETATM   10  C   UNL     1       7.478  31.472  60.065  1.00  0.00     0.053 A 
HETATM   11  C   UNL     1       5.027  32.802  59.408  1.00  0.00     0.054 A 
HETATM   12  N   UNL     1       5.279  31.619  57.252  1.00  0.00    -0.129 NA
HETATM   13  C   UNL     1       5.583  33.014  60.607  1.00  0.00     0.017 A 
HETATM   14  C   UNL     1       6.847  32.359  60.966  1.00  0.00    -0.009 A 
HETATM   15  C   UNL     1       7.434  32.630  62.208  1.00  0.00     0.014 A 
HETATM   16  C   UNL     1       8.646  32.035  62.553  1.00  0.00     0.001 A 
HETATM   17  C   UNL     1       9.275  31.173  61.658  1.00  0.00     0.002 A 
HETATM   18  C   UNL     1       8.697  30.890  60.417  1.00  0.00     0.031 A 
HETATM   19  N   UNL     1       6.177  30.712  56.773  1.00  0.00    -0.122 NA
ENDBRANCH   6   7
ENDBRANCH   5   6
ENDBRANCH   2   5
BRANCH   1  20
HETATM   20  C   UNL     1       6.801  26.583  53.279  1.00  0.00     0.127 C 
BRANCH  20  21
HETATM   21  C   UNL     1       7.733  25.555  52.633  1.00  0.00     0.058 C 
BRANCH  21  22
HETATM   22  C   UNL     1       7.828  24.317  53.494  1.00  0.00    -0.054 A 
HETATM   23  C   UNL     1       7.970  24.430  54.888  1.00  0.00     0.046 A 
HETATM   24  C   UNL     1       7.977  23.293  55.702  1.00  0.00     0.102 A 
HETATM   25  C   UNL     1       7.814  22.031  55.109  1.00  0.00     0.101 A 
HETATM   26  C   UNL     1       7.711  21.906  53.720  1.00  0.00     0.040 A 
HETATM   27  C   UNL     1       7.711  23.046  52.916  1.00  0.00     0.010 A 
BRANCH  24  28
HETATM   28  O   UNL     1       8.090  23.311  57.069  1.00  0.00    -0.353 OA
HETATM   29  C   UNL     1       8.861  24.355  57.643  1.00  0.00     0.210 C 
ENDBRANCH  24  28
BRANCH  25  30
HETATM   30  O   UNL     1       7.822  20.922  55.920  1.00  0.00    -0.353 OA
HETATM   31  C   UNL     1       9.111  20.316  55.994  1.00  0.00     0.210 C 
ENDBRANCH  25  30
ENDBRANCH  21  22
ENDBRANCH  20  21
ENDBRANCH   1  20
TORSDOF 8
ENDMDL
MODEL 6
REMARK VINA RESULT:      -9.0      2.886     10.955
REMARK  8 active torsions:
REMARK  status: ('A' for Active; 'I' for Inactive)
REMARK    1  A    between atoms: O_2  and  C_3 
REMARK    2  A    between atoms: C_4  and  O_5 
REMARK    3  A    between atoms: C_8  and  C_9 
REMARK    4  A    between atoms: C_9  and  C_10 
REMARK    5  A    between atoms: C_10  and  N_11 
REMARK       I    between atoms: N_11  and  C_12 
REMARK    6  A    between atoms: C_12  and  C_13 
REMARK    7  A    between atoms: C_13  and  S_14 
REMARK    8  A    between atoms: S_14  and  C_15 
ROOT
HETATM    1  N   UNL     1       7.012  28.346  55.318  1.00  0.00    -0.360 N 
HETATM    2  C   UNL     1       7.434  28.376  56.627  1.00  0.00     0.227 C 
HETATM    3  O   UNL     1       8.504  27.895  56.995  1.00  0.00    -0.273 OA
HETATM    4  H   UNL     1       6.048  28.613  55.113  1.00  0.00     0.162 HD
ENDROOT
BRANCH   2   5
HETATM    5  C   UNL     1       6.506  29.108  57.580  1.00  0.00     0.185 C 
BRANCH   5   6
HETATM    6  S   UNL     1       6.996  30.838  57.811  1.00  0.00    -0.080 SA
BRANCH   6   7
HETATM    7  C   UNL     1       7.712  30.790  59.387  1.00  0.00     0.197 A 
HETATM    8  N   UNL     1       7.422  31.604  60.470  1.00  0.00    -0.271 N 
HETATM    9  C   UNL     1       8.392  31.248  61.408  1.00  0.00     0.159 A 
HETATM   10  C   UNL     1       6.429  32.590  60.738  1.00  0.00     0.053 A 
HETATM   11  C   UNL     1       8.459  31.927  62.646  1.00  0.00     0.054 A 
HETATM   12  N   UNL     1       9.133  30.264  60.946  1.00  0.00    -0.129 NA
HETATM   13  C   UNL     1       7.576  32.889  62.941  1.00  0.00     0.017 A 
HETATM   14  C   UNL     1       6.514  33.239  61.990  1.00  0.00    -0.009 A 
HETATM   15  C   UNL     1       5.574  34.217  62.337  1.00  0.00     0.014 A 
HETATM   16  C   UNL     1       4.546  34.543  61.455  1.00  0.00     0.001 A 
HETATM   17  C   UNL     1       4.453  33.892  60.227  1.00  0.00     0.002 A 
HETATM   18  C   UNL     1       5.388  32.917  59.865  1.00  0.00     0.031 A 
HETATM   19  N   UNL     1       8.700  29.973  59.687  1.00  0.00    -0.122 NA
ENDBRANCH   6   7
ENDBRANCH   5   6
ENDBRANCH   2   5
BRANCH   1  20
HETATM   20  C   UNL     1       7.813  27.798  54.246  1.00  0.00     0.127 C 
BRANCH  20  21
HETATM   21  C   UNL     1       7.036  26.860  53.319  1.00  0.00     0.058 C 
BRANCH  21  22
HETATM   22  C   UNL     1       7.441  25.424  53.563  1.00  0.00    -0.054 A 
HETATM   23  C   UNL     1       7.688  24.969  54.870  1.00  0.00     0.046 A 
HETATM   24  C   UNL     1       7.983  23.624  55.116  1.00  0.00     0.102 A 
HETATM   25  C   UNL     1       8.004  22.725  54.038  1.00  0.00     0.101 A 
HETATM   26  C   UNL     1       7.797  23.176  52.732  1.00  0.00     0.040 A 
HETATM   27  C   UNL     1       7.510  24.520  52.496  1.00  0.00     0.010 A 
BRANCH  24  28
HETATM   28  O   UNL     1       8.217  23.089  56.357  1.00  0.00    -0.353 OA
HETATM   29  C   UNL     1       8.678  23.973  57.368  1.00  0.00     0.210 C 
ENDBRANCH  24  28
BRANCH  25  30
HETATM   30  O   UNL     1       8.295  21.406  54.293  1.00  0.00    -0.353 OA
HETATM   31  C   UNL     1       8.446  20.645  53.097  1.00  0.00     0.210 C 
ENDBRANCH  25  30
ENDBRANCH  21  22
ENDBRANCH  20  21
ENDBRANCH   1  20
TORSDOF 8
ENDMDL
MODEL 7
REMARK VINA RESULT:      -8.7      5.451      9.900
REMARK  8 active torsions:
REMARK  status: ('A' for Active; 'I' for Inactive)
REMARK    1  A    between atoms: O_2  and  C_3 
REMARK    2  A    between atoms: C_4  and  O_5 
REMARK    3  A    between atoms: C_8  and  C_9 
REMARK    4  A    between atoms: C_9  and  C_10 
REMARK    5  A    between atoms: C_10  and  N_11 
REMARK       I    between atoms: N_11  and  C_12 
REMARK    6  A    between atoms: C_12  and  C_13 
REMARK    7  A    between atoms: C_13  and  S_14 
REMARK    8  A    between atoms: S_14  and  C_15 
ROOT
HETATM    1  N   UNL     1       5.387  29.596  53.829  1.00  0.00    -0.360 N 
HETATM    2  C   UNL     1       4.820  29.049  54.958  1.00  0.00     0.227 C 
HETATM    3  O   UNL     1       3.684  28.581  54.975  1.00  0.00    -0.273 OA
HETATM    4  H   UNL     1       6.263  30.112  53.928  1.00  0.00     0.162 HD
ENDROOT
BRANCH   2   5
HETATM    5  C   UNL     1       5.731  29.006  56.172  1.00  0.00     0.185 C 
BRANCH   5   6
HETATM    6  S   UNL     1       7.459  28.700  55.716  1.00  0.00    -0.080 SA
BRANCH   6   7
HETATM    7  C   UNL     1       7.771  27.198  56.522  1.00  0.00     0.197 A 
HETATM    8  N   UNL     1       7.767  25.928  55.970  1.00  0.00    -0.271 N 
HETATM    9  C   UNL     1       7.910  25.095  57.081  1.00  0.00     0.159 A 
HETATM   10  C   UNL     1       7.668  25.419  54.643  1.00  0.00     0.053 A 
HETATM   11  C   UNL     1       7.884  23.691  56.918  1.00  0.00     0.054 A 
HETATM   12  N   UNL     1       8.060  25.814  58.173  1.00  0.00    -0.129 NA
HETATM   13  C   UNL     1       7.756  23.152  55.699  1.00  0.00     0.017 A 
HETATM   14  C   UNL     1       7.659  24.011  54.513  1.00  0.00    -0.009 A 
HETATM   15  C   UNL     1       7.571  23.427  53.244  1.00  0.00     0.014 A 
HETATM   16  C   UNL     1       7.503  24.229  52.107  1.00  0.00     0.001 A 
HETATM   17  C   UNL     1       7.527  25.616  52.235  1.00  0.00     0.002 A 
HETATM   18  C   UNL     1       7.610  26.214  53.496  1.00  0.00     0.031 A 
HETATM   19  N   UNL     1       7.983  27.128  57.820  1.00  0.00    -0.122 NA
ENDBRANCH   6   7
ENDBRANCH   5   6
ENDBRANCH   2   5
BRANCH   1  20
HETATM   20  C   UNL     1       4.719  29.618  52.547  1.00  0.00     0.127 C 
BRANCH  20  21
HETATM   21  C   UNL     1       5.528  28.964  51.424  1.00  0.00     0.058 C 
BRANCH  21  22
HETATM   22  C   UNL     1       4.611  28.220  50.480  1.00  0.00    -0.054 A 
HETATM   23  C   UNL     1       3.407  28.805  50.051  1.00  0.00     0.046 A 
HETATM   24  C   UNL     1       2.592  28.161  49.114  1.00  0.00     0.102 A 
HETATM   25  C   UNL     1       3.005  26.928  48.587  1.00  0.00     0.101 A 
HETATM   26  C   UNL     1       4.181  26.321  49.037  1.00  0.00     0.040 A 
HETATM   27  C   UNL     1       4.985  26.968  49.975  1.00  0.00     0.010 A 
BRANCH  24  28
HETATM   28  O   UNL     1       1.414  28.666  48.625  1.00  0.00    -0.353 OA
HETATM   29  C   UNL     1       1.494  29.830  47.815  1.00  0.00     0.210 C 
ENDBRANCH  24  28
BRANCH  25  30
HETATM   30  O   UNL     1       2.195  26.305  47.668  1.00  0.00    -0.353 OA
HETATM   31  C   UNL     1       2.811  25.152  47.098  1.00  0.00     0.210 C 
ENDBRANCH  25  30
ENDBRANCH  21  22
ENDBRANCH  20  21
ENDBRANCH   1  20
TORSDOF 8
ENDMDL
MODEL 8
REMARK VINA RESULT:      -8.7      7.812     11.354
REMARK  8 active torsions:
REMARK  status: ('A' for Active; 'I' for Inactive)
REMARK    1  A    between atoms: O_2  and  C_3 
REMARK    2  A    between atoms: C_4  and  O_5 
REMARK    3  A    between atoms: C_8  and  C_9 
REMARK    4  A    between atoms: C_9  and  C_10 
REMARK    5  A    between atoms: C_10  and  N_11 
REMARK       I    between atoms: N_11  and  C_12 
REMARK    6  A    between atoms: C_12  and  C_13 
REMARK    7  A    between atoms: C_13  and  S_14 
REMARK    8  A    between atoms: S_14  and  C_15 
ROOT
HETATM    1  N   UNL     1       5.282  28.382  50.708  1.00  0.00    -0.360 N 
HETATM    2  C   UNL     1       5.172  27.041  50.997  1.00  0.00     0.227 C 
HETATM    3  O   UNL     1       5.135  26.172  50.128  1.00  0.00    -0.273 OA
HETATM    4  H   UNL     1       5.141  29.054  51.464  1.00  0.00     0.162 HD
ENDROOT
BRANCH   2   5
HETATM    5  C   UNL     1       5.165  26.705  52.478  1.00  0.00     0.185 C 
BRANCH   5   6
HETATM    6  S   UNL     1       5.502  24.949  52.778  1.00  0.00    -0.080 SA
BRANCH   6   7
HETATM    7  C   UNL     1       6.284  25.004  54.324  1.00  0.00     0.197 A 
HETATM    8  N   UNL     1       7.054  24.016  54.914  1.00  0.00    -0.271 N 
HETATM    9  C   UNL     1       7.284  24.513  56.197  1.00  0.00     0.159 A 
HETATM   10  C   UNL     1       7.579  22.766  54.475  1.00  0.00     0.053 A 
HETATM   11  C   UNL     1       7.998  23.735  57.138  1.00  0.00     0.054 A 
HETATM   12  N   UNL     1       6.762  25.714  56.322  1.00  0.00    -0.129 NA
HETATM   13  C   UNL     1       8.484  22.535  56.796  1.00  0.00     0.017 A 
HETATM   14  C   UNL     1       8.300  22.019  55.434  1.00  0.00    -0.009 A 
HETATM   15  C   UNL     1       8.855  20.782  55.085  1.00  0.00     0.014 A 
HETATM   16  C   UNL     1       8.709  20.291  53.789  1.00  0.00     0.001 A 
HETATM   17  C   UNL     1       8.012  21.034  52.840  1.00  0.00     0.002 A 
HETATM   18  C   UNL     1       7.448  22.269  53.176  1.00  0.00     0.031 A 
HETATM   19  N   UNL     1       6.146  26.023  55.146  1.00  0.00    -0.122 NA
ENDBRANCH   6   7
ENDBRANCH   5   6
ENDBRANCH   2   5
BRANCH   1  20
HETATM   20  C   UNL     1       5.422  28.887  49.361  1.00  0.00     0.127 C 
BRANCH  20  21
HETATM   21  C   UNL     1       4.327  29.880  48.962  1.00  0.00     0.058 C 
BRANCH  21  22
HETATM   22  C   UNL     1       3.269  29.191  48.132  1.00  0.00    -0.054 A 
HETATM   23  C   UNL     1       3.411  27.837  47.782  1.00  0.00     0.046 A 
HETATM   24  C   UNL     1       2.400  27.168  47.084  1.00  0.00     0.102 A 
HETATM   25  C   UNL     1       1.224  27.863  46.758  1.00  0.00     0.101 A 
HETATM   26  C   UNL     1       1.091  29.219  47.068  1.00  0.00     0.040 A 
HETATM   27  C   UNL     1       2.107  29.879  47.759  1.00  0.00     0.010 A 
BRANCH  24  28
HETATM   28  O   UNL     1       2.443  25.846  46.720  1.00  0.00    -0.353 OA
HETATM   29  C   UNL     1       3.063  24.944  47.625  1.00  0.00     0.210 C 
ENDBRANCH  24  28
BRANCH  25  30
HETATM   30  O   UNL     1       0.239  27.194  46.072  1.00  0.00    -0.353 OA
HETATM   31  C   UNL     1      -0.812  28.063  45.652  1.00  0.00     0.210 C 
ENDBRANCH  25  30
ENDBRANCH  21  22
ENDBRANCH  20  21
ENDBRANCH   1  20
TORSDOF 8
ENDMDL
MODEL 9
REMARK VINA RESULT:      -8.6      3.743      9.695
REMARK  8 active torsions:
REMARK  status: ('A' for Active; 'I' for Inactive)
REMARK    1  A    between atoms: O_2  and  C_3 
REMARK    2  A    between atoms: C_4  and  O_5 
REMARK    3  A    between atoms: C_8  and  C_9 
REMARK    4  A    between atoms: C_9  and  C_10 
REMARK    5  A    between atoms: C_10  and  N_11 
REMARK       I    between atoms: N_11  and  C_12 
REMARK    6  A    between atoms: C_12  and  C_13 
REMARK    7  A    between atoms: C_13  and  S_14 
REMARK    8  A    between atoms: S_14  and  C_15 
ROOT
HETATM    1  N   UNL     1       5.706  28.616  53.775  1.00  0.00    -0.360 N 
HETATM    2  C   UNL     1       4.690  29.422  54.238  1.00  0.00     0.227 C 
HETATM    3  O   UNL     1       3.555  29.404  53.766  1.00  0.00    -0.273 OA
HETATM    4  H   UNL     1       6.657  28.800  54.099  1.00  0.00     0.162 HD
ENDROOT
BRANCH   2   5
HETATM    5  C   UNL     1       5.059  30.294  55.426  1.00  0.00     0.185 C 
BRANCH   5   6
HETATM    6  S   UNL     1       5.531  29.308  56.872  1.00  0.00    -0.080 SA
BRANCH   6   7
HETATM    7  C   UNL     1       7.251  29.211  56.681  1.00  0.00     0.197 A 
HETATM    8  N   UNL     1       8.216  29.924  57.373  1.00  0.00    -0.271 N 
HETATM    9  C   UNL     1       9.398  29.586  56.713  1.00  0.00     0.159 A 
HETATM   10  C   UNL     1       8.194  30.806  58.492  1.00  0.00     0.053 A 
HETATM   11  C   UNL     1      10.620  30.182  57.102  1.00  0.00     0.054 A 
HETATM   12  N   UNL     1       9.157  28.698  55.772  1.00  0.00    -0.129 NA
HETATM   13  C   UNL     1      10.656  31.048  58.123  1.00  0.00     0.017 A 
HETATM   14  C   UNL     1       9.433  31.375  58.865  1.00  0.00    -0.009 A 
HETATM   15  C   UNL     1       9.501  32.248  59.957  1.00  0.00     0.014 A 
HETATM   16  C   UNL     1       8.353  32.548  60.686  1.00  0.00     0.001 A 
HETATM   17  C   UNL     1       7.134  31.976  60.327  1.00  0.00     0.002 A 
HETATM   18  C   UNL     1       7.050  31.106  59.235  1.00  0.00     0.031 A 
HETATM   19  N   UNL     1       7.815  28.458  55.761  1.00  0.00    -0.122 NA
ENDBRANCH   6   7
ENDBRANCH   5   6
ENDBRANCH   2   5
BRANCH   1  20
HETATM   20  C   UNL     1       5.516  27.636  52.730  1.00  0.00     0.127 C 
BRANCH  20  21
HETATM   21  C   UNL     1       4.962  26.301  53.236  1.00  0.00     0.058 C 
BRANCH  21  22
HETATM   22  C   UNL     1       6.093  25.370  53.610  1.00  0.00    -0.054 A 
HETATM   23  C   UNL     1       6.384  25.116  54.962  1.00  0.00     0.046 A 
HETATM   24  C   UNL     1       7.373  24.194  55.320  1.00  0.00     0.102 A 
HETATM   25  C   UNL     1       8.058  23.503  54.307  1.00  0.00     0.101 A 
HETATM   26  C   UNL     1       7.800  23.778  52.961  1.00  0.00     0.040 A 
HETATM   27  C   UNL     1       6.816  24.703  52.614  1.00  0.00     0.010 A 
BRANCH  24  28
HETATM   28  O   UNL     1       7.710  23.869  56.609  1.00  0.00    -0.353 OA
HETATM   29  C   UNL     1       8.529  24.788  57.317  1.00  0.00     0.210 C 
ENDBRANCH  24  28
BRANCH  25  30
HETATM   30  O   UNL     1       9.027  22.600  54.672  1.00  0.00    -0.353 OA
HETATM   31  C   UNL     1       8.904  21.363  53.972  1.00  0.00     0.210 C 
ENDBRANCH  25  30
ENDBRANCH  21  22
ENDBRANCH  20  21
ENDBRANCH   1  20
TORSDOF 8
ENDMDL
MODEL 10
REMARK VINA RESULT:      -8.6      1.877      2.474
REMARK  8 active torsions:
REMARK  status: ('A' for Active; 'I' for Inactive)
REMARK    1  A    between atoms: O_2  and  C_3 
REMARK    2  A    between atoms: C_4  and  O_5 
REMARK    3  A    between atoms: C_8  and  C_9 
REMARK    4  A    between atoms: C_9  and  C_10 
REMARK    5  A    between atoms: C_10  and  N_11 
REMARK       I    between atoms: N_11  and  C_12 
REMARK    6  A    between atoms: C_12  and  C_13 
REMARK    7  A    between atoms: C_13  and  S_14 
REMARK    8  A    between atoms: S_14  and  C_15 
ROOT
HETATM    1  N   UNL     1       7.695  28.890  57.140  1.00  0.00    -0.360 N 
HETATM    2  C   UNL     1       6.509  29.310  56.584  1.00  0.00     0.227 C 
HETATM    3  O   UNL     1       5.669  29.955  57.209  1.00  0.00    -0.273 OA
HETATM    4  H   UNL     1       8.266  28.223  56.618  1.00  0.00     0.162 HD
ENDROOT
BRANCH   2   5
HETATM    5  C   UNL     1       6.339  28.974  55.113  1.00  0.00     0.185 C 
BRANCH   5   6
HETATM    6  S   UNL     1       4.904  27.905  54.821  1.00  0.00    -0.080 SA
BRANCH   6   7
HETATM    7  C   UNL     1       5.459  26.930  53.501  1.00  0.00     0.197 A 
HETATM    8  N   UNL     1       6.353  25.873  53.551  1.00  0.00    -0.271 N 
HETATM    9  C   UNL     1       6.566  25.568  52.206  1.00  0.00     0.159 A 
HETATM   10  C   UNL     1       6.985  25.151  54.605  1.00  0.00     0.053 A 
HETATM   11  C   UNL     1       7.491  24.561  51.848  1.00  0.00     0.054 A 
HETATM   12  N   UNL     1       5.808  26.325  51.442  1.00  0.00    -0.129 NA
HETATM   13  C   UNL     1       8.143  23.873  52.794  1.00  0.00     0.017 A 
HETATM   14  C   UNL     1       7.893  24.141  54.215  1.00  0.00    -0.009 A 
HETATM   15  C   UNL     1       8.552  23.379  55.187  1.00  0.00     0.014 A 
HETATM   16  C   UNL     1       8.306  23.606  56.539  1.00  0.00     0.001 A 
HETATM   17  C   UNL     1       7.399  24.591  56.923  1.00  0.00     0.002 A 
HETATM   18  C   UNL     1       6.737  25.363  55.963  1.00  0.00     0.031 A 
HETATM   19  N   UNL     1       5.109  27.168  52.255  1.00  0.00    -0.122 NA
ENDBRANCH   6   7
ENDBRANCH   5   6
ENDBRANCH   2   5
BRANCH   1  20
HETATM   20  C   UNL     1       8.088  29.216  58.493  1.00  0.00     0.127 C 
BRANCH  20  21
HETATM   21  C   UNL     1       8.917  30.499  58.597  1.00  0.00     0.058 C 
BRANCH  21  22
HETATM   22  C   UNL     1       8.444  31.338  59.763  1.00  0.00    -0.054 A 
HETATM   23  C   UNL     1       7.184  31.960  59.724  1.00  0.00     0.046 A 
HETATM   24  C   UNL     1       6.702  32.671  60.828  1.00  0.00     0.102 A 
HETATM   25  C   UNL     1       7.486  32.733  61.991  1.00  0.00     0.101 A 
HETATM   26  C   UNL     1       8.755  32.149  62.025  1.00  0.00     0.040 A 
HETATM   27  C   UNL     1       9.230  31.448  60.916  1.00  0.00     0.010 A 
BRANCH  24  28
HETATM   28  O   UNL     1       5.480  33.291  60.886  1.00  0.00    -0.353 OA
HETATM   29  C   UNL     1       4.329  32.460  60.861  1.00  0.00     0.210 C 
ENDBRANCH  24  28
BRANCH  25  30
HETATM   30  O   UNL     1       7.001  33.434  63.069  1.00  0.00    -0.353 OA
HETATM   31  C   UNL     1       7.636  33.056  64.289  1.00  0.00     0.210 C 
ENDBRANCH  25  30
ENDBRANCH  21  22
ENDBRANCH  20  21
ENDBRANCH   1  20
TORSDOF 8
ENDMDL
