MODEL 1
REMARK VINA RESULT:      -9.8      0.000      0.000
REMARK  3 active torsions:
REMARK  status: ('A' for Active; 'I' for Inactive)
REMARK    1  A    between atoms: C_6  and  C_7 
REMARK       I    between atoms: C_7  and  N_8 
REMARK    2  A    between atoms: N_8  and  C_9 
REMARK    3  A    between atoms: C_14  and  C_15 
ROOT
HETATM    1  C   UNL     1       7.446  28.639  57.724  1.00  0.00     0.037 A 
HETATM    2  C   UNL     1       7.628  27.253  57.812  1.00  0.00     0.061 A 
HETATM    3  C   UNL     1       7.596  26.526  56.617  1.00  0.00     0.065 A 
HETATM    4  C   UNL     1       7.386  27.104  55.371  1.00  0.00     0.086 A 
HETATM    5  N   UNL     1       7.399  26.156  54.378  1.00  0.00    -0.226 NA
HETATM    6  C   UNL     1       7.620  25.012  54.994  1.00  0.00     0.163 A 
HETATM    7  N   UNL     1       7.745  25.191  56.346  1.00  0.00    -0.337 N 
HETATM    8  H   UNL     1       7.918  24.454  57.015  1.00  0.00     0.167 HD
HETATM    9  C   UNL     1       7.200  28.490  55.291  1.00  0.00     0.036 A 
HETATM   10  C   UNL     1       7.235  29.244  56.475  1.00  0.00     0.032 A 
ENDROOT
BRANCH   1  11
HETATM   11  N   UNL     1       7.455  29.486  58.849  1.00  0.00    -0.321 N 
HETATM   12  C   UNL     1       8.488  30.294  59.285  1.00  0.00     0.280 C 
HETATM   13  O   UNL     1       9.575  30.493  58.768  1.00  0.00    -0.265 OA
HETATM   14  H   UNL     1       6.591  29.569  59.377  1.00  0.00     0.169 HD
BRANCH  12  15
HETATM   15  C   UNL     1       8.137  31.038  60.561  1.00  0.00     0.193 A 
HETATM   16  C   UNL     1       8.868  30.759  61.862  1.00  0.00     0.280 A 
HETATM   17  N   UNL     1       8.490  31.565  62.907  1.00  0.00    -0.324 N 
HETATM   18  O   UNL     1       9.687  29.861  61.971  1.00  0.00    -0.265 OA
HETATM   19  C   UNL     1       7.492  32.502  62.794  1.00  0.00     0.033 A 
HETATM   20  H   UNL     1       8.967  31.408  63.786  1.00  0.00     0.169 HD
HETATM   21  C   UNL     1       7.186  33.295  64.033  1.00  0.00     0.070 C 
HETATM   22  C   UNL     1       6.853  32.645  61.610  1.00  0.00     0.054 A 
HETATM   23  N   UNL     1       7.160  31.908  60.482  1.00  0.00    -0.241 NA
HETATM   24  C   UNL     1       5.753  33.653  61.384  1.00  0.00     0.072 C 
ENDBRANCH  12  15
ENDBRANCH   1  11
BRANCH   6  25
HETATM   25  C   UNL     1       7.727  23.730  54.376  1.00  0.00     0.120 A 
HETATM   26  O   UNL     1       7.677  22.556  55.087  1.00  0.00    -0.319 OA
HETATM   27  C   UNL     1       7.813  21.535  54.203  1.00  0.00     0.142 A 
HETATM   28  C   UNL     1       7.947  22.019  52.925  1.00  0.00     0.027 A 
HETATM   29  C   UNL     1       7.893  23.429  53.035  1.00  0.00     0.043 A 
ENDBRANCH   6  25
TORSDOF 3
ENDMDL
MODEL 2
REMARK VINA RESULT:      -9.8      1.761      2.440
REMARK  3 active torsions:
REMARK  status: ('A' for Active; 'I' for Inactive)
REMARK    1  A    between atoms: C_6  and  C_7 
REMARK       I    between atoms: C_7  and  N_8 
REMARK    2  A    between atoms: N_8  and  C_9 
REMARK    3  A    between atoms: C_14  and  C_15 
ROOT
HETATM    1  C   UNL     1       7.010  27.317  57.002  1.00  0.00     0.037 A 
HETATM    2  C   UNL     1       7.835  26.186  57.019  1.00  0.00     0.061 A 
HETATM    3  C   UNL     1       7.582  25.195  56.064  1.00  0.00     0.065 A 
HETATM    4  C   UNL     1       6.563  25.277  55.124  1.00  0.00     0.086 A 
HETATM    5  N   UNL     1       6.542  24.164  54.318  1.00  0.00    -0.226 NA
HETATM    6  C   UNL     1       7.535  23.410  54.745  1.00  0.00     0.163 A 
HETATM    7  N   UNL     1       8.188  23.995  55.798  1.00  0.00    -0.337 N 
HETATM    8  H   UNL     1       8.980  23.597  56.282  1.00  0.00     0.167 HD
HETATM    9  C   UNL     1       5.738  26.409  55.115  1.00  0.00     0.036 A 
HETATM   10  C   UNL     1       5.975  27.421  56.059  1.00  0.00     0.032 A 
ENDROOT
BRANCH   1  11
HETATM   11  N   UNL     1       7.156  28.385  57.909  1.00  0.00    -0.321 N 
HETATM   12  C   UNL     1       7.991  29.481  57.790  1.00  0.00     0.280 C 
HETATM   13  O   UNL     1       8.724  29.787  56.864  1.00  0.00    -0.265 OA
HETATM   14  H   UNL     1       6.543  28.398  58.719  1.00  0.00     0.169 HD
BRANCH  12  15
HETATM   15  C   UNL     1       7.898  30.407  58.988  1.00  0.00     0.193 A 
HETATM   16  C   UNL     1       6.990  31.624  58.975  1.00  0.00     0.280 A 
HETATM   17  N   UNL     1       6.958  32.319  60.158  1.00  0.00    -0.324 N 
HETATM   18  O   UNL     1       6.382  31.973  57.977  1.00  0.00    -0.265 OA
HETATM   19  C   UNL     1       7.730  31.971  61.241  1.00  0.00     0.033 A 
HETATM   20  H   UNL     1       6.354  33.131  60.182  1.00  0.00     0.169 HD
HETATM   21  C   UNL     1       7.591  32.841  62.458  1.00  0.00     0.070 C 
HETATM   22  C   UNL     1       8.555  30.904  61.146  1.00  0.00     0.054 A 
HETATM   23  N   UNL     1       8.657  30.115  60.016  1.00  0.00    -0.241 NA
HETATM   24  C   UNL     1       9.432  30.437  62.282  1.00  0.00     0.072 C 
ENDBRANCH  12  15
ENDBRANCH   1  11
BRANCH   6  25
HETATM   25  C   UNL     1       7.919  22.144  54.211  1.00  0.00     0.120 A 
HETATM   26  O   UNL     1       8.415  21.127  54.992  1.00  0.00    -0.319 OA
HETATM   27  C   UNL     1       8.682  20.077  54.176  1.00  0.00     0.142 A 
HETATM   28  C   UNL     1       8.367  20.384  52.875  1.00  0.00     0.027 A 
HETATM   29  C   UNL     1       7.879  21.712  52.897  1.00  0.00     0.043 A 
ENDBRANCH   6  25
TORSDOF 3
ENDMDL
MODEL 3
REMARK VINA RESULT:      -9.4      1.876      9.853
REMARK  3 active torsions:
REMARK  status: ('A' for Active; 'I' for Inactive)
REMARK    1  A    between atoms: C_6  and  C_7 
REMARK       I    between atoms: C_7  and  N_8 
REMARK    2  A    between atoms: N_8  and  C_9 
REMARK    3  A    between atoms: C_14  and  C_15 
ROOT
HETATM    1  C   UNL     1       7.444  27.300  56.205  1.00  0.00     0.037 A 
HETATM    2  C   UNL     1       7.826  27.521  57.535  1.00  0.00     0.061 A 
HETATM    3  C   UNL     1       7.654  28.813  58.043  1.00  0.00     0.065 A 
HETATM    4  C   UNL     1       7.140  29.869  57.302  1.00  0.00     0.086 A 
HETATM    5  N   UNL     1       7.087  31.020  58.050  1.00  0.00    -0.226 NA
HETATM    6  C   UNL     1       7.552  30.683  59.236  1.00  0.00     0.163 A 
HETATM    7  N   UNL     1       7.905  29.360  59.275  1.00  0.00    -0.337 N 
HETATM    8  H   UNL     1       8.284  28.885  60.081  1.00  0.00     0.167 HD
HETATM    9  C   UNL     1       6.764  29.642  55.971  1.00  0.00     0.036 A 
HETATM   10  C   UNL     1       6.920  28.352  55.438  1.00  0.00     0.032 A 
ENDROOT
BRANCH   1  11
HETATM   11  N   UNL     1       7.567  26.049  55.572  1.00  0.00    -0.321 N 
HETATM   12  C   UNL     1       6.547  25.215  55.152  1.00  0.00     0.280 C 
HETATM   13  O   UNL     1       5.342  25.405  55.183  1.00  0.00    -0.265 OA
HETATM   14  H   UNL     1       8.503  25.734  55.335  1.00  0.00     0.169 HD
BRANCH  12  15
HETATM   15  C   UNL     1       7.070  23.929  54.540  1.00  0.00     0.193 A 
HETATM   16  C   UNL     1       7.418  23.844  53.064  1.00  0.00     0.280 A 
HETATM   17  N   UNL     1       7.950  22.638  52.678  1.00  0.00    -0.324 N 
HETATM   18  O   UNL     1       7.196  24.758  52.288  1.00  0.00    -0.265 OA
HETATM   19  C   UNL     1       8.098  21.583  53.545  1.00  0.00     0.033 A 
HETATM   20  H   UNL     1       8.200  22.555  51.700  1.00  0.00     0.169 HD
HETATM   21  C   UNL     1       8.682  20.327  52.965  1.00  0.00     0.070 C 
HETATM   22  C   UNL     1       7.708  21.729  54.832  1.00  0.00     0.054 A 
HETATM   23  N   UNL     1       7.180  22.899  55.343  1.00  0.00    -0.241 NA
HETATM   24  C   UNL     1       7.839  20.633  55.862  1.00  0.00     0.072 C 
ENDBRANCH  12  15
ENDBRANCH   1  11
BRANCH   6  25
HETATM   25  C   UNL     1       7.685  31.547  60.364  1.00  0.00     0.120 A 
HETATM   26  O   UNL     1       6.803  32.565  60.630  1.00  0.00    -0.319 OA
HETATM   27  C   UNL     1       7.221  33.186  61.761  1.00  0.00     0.142 A 
HETATM   28  C   UNL     1       8.360  32.591  62.244  1.00  0.00     0.027 A 
HETATM   29  C   UNL     1       8.660  31.539  61.346  1.00  0.00     0.043 A 
ENDBRANCH   6  25
TORSDOF 3
ENDMDL
MODEL 4
REMARK VINA RESULT:      -9.2      2.623      9.676
REMARK  3 active torsions:
REMARK  status: ('A' for Active; 'I' for Inactive)
REMARK    1  A    between atoms: C_6  and  C_7 
REMARK       I    between atoms: C_7  and  N_8 
REMARK    2  A    between atoms: N_8  and  C_9 
REMARK    3  A    between atoms: C_14  and  C_15 
ROOT
HETATM    1  C   UNL     1       7.600  27.710  56.817  1.00  0.00     0.037 A 
HETATM    2  C   UNL     1       6.408  28.341  57.196  1.00  0.00     0.061 A 
HETATM    3  C   UNL     1       6.512  29.609  57.778  1.00  0.00     0.065 A 
HETATM    4  C   UNL     1       7.721  30.254  58.003  1.00  0.00     0.086 A 
HETATM    5  N   UNL     1       7.526  31.481  58.590  1.00  0.00    -0.226 NA
HETATM    6  C   UNL     1       6.220  31.597  58.721  1.00  0.00     0.163 A 
HETATM    7  N   UNL     1       5.571  30.490  58.244  1.00  0.00    -0.337 N 
HETATM    8  H   UNL     1       4.569  30.361  58.241  1.00  0.00     0.167 HD
HETATM    9  C   UNL     1       8.910  29.616  57.626  1.00  0.00     0.036 A 
HETATM   10  C   UNL     1       8.833  28.345  57.033  1.00  0.00     0.032 A 
ENDROOT
BRANCH   1  11
HETATM   11  N   UNL     1       7.635  26.434  56.224  1.00  0.00    -0.321 N 
HETATM   12  C   UNL     1       8.140  25.267  56.767  1.00  0.00     0.280 C 
HETATM   13  O   UNL     1       8.602  25.079  57.881  1.00  0.00    -0.265 OA
HETATM   14  H   UNL     1       7.189  26.328  55.317  1.00  0.00     0.169 HD
BRANCH  12  15
HETATM   15  C   UNL     1       8.033  24.094  55.810  1.00  0.00     0.193 A 
HETATM   16  C   UNL     1       7.979  24.305  54.308  1.00  0.00     0.280 A 
HETATM   17  N   UNL     1       7.960  23.145  53.574  1.00  0.00    -0.324 N 
HETATM   18  O   UNL     1       7.911  25.415  53.807  1.00  0.00    -0.265 OA
HETATM   19  C   UNL     1       7.934  21.901  54.158  1.00  0.00     0.033 A 
HETATM   20  H   UNL     1       7.933  23.254  52.568  1.00  0.00     0.169 HD
HETATM   21  C   UNL     1       7.900  20.730  53.218  1.00  0.00     0.070 C 
HETATM   22  C   UNL     1       7.927  21.807  55.507  1.00  0.00     0.054 A 
HETATM   23  N   UNL     1       7.966  22.901  56.350  1.00  0.00    -0.241 NA
HETATM   24  C   UNL     1       7.909  20.488  56.240  1.00  0.00     0.072 C 
ENDBRANCH  12  15
ENDBRANCH   1  11
BRANCH   6  25
HETATM   25  C   UNL     1       5.526  32.713  59.278  1.00  0.00     0.120 A 
HETATM   26  O   UNL     1       5.627  33.067  60.601  1.00  0.00    -0.319 OA
HETATM   27  C   UNL     1       4.844  34.158  60.796  1.00  0.00     0.142 A 
HETATM   28  C   UNL     1       4.235  34.529  59.622  1.00  0.00     0.027 A 
HETATM   29  C   UNL     1       4.671  33.601  58.647  1.00  0.00     0.043 A 
ENDBRANCH   6  25
TORSDOF 3
ENDMDL
MODEL 5
REMARK VINA RESULT:      -9.1      2.324      2.595
REMARK  3 active torsions:
REMARK  status: ('A' for Active; 'I' for Inactive)
REMARK    1  A    between atoms: C_6  and  C_7 
REMARK       I    between atoms: C_7  and  N_8 
REMARK    2  A    between atoms: N_8  and  C_9 
REMARK    3  A    between atoms: C_14  and  C_15 
ROOT
HETATM    1  C   UNL     1       7.511  29.695  58.094  1.00  0.00     0.037 A 
HETATM    2  C   UNL     1       6.405  29.051  57.524  1.00  0.00     0.061 A 
HETATM    3  C   UNL     1       6.612  28.371  56.319  1.00  0.00     0.065 A 
HETATM    4  C   UNL     1       7.838  28.313  55.669  1.00  0.00     0.086 A 
HETATM    5  N   UNL     1       7.749  27.584  54.508  1.00  0.00    -0.226 NA
HETATM    6  C   UNL     1       6.494  27.190  54.443  1.00  0.00     0.163 A 
HETATM    7  N   UNL     1       5.773  27.644  55.516  1.00  0.00    -0.337 N 
HETATM    8  H   UNL     1       4.791  27.463  55.673  1.00  0.00     0.167 HD
HETATM    9  C   UNL     1       8.939  28.963  56.242  1.00  0.00     0.036 A 
HETATM   10  C   UNL     1       8.760  29.647  57.455  1.00  0.00     0.032 A 
ENDROOT
BRANCH   1  11
HETATM   11  N   UNL     1       7.439  30.416  59.301  1.00  0.00    -0.321 N 
HETATM   12  C   UNL     1       7.092  31.743  59.469  1.00  0.00     0.280 C 
HETATM   13  O   UNL     1       6.721  32.549  58.631  1.00  0.00    -0.265 OA
HETATM   14  H   UNL     1       7.599  29.901  60.162  1.00  0.00     0.169 HD
BRANCH  12  15
HETATM   15  C   UNL     1       7.161  32.177  60.922  1.00  0.00     0.193 A 
HETATM   16  C   UNL     1       8.371  31.859  61.782  1.00  0.00     0.280 A 
HETATM   17  N   UNL     1       8.317  32.383  63.049  1.00  0.00    -0.324 N 
HETATM   18  O   UNL     1       9.287  31.157  61.386  1.00  0.00    -0.265 OA
HETATM   19  C   UNL     1       7.231  33.086  63.513  1.00  0.00     0.033 A 
HETATM   20  H   UNL     1       9.115  32.195  63.643  1.00  0.00     0.169 HD
HETATM   21  C   UNL     1       7.321  33.582  64.928  1.00  0.00     0.070 C 
HETATM   22  C   UNL     1       6.170  33.274  62.696  1.00  0.00     0.054 A 
HETATM   23  N   UNL     1       6.118  32.813  61.394  1.00  0.00    -0.241 NA
HETATM   24  C   UNL     1       4.938  34.040  63.109  1.00  0.00     0.072 C 
ENDBRANCH  12  15
ENDBRANCH   1  11
BRANCH   6  25
HETATM   25  C   UNL     1       5.914  26.393  53.411  1.00  0.00     0.120 A 
HETATM   26  O   UNL     1       5.851  26.802  52.101  1.00  0.00    -0.319 OA
HETATM   27  C   UNL     1       5.242  25.819  51.392  1.00  0.00     0.142 A 
HETATM   28  C   UNL     1       4.908  24.770  52.213  1.00  0.00     0.027 A 
HETATM   29  C   UNL     1       5.338  25.138  53.510  1.00  0.00     0.043 A 
ENDBRANCH   6  25
TORSDOF 3
ENDMDL
MODEL 6
REMARK VINA RESULT:      -9.1      3.033      9.704
REMARK  3 active torsions:
REMARK  status: ('A' for Active; 'I' for Inactive)
REMARK    1  A    between atoms: C_6  and  C_7 
REMARK       I    between atoms: C_7  and  N_8 
REMARK    2  A    between atoms: N_8  and  C_9 
REMARK    3  A    between atoms: C_14  and  C_15 
ROOT
HETATM    1  C   UNL     1       7.483  29.176  55.955  1.00  0.00     0.037 A 
HETATM    2  C   UNL     1       6.678  29.777  56.931  1.00  0.00     0.061 A 
HETATM    3  C   UNL     1       7.314  30.249  58.084  1.00  0.00     0.065 A 
HETATM    4  C   UNL     1       8.682  30.143  58.305  1.00  0.00     0.086 A 
HETATM    5  N   UNL     1       9.030  30.685  59.518  1.00  0.00    -0.226 NA
HETATM    6  C   UNL     1       7.902  31.126  60.037  1.00  0.00     0.163 A 
HETATM    7  N   UNL     1       6.842  30.883  59.204  1.00  0.00    -0.337 N 
HETATM    8  H   UNL     1       5.883  31.135  59.396  1.00  0.00     0.167 HD
HETATM    9  C   UNL     1       9.481  29.538  57.327  1.00  0.00     0.036 A 
HETATM   10  C   UNL     1       8.867  29.061  56.157  1.00  0.00     0.032 A 
ENDROOT
BRANCH   1  11
HETATM   11  N   UNL     1       6.969  28.658  54.751  1.00  0.00    -0.321 N 
HETATM   12  C   UNL     1       6.444  27.397  54.534  1.00  0.00     0.280 C 
HETATM   13  O   UNL     1       6.260  26.497  55.337  1.00  0.00    -0.265 OA
HETATM   14  H   UNL     1       6.915  29.288  53.956  1.00  0.00     0.169 HD
BRANCH  12  15
HETATM   15  C   UNL     1       6.020  27.191  53.092  1.00  0.00     0.193 A 
HETATM   16  C   UNL     1       6.676  26.133  52.222  1.00  0.00     0.280 A 
HETATM   17  N   UNL     1       6.132  26.017  50.967  1.00  0.00    -0.324 N 
HETATM   18  O   UNL     1       7.635  25.480  52.600  1.00  0.00    -0.265 OA
HETATM   19  C   UNL     1       5.119  26.831  50.522  1.00  0.00     0.033 A 
HETATM   20  H   UNL     1       6.544  25.313  50.367  1.00  0.00     0.169 HD
HETATM   21  C   UNL     1       4.643  26.587  49.118  1.00  0.00     0.070 C 
HETATM   22  C   UNL     1       4.632  27.787  51.345  1.00  0.00     0.054 A 
HETATM   23  N   UNL     1       5.083  27.986  52.636  1.00  0.00    -0.241 NA
HETATM   24  C   UNL     1       3.515  28.722  50.952  1.00  0.00     0.072 C 
ENDBRANCH  12  15
ENDBRANCH   1  11
BRANCH   6  25
HETATM   25  C   UNL     1       7.754  31.781  61.296  1.00  0.00     0.120 A 
HETATM   26  O   UNL     1       6.648  32.529  61.620  1.00  0.00    -0.319 OA
HETATM   27  C   UNL     1       6.831  33.009  62.876  1.00  0.00     0.142 A 
HETATM   28  C   UNL     1       8.034  32.585  63.383  1.00  0.00     0.027 A 
HETATM   29  C   UNL     1       8.628  31.797  62.369  1.00  0.00     0.043 A 
ENDBRANCH   6  25
TORSDOF 3
ENDMDL
MODEL 7
REMARK VINA RESULT:      -8.8      3.754      9.881
REMARK  3 active torsions:
REMARK  status: ('A' for Active; 'I' for Inactive)
REMARK    1  A    between atoms: C_6  and  C_7 
REMARK       I    between atoms: C_7  and  N_8 
REMARK    2  A    between atoms: N_8  and  C_9 
REMARK    3  A    between atoms: C_14  and  C_15 
ROOT
HETATM    1  C   UNL     1       5.351  27.231  55.271  1.00  0.00     0.037 A 
HETATM    2  C   UNL     1       5.421  27.720  56.582  1.00  0.00     0.061 A 
HETATM    3  C   UNL     1       4.828  28.962  56.834  1.00  0.00     0.065 A 
HETATM    4  C   UNL     1       4.193  29.722  55.860  1.00  0.00     0.086 A 
HETATM    5  N   UNL     1       3.708  30.895  56.386  1.00  0.00    -0.226 NA
HETATM    6  C   UNL     1       4.029  30.860  57.663  1.00  0.00     0.163 A 
HETATM    7  N   UNL     1       4.706  29.710  57.975  1.00  0.00    -0.337 N 
HETATM    8  H   UNL     1       5.048  29.471  58.895  1.00  0.00     0.167 HD
HETATM    9  C   UNL     1       4.131  29.230  54.550  1.00  0.00     0.036 A 
HETATM   10  C   UNL     1       4.713  27.982  54.272  1.00  0.00     0.032 A 
ENDROOT
BRANCH   1  11
HETATM   11  N   UNL     1       5.909  25.998  54.884  1.00  0.00    -0.321 N 
HETATM   12  C   UNL     1       7.101  25.443  55.309  1.00  0.00     0.280 C 
HETATM   13  O   UNL     1       7.887  25.865  56.142  1.00  0.00    -0.265 OA
HETATM   14  H   UNL     1       5.356  25.408  54.268  1.00  0.00     0.169 HD
BRANCH  12  15
HETATM   15  C   UNL     1       7.387  24.110  54.642  1.00  0.00     0.193 A 
HETATM   16  C   UNL     1       7.626  24.014  53.145  1.00  0.00     0.280 A 
HETATM   17  N   UNL     1       7.946  22.754  52.704  1.00  0.00    -0.324 N 
HETATM   18  O   UNL     1       7.497  24.972  52.401  1.00  0.00    -0.265 OA
HETATM   19  C   UNL     1       7.987  21.666  53.542  1.00  0.00     0.033 A 
HETATM   20  H   UNL     1       8.120  22.661  51.711  1.00  0.00     0.169 HD
HETATM   21  C   UNL     1       8.340  20.353  52.902  1.00  0.00     0.070 C 
HETATM   22  C   UNL     1       7.704  21.833  54.853  1.00  0.00     0.054 A 
HETATM   23  N   UNL     1       7.390  23.054  55.418  1.00  0.00    -0.241 NA
HETATM   24  C   UNL     1       7.732  20.702  55.853  1.00  0.00     0.072 C 
ENDBRANCH  12  15
ENDBRANCH   1  11
BRANCH   6  25
HETATM   25  C   UNL     1       3.729  31.862  58.634  1.00  0.00     0.120 A 
HETATM   26  O   UNL     1       3.026  31.597  59.785  1.00  0.00    -0.319 OA
HETATM   27  C   UNL     1       2.915  32.759  60.475  1.00  0.00     0.142 A 
HETATM   28  C   UNL     1       3.536  33.781  59.800  1.00  0.00     0.027 A 
HETATM   29  C   UNL     1       4.058  33.206  58.617  1.00  0.00     0.043 A 
ENDBRANCH   6  25
TORSDOF 3
ENDMDL
MODEL 8
REMARK VINA RESULT:      -8.5      2.291      9.604
REMARK  3 active torsions:
REMARK  status: ('A' for Active; 'I' for Inactive)
REMARK    1  A    between atoms: C_6  and  C_7 
REMARK       I    between atoms: C_7  and  N_8 
REMARK    2  A    between atoms: N_8  and  C_9 
REMARK    3  A    between atoms: C_14  and  C_15 
ROOT
HETATM    1  C   UNL     1       8.359  28.670  57.394  1.00  0.00     0.037 A 
HETATM    2  C   UNL     1       7.227  29.123  58.084  1.00  0.00     0.061 A 
HETATM    3  C   UNL     1       7.342  30.334  58.774  1.00  0.00     0.065 A 
HETATM    4  C   UNL     1       8.507  31.090  58.814  1.00  0.00     0.086 A 
HETATM    5  N   UNL     1       8.335  32.226  59.567  1.00  0.00    -0.226 NA
HETATM    6  C   UNL     1       7.085  32.181  59.981  1.00  0.00     0.163 A 
HETATM    7  N   UNL     1       6.450  31.055  59.525  1.00  0.00    -0.337 N 
HETATM    8  H   UNL     1       5.488  30.814  59.718  1.00  0.00     0.167 HD
HETATM    9  C   UNL     1       9.636  30.629  58.125  1.00  0.00     0.036 A 
HETATM   10  C   UNL     1       9.546  29.418  57.418  1.00  0.00     0.032 A 
ENDROOT
BRANCH   1  11
HETATM   11  N   UNL     1       8.378  27.467  56.663  1.00  0.00    -0.321 N 
HETATM   12  C   UNL     1       7.328  26.590  56.457  1.00  0.00     0.280 C 
HETATM   13  O   UNL     1       6.164  26.696  56.807  1.00  0.00    -0.265 OA
HETATM   14  H   UNL     1       9.237  27.231  56.174  1.00  0.00     0.169 HD
BRANCH  12  15
HETATM   15  C   UNL     1       7.742  25.379  55.642  1.00  0.00     0.193 A 
HETATM   16  C   UNL     1       8.336  24.149  56.305  1.00  0.00     0.280 A 
HETATM   17  N   UNL     1       8.588  23.110  55.444  1.00  0.00    -0.324 N 
HETATM   18  O   UNL     1       8.608  24.116  57.494  1.00  0.00    -0.265 OA
HETATM   19  C   UNL     1       8.372  23.201  54.091  1.00  0.00     0.033 A 
HETATM   20  H   UNL     1       8.977  22.272  55.860  1.00  0.00     0.169 HD
HETATM   21  C   UNL     1       8.711  21.981  53.283  1.00  0.00     0.070 C 
HETATM   22  C   UNL     1       7.892  24.357  53.577  1.00  0.00     0.054 A 
HETATM   23  N   UNL     1       7.581  25.463  54.344  1.00  0.00    -0.241 NA
HETATM   24  C   UNL     1       7.613  24.551  52.107  1.00  0.00     0.072 C 
ENDBRANCH  12  15
ENDBRANCH   1  11
BRANCH   6  25
HETATM   25  C   UNL     1       6.433  33.154  60.796  1.00  0.00     0.120 A 
HETATM   26  O   UNL     1       5.247  33.748  60.439  1.00  0.00    -0.319 OA
HETATM   27  C   UNL     1       4.910  34.618  61.424  1.00  0.00     0.142 A 
HETATM   28  C   UNL     1       5.853  34.602  62.423  1.00  0.00     0.027 A 
HETATM   29  C   UNL     1       6.832  33.663  62.019  1.00  0.00     0.043 A 
ENDBRANCH   6  25
TORSDOF 3
ENDMDL
MODEL 9
REMARK VINA RESULT:      -8.4      6.897     10.040
REMARK  3 active torsions:
REMARK  status: ('A' for Active; 'I' for Inactive)
REMARK    1  A    between atoms: C_6  and  C_7 
REMARK       I    between atoms: C_7  and  N_8 
REMARK    2  A    between atoms: N_8  and  C_9 
REMARK    3  A    between atoms: C_14  and  C_15 
ROOT
HETATM    1  C   UNL     1       5.452  26.333  52.336  1.00  0.00     0.037 A 
HETATM    2  C   UNL     1       5.374  26.412  50.940  1.00  0.00     0.061 A 
HETATM    3  C   UNL     1       4.636  27.470  50.399  1.00  0.00     0.065 A 
HETATM    4  C   UNL     1       3.981  28.422  51.169  1.00  0.00     0.086 A 
HETATM    5  N   UNL     1       3.333  29.339  50.377  1.00  0.00    -0.226 NA
HETATM    6  C   UNL     1       3.587  28.966  49.139  1.00  0.00     0.163 A 
HETATM    7  N   UNL     1       4.370  27.843  49.107  1.00  0.00    -0.337 N 
HETATM    8  H   UNL     1       4.689  27.381  48.267  1.00  0.00     0.167 HD
HETATM    9  C   UNL     1       4.059  28.335  52.565  1.00  0.00     0.036 A 
HETATM   10  C   UNL     1       4.799  27.286  53.133  1.00  0.00     0.032 A 
ENDROOT
BRANCH   1  11
HETATM   11  N   UNL     1       6.160  25.317  53.007  1.00  0.00    -0.321 N 
HETATM   12  C   UNL     1       7.479  24.947  52.820  1.00  0.00     0.280 C 
HETATM   13  O   UNL     1       8.318  25.449  52.090  1.00  0.00    -0.265 OA
HETATM   14  H   UNL     1       5.680  24.831  53.759  1.00  0.00     0.169 HD
BRANCH  12  15
HETATM   15  C   UNL     1       7.881  23.783  53.706  1.00  0.00     0.193 A 
HETATM   16  C   UNL     1       7.994  23.941  55.212  1.00  0.00     0.280 A 
HETATM   17  N   UNL     1       8.293  22.781  55.881  1.00  0.00    -0.324 N 
HETATM   18  O   UNL     1       7.875  25.022  55.765  1.00  0.00    -0.265 OA
HETATM   19  C   UNL     1       8.525  21.592  55.233  1.00  0.00     0.033 A 
HETATM   20  H   UNL     1       8.366  22.854  56.889  1.00  0.00     0.169 HD
HETATM   21  C   UNL     1       8.854  20.415  56.107  1.00  0.00     0.070 C 
HETATM   22  C   UNL     1       8.459  21.554  53.883  1.00  0.00     0.054 A 
HETATM   23  N   UNL     1       8.147  22.650  53.102  1.00  0.00    -0.241 NA
HETATM   24  C   UNL     1       8.688  20.296  53.082  1.00  0.00     0.072 C 
ENDBRANCH  12  15
ENDBRANCH   1  11
BRANCH   6  25
HETATM   25  C   UNL     1       3.132  29.618  47.953  1.00  0.00     0.120 A 
HETATM   26  O   UNL     1       1.808  29.661  47.590  1.00  0.00    -0.319 OA
HETATM   27  C   UNL     1       1.724  30.345  46.422  1.00  0.00     0.142 A 
HETATM   28  C   UNL     1       2.970  30.755  46.014  1.00  0.00     0.027 A 
HETATM   29  C   UNL     1       3.874  30.287  46.996  1.00  0.00     0.043 A 
ENDBRANCH   6  25
TORSDOF 3
ENDMDL
MODEL 10
REMARK VINA RESULT:      -8.3      2.515      3.093
REMARK  3 active torsions:
REMARK  status: ('A' for Active; 'I' for Inactive)
REMARK    1  A    between atoms: C_6  and  C_7 
REMARK       I    between atoms: C_7  and  N_8 
REMARK    2  A    between atoms: N_8  and  C_9 
REMARK    3  A    between atoms: C_14  and  C_15 
ROOT
HETATM    1  C   UNL     1       5.179  29.743  57.284  1.00  0.00     0.037 A 
HETATM    2  C   UNL     1       5.858  28.522  57.385  1.00  0.00     0.061 A 
HETATM    3  C   UNL     1       5.997  27.769  56.214  1.00  0.00     0.065 A 
HETATM    4  C   UNL     1       5.496  28.165  54.981  1.00  0.00     0.086 A 
HETATM    5  N   UNL     1       5.774  27.233  54.011  1.00  0.00    -0.226 NA
HETATM    6  C   UNL     1       6.442  26.280  54.628  1.00  0.00     0.163 A 
HETATM    7  N   UNL     1       6.599  26.564  55.959  1.00  0.00    -0.337 N 
HETATM    8  H   UNL     1       7.079  25.975  56.625  1.00  0.00     0.167 HD
HETATM    9  C   UNL     1       4.815  29.385  54.887  1.00  0.00     0.036 A 
HETATM   10  C   UNL     1       4.667  30.164  56.047  1.00  0.00     0.032 A 
ENDROOT
BRANCH   1  11
HETATM   11  N   UNL     1       4.968  30.595  58.385  1.00  0.00    -0.321 N 
HETATM   12  C   UNL     1       5.733  31.681  58.766  1.00  0.00     0.280 C 
HETATM   13  O   UNL     1       6.704  32.166  58.209  1.00  0.00    -0.265 OA
HETATM   14  H   UNL     1       4.129  30.444  58.938  1.00  0.00     0.169 HD
BRANCH  12  15
HETATM   15  C   UNL     1       5.211  32.337  60.031  1.00  0.00     0.193 A 
HETATM   16  C   UNL     1       3.724  32.551  60.251  1.00  0.00     0.280 A 
HETATM   17  N   UNL     1       3.405  33.085  61.475  1.00  0.00    -0.324 N 
HETATM   18  O   UNL     1       2.896  32.309  59.389  1.00  0.00    -0.265 OA
HETATM   19  C   UNL     1       4.359  33.448  62.395  1.00  0.00     0.033 A 
HETATM   20  H   UNL     1       2.419  33.231  61.654  1.00  0.00     0.169 HD
HETATM   21  C   UNL     1       3.848  34.032  63.681  1.00  0.00     0.070 C 
HETATM   22  C   UNL     1       5.665  33.274  62.092  1.00  0.00     0.054 A 
HETATM   23  N   UNL     1       6.108  32.727  60.903  1.00  0.00    -0.241 NA
HETATM   24  C   UNL     1       6.785  33.632  63.039  1.00  0.00     0.072 C 
ENDBRANCH  12  15
ENDBRANCH   1  11
BRANCH   6  25
HETATM   25  C   UNL     1       6.958  25.091  54.031  1.00  0.00     0.120 A 
HETATM   26  O   UNL     1       6.824  23.851  54.607  1.00  0.00    -0.319 OA
HETATM   27  C   UNL     1       7.426  22.951  53.789  1.00  0.00     0.142 A 
HETATM   28  C   UNL     1       7.949  23.578  52.686  1.00  0.00     0.027 A 
HETATM   29  C   UNL     1       7.651  24.952  52.841  1.00  0.00     0.043 A 
ENDBRANCH   6  25
TORSDOF 3
ENDMDL
