MODEL 1
REMARK VINA RESULT:     -10.6      0.000      0.000
REMARK  5 active torsions:
REMARK  status: ('A' for Active; 'I' for Inactive)
REMARK    1  A    between atoms: C_4  and  C_5 
REMARK    2  A    between atoms: C_17  and  C_18 
REMARK    3  A    between atoms: C_18  and  N_19 
REMARK       I    between atoms: N_19  and  C_20 
REMARK    4  A    between atoms: C_20  and  C_21 
REMARK    5  A    between atoms: C_21  and  C_22 
ROOT
HETATM    1  C   UNL     1       4.624  26.348  49.744  1.00  0.00     0.048 C 
HETATM    2  C   UNL     1       5.081  26.418  51.172  1.00  0.00    -0.060 A 
HETATM    3  C   UNL     1       5.677  25.299  51.790  1.00  0.00     0.024 A 
HETATM    4  C   UNL     1       6.104  25.326  53.134  1.00  0.00     0.034 A 
HETATM    5  C   UNL     1       5.890  26.511  53.828  1.00  0.00     0.088 A 
HETATM    6  C   UNL     1       5.292  27.616  53.232  1.00  0.00    -0.021 A 
HETATM    7  C   UNL     1       5.105  28.693  54.231  1.00  0.00     0.075 C 
HETATM    8  C   UNL     1       5.976  28.145  55.370  1.00  0.00     0.151 C 
HETATM    9  O   UNL     1       6.168  26.719  55.158  1.00  0.00    -0.342 OA
HETATM   10  C   UNL     1       4.884  27.591  51.910  1.00  0.00     0.017 A 
ENDROOT
BRANCH   8  11
HETATM   11  C   UNL     1       5.347  28.336  56.757  1.00  0.00     0.155 C 
BRANCH  11  12
HETATM   12  N   UNL     1       6.221  28.916  57.761  1.00  0.00    -0.359 N 
HETATM   13  C   UNL     1       6.513  30.261  57.792  1.00  0.00     0.219 C 
HETATM   14  O   UNL     1       6.025  31.069  57.012  1.00  0.00    -0.274 OA
HETATM   15  H   UNL     1       6.722  28.285  58.376  1.00  0.00     0.162 HD
BRANCH  13  16
HETATM   16  C   UNL     1       7.509  30.626  58.877  1.00  0.00     0.128 C 
BRANCH  16  17
HETATM   17  C   UNL     1       7.372  32.089  59.319  1.00  0.00     0.094 C 
HETATM   18  N   UNL     1       5.971  32.450  59.484  1.00  0.00    -0.362 N 
HETATM   19  C   UNL     1       5.271  32.297  60.633  1.00  0.00     0.168 C 
HETATM   20  H   UNL     1       5.431  32.653  58.647  1.00  0.00     0.162 HD
HETATM   21  S   UNL     1       3.623  32.475  60.672  1.00  0.00    -0.041 SA
HETATM   22  N   UNL     1       5.973  32.017  61.759  1.00  0.00    -0.363 N 
HETATM   23  C   UNL     1       7.391  31.699  61.790  1.00  0.00     0.081 C 
HETATM   24  H   UNL     1       5.410  31.843  62.585  1.00  0.00     0.162 HD
HETATM   25  C   UNL     1       8.000  32.106  63.128  1.00  0.00     0.032 C 
HETATM   26  C   UNL     1       8.118  32.370  60.625  1.00  0.00     0.050 C 
ENDBRANCH  16  17
ENDBRANCH  13  16
ENDBRANCH  11  12
ENDBRANCH   8  11
BRANCH   4  27
HETATM   27  C   UNL     1       6.704  24.116  53.713  1.00  0.00     0.112 A 
HETATM   28  S   UNL     1       6.883  23.924  55.414  1.00  0.00    -0.067 SA
HETATM   29  C   UNL     1       7.645  22.401  55.176  1.00  0.00     0.035 A 
HETATM   30  C   UNL     1       7.735  22.151  53.808  1.00  0.00     0.075 A 
HETATM   31  C   UNL     1       8.133  21.494  56.131  1.00  0.00     0.021 A 
HETATM   32  N   UNL     1       7.215  23.138  52.989  1.00  0.00    -0.239 NA
HETATM   33  C   UNL     1       8.336  20.951  53.376  1.00  0.00     0.033 A 
HETATM   34  C   UNL     1       8.824  20.039  54.317  1.00  0.00     0.002 A 
HETATM   35  C   UNL     1       8.723  20.309  55.677  1.00  0.00     0.002 A 
ENDBRANCH   4  27
TORSDOF 5
ENDMDL
MODEL 2
REMARK VINA RESULT:     -10.4      2.042      4.973
REMARK  5 active torsions:
REMARK  status: ('A' for Active; 'I' for Inactive)
REMARK    1  A    between atoms: C_4  and  C_5 
REMARK    2  A    between atoms: C_17  and  C_18 
REMARK    3  A    between atoms: C_18  and  N_19 
REMARK       I    between atoms: N_19  and  C_20 
REMARK    4  A    between atoms: C_20  and  C_21 
REMARK    5  A    between atoms: C_21  and  C_22 
ROOT
HETATM    1  C   UNL     1       8.540  22.543  53.684  1.00  0.00     0.048 C 
HETATM    2  C   UNL     1       7.601  23.691  53.915  1.00  0.00    -0.060 A 
HETATM    3  C   UNL     1       7.075  24.419  52.826  1.00  0.00     0.024 A 
HETATM    4  C   UNL     1       6.203  25.511  53.009  1.00  0.00     0.034 A 
HETATM    5  C   UNL     1       5.898  25.849  54.322  1.00  0.00     0.088 A 
HETATM    6  C   UNL     1       6.420  25.147  55.402  1.00  0.00    -0.021 A 
HETATM    7  C   UNL     1       6.006  25.787  56.672  1.00  0.00     0.075 C 
HETATM    8  C   UNL     1       4.925  26.738  56.143  1.00  0.00     0.151 C 
HETATM    9  O   UNL     1       5.128  26.918  54.714  1.00  0.00    -0.342 OA
HETATM   10  C   UNL     1       7.268  24.068  55.221  1.00  0.00     0.017 A 
ENDROOT
BRANCH   8  11
HETATM   11  C   UNL     1       4.962  28.123  56.802  1.00  0.00     0.155 C 
BRANCH  11  12
HETATM   12  N   UNL     1       6.148  28.404  57.592  1.00  0.00    -0.359 N 
HETATM   13  C   UNL     1       7.210  29.123  57.091  1.00  0.00     0.219 C 
HETATM   14  O   UNL     1       7.214  29.617  55.970  1.00  0.00    -0.274 OA
HETATM   15  H   UNL     1       6.238  27.949  58.492  1.00  0.00     0.162 HD
BRANCH  13  16
HETATM   16  C   UNL     1       8.369  29.223  58.065  1.00  0.00     0.128 C 
BRANCH  16  17
HETATM   17  C   UNL     1       8.733  30.679  58.383  1.00  0.00     0.094 C 
HETATM   18  N   UNL     1       7.544  31.520  58.392  1.00  0.00    -0.362 N 
HETATM   19  C   UNL     1       6.768  31.737  59.481  1.00  0.00     0.168 C 
HETATM   20  H   UNL     1       7.162  31.812  57.496  1.00  0.00     0.162 HD
HETATM   21  S   UNL     1       5.290  32.479  59.354  1.00  0.00    -0.041 SA
HETATM   22  N   UNL     1       7.257  31.346  60.683  1.00  0.00    -0.363 N 
HETATM   23  C   UNL     1       8.465  30.560  60.868  1.00  0.00     0.081 C 
HETATM   24  H   UNL     1       6.620  31.463  61.465  1.00  0.00     0.162 HD
HETATM   25  C   UNL     1       9.097  30.863  62.222  1.00  0.00     0.032 C 
HETATM   26  C   UNL     1       9.451  30.814  59.728  1.00  0.00     0.050 C 
ENDBRANCH  16  17
ENDBRANCH  13  16
ENDBRANCH  11  12
ENDBRANCH   8  11
BRANCH   4  27
HETATM   27  C   UNL     1       5.707  26.229  51.826  1.00  0.00     0.112 A 
HETATM   28  S   UNL     1       5.791  27.945  51.711  1.00  0.00    -0.067 SA
HETATM   29  C   UNL     1       5.013  27.894  50.179  1.00  0.00     0.035 A 
HETATM   30  C   UNL     1       4.717  26.569  49.867  1.00  0.00     0.075 A 
HETATM   31  C   UNL     1       4.683  28.953  49.316  1.00  0.00     0.021 A 
HETATM   32  N   UNL     1       5.099  25.637  50.815  1.00  0.00    -0.239 NA
HETATM   33  C   UNL     1       4.067  26.288  48.648  1.00  0.00     0.033 A 
HETATM   34  C   UNL     1       3.735  27.333  47.779  1.00  0.00     0.002 A 
HETATM   35  C   UNL     1       4.040  28.649  48.111  1.00  0.00     0.002 A 
ENDBRANCH   4  27
TORSDOF 5
ENDMDL
MODEL 3
REMARK VINA RESULT:     -10.3      1.863      4.931
REMARK  5 active torsions:
REMARK  status: ('A' for Active; 'I' for Inactive)
REMARK    1  A    between atoms: C_4  and  C_5 
REMARK    2  A    between atoms: C_17  and  C_18 
REMARK    3  A    between atoms: C_18  and  N_19 
REMARK       I    between atoms: N_19  and  C_20 
REMARK    4  A    between atoms: C_20  and  C_21 
REMARK    5  A    between atoms: C_21  and  C_22 
ROOT
HETATM    1  C   UNL     1       8.354  20.657  52.747  1.00  0.00     0.048 C 
HETATM    2  C   UNL     1       8.015  21.906  53.507  1.00  0.00    -0.060 A 
HETATM    3  C   UNL     1       7.317  22.961  52.880  1.00  0.00     0.024 A 
HETATM    4  C   UNL     1       6.996  24.153  53.561  1.00  0.00     0.034 A 
HETATM    5  C   UNL     1       7.418  24.246  54.882  1.00  0.00     0.088 A 
HETATM    6  C   UNL     1       8.116  23.218  55.505  1.00  0.00    -0.021 A 
HETATM    7  C   UNL     1       8.518  23.632  56.869  1.00  0.00     0.075 C 
HETATM    8  C   UNL     1       7.666  24.898  57.019  1.00  0.00     0.151 C 
HETATM    9  O   UNL     1       7.267  25.345  55.693  1.00  0.00    -0.342 OA
HETATM   10  C   UNL     1       8.421  22.044  54.839  1.00  0.00     0.017 A 
ENDROOT
BRANCH   8  11
HETATM   11  C   UNL     1       8.412  26.052  57.701  1.00  0.00     0.155 C 
BRANCH  11  12
HETATM   12  N   UNL     1       7.610  27.228  57.988  1.00  0.00    -0.359 N 
HETATM   13  C   UNL     1       7.855  28.447  57.397  1.00  0.00     0.219 C 
HETATM   14  O   UNL     1       8.729  28.618  56.556  1.00  0.00    -0.274 OA
HETATM   15  H   UNL     1       6.931  27.168  58.738  1.00  0.00     0.162 HD
BRANCH  13  16
HETATM   16  C   UNL     1       6.944  29.547  57.908  1.00  0.00     0.128 C 
BRANCH  16  17
HETATM   17  C   UNL     1       7.700  30.861  58.145  1.00  0.00     0.094 C 
HETATM   18  N   UNL     1       6.807  31.885  58.667  1.00  0.00    -0.362 N 
HETATM   19  C   UNL     1       6.555  32.083  59.983  1.00  0.00     0.168 C 
HETATM   20  H   UNL     1       6.192  32.359  58.010  1.00  0.00     0.162 HD
HETATM   21  S   UNL     1       5.330  33.081  60.487  1.00  0.00    -0.041 SA
HETATM   22  N   UNL     1       7.359  31.453  60.874  1.00  0.00    -0.363 N 
HETATM   23  C   UNL     1       8.353  30.452  60.525  1.00  0.00     0.081 C 
HETATM   24  H   UNL     1       7.098  31.571  61.847  1.00  0.00     0.162 HD
HETATM   25  C   UNL     1       9.490  30.453  61.541  1.00  0.00     0.032 C 
HETATM   26  C   UNL     1       8.877  30.684  59.108  1.00  0.00     0.050 C 
ENDBRANCH  16  17
ENDBRANCH  13  16
ENDBRANCH  11  12
ENDBRANCH   8  11
BRANCH   4  27
HETATM   27  C   UNL     1       6.281  25.213  52.836  1.00  0.00     0.112 A 
HETATM   28  S   UNL     1       5.536  26.526  53.664  1.00  0.00    -0.067 SA
HETATM   29  C   UNL     1       4.961  27.158  52.172  1.00  0.00     0.035 A 
HETATM   30  C   UNL     1       5.356  26.308  51.140  1.00  0.00     0.075 A 
HETATM   31  C   UNL     1       4.210  28.321  51.931  1.00  0.00     0.021 A 
HETATM   32  N   UNL     1       6.087  25.201  51.531  1.00  0.00    -0.239 NA
HETATM   33  C   UNL     1       4.986  26.630  49.818  1.00  0.00     0.033 A 
HETATM   34  C   UNL     1       4.240  27.786  49.566  1.00  0.00     0.002 A 
HETATM   35  C   UNL     1       3.857  28.619  50.611  1.00  0.00     0.002 A 
ENDBRANCH   4  27
TORSDOF 5
ENDMDL
MODEL 4
REMARK VINA RESULT:     -10.3      4.282      8.894
REMARK  5 active torsions:
REMARK  status: ('A' for Active; 'I' for Inactive)
REMARK    1  A    between atoms: C_4  and  C_5 
REMARK    2  A    between atoms: C_17  and  C_18 
REMARK    3  A    between atoms: C_18  and  N_19 
REMARK       I    between atoms: N_19  and  C_20 
REMARK    4  A    between atoms: C_20  and  C_21 
REMARK    5  A    between atoms: C_21  and  C_22 
ROOT
HETATM    1  C   UNL     1       7.825  28.809  57.926  1.00  0.00     0.048 C 
HETATM    2  C   UNL     1       7.355  28.080  56.701  1.00  0.00    -0.060 A 
HETATM    3  C   UNL     1       7.629  26.706  56.534  1.00  0.00     0.024 A 
HETATM    4  C   UNL     1       7.214  25.994  55.390  1.00  0.00     0.034 A 
HETATM    5  C   UNL     1       6.533  26.721  54.421  1.00  0.00     0.088 A 
HETATM    6  C   UNL     1       6.268  28.078  54.569  1.00  0.00    -0.021 A 
HETATM    7  C   UNL     1       5.622  28.606  53.346  1.00  0.00     0.075 C 
HETATM    8  C   UNL     1       5.278  27.287  52.643  1.00  0.00     0.151 C 
HETATM    9  O   UNL     1       6.108  26.234  53.208  1.00  0.00    -0.342 OA
HETATM   10  C   UNL     1       6.667  28.772  55.698  1.00  0.00     0.017 A 
ENDROOT
BRANCH   8  11
HETATM   11  C   UNL     1       5.530  27.324  51.130  1.00  0.00     0.155 C 
BRANCH  11  12
HETATM   12  N   UNL     1       4.408  26.918  50.303  1.00  0.00    -0.359 N 
HETATM   13  C   UNL     1       4.352  27.193  48.955  1.00  0.00     0.219 C 
HETATM   14  O   UNL     1       5.257  27.752  48.348  1.00  0.00    -0.274 OA
HETATM   15  H   UNL     1       3.594  26.531  50.764  1.00  0.00     0.162 HD
BRANCH  13  16
HETATM   16  C   UNL     1       3.053  26.745  48.313  1.00  0.00     0.128 C 
BRANCH  16  17
HETATM   17  C   UNL     1       1.885  27.680  48.658  1.00  0.00     0.094 C 
HETATM   18  N   UNL     1       2.249  29.070  48.423  1.00  0.00    -0.362 N 
HETATM   19  C   UNL     1       2.090  29.714  47.242  1.00  0.00     0.168 C 
HETATM   20  H   UNL     1       2.826  29.534  49.119  1.00  0.00     0.162 HD
HETATM   21  S   UNL     1       2.770  31.202  46.971  1.00  0.00    -0.041 SA
HETATM   22  N   UNL     1       1.331  29.107  46.297  1.00  0.00    -0.363 N 
HETATM   23  C   UNL     1       0.825  27.747  46.393  1.00  0.00     0.081 C 
HETATM   24  H   UNL     1       1.290  29.586  45.404  1.00  0.00     0.162 HD
HETATM   25  C   UNL     1      -0.470  27.603  45.600  1.00  0.00     0.032 C 
HETATM   26  C   UNL     1       0.624  27.350  47.855  1.00  0.00     0.050 C 
ENDBRANCH  16  17
ENDBRANCH  13  16
ENDBRANCH  11  12
ENDBRANCH   8  11
BRANCH   4  27
HETATM   27  C   UNL     1       7.550  24.568  55.281  1.00  0.00     0.112 A 
HETATM   28  S   UNL     1       8.019  23.643  56.655  1.00  0.00    -0.067 SA
HETATM   29  C   UNL     1       8.246  22.257  55.663  1.00  0.00     0.035 A 
HETATM   30  C   UNL     1       7.973  22.600  54.340  1.00  0.00     0.075 A 
HETATM   31  C   UNL     1       8.643  20.960  56.028  1.00  0.00     0.021 A 
HETATM   32  N   UNL     1       7.597  23.916  54.134  1.00  0.00    -0.239 NA
HETATM   33  C   UNL     1       8.101  21.612  53.343  1.00  0.00     0.033 A 
HETATM   34  C   UNL     1       8.494  20.316  53.695  1.00  0.00     0.002 A 
HETATM   35  C   UNL     1       8.761  19.996  55.021  1.00  0.00     0.002 A 
ENDBRANCH   4  27
TORSDOF 5
ENDMDL
MODEL 5
REMARK VINA RESULT:     -10.2      2.526      5.596
REMARK  5 active torsions:
REMARK  status: ('A' for Active; 'I' for Inactive)
REMARK    1  A    between atoms: C_4  and  C_5 
REMARK    2  A    between atoms: C_17  and  C_18 
REMARK    3  A    between atoms: C_18  and  N_19 
REMARK       I    between atoms: N_19  and  C_20 
REMARK    4  A    between atoms: C_20  and  C_21 
REMARK    5  A    between atoms: C_21  and  C_22 
ROOT
HETATM    1  C   UNL     1       8.419  20.623  52.864  1.00  0.00     0.048 C 
HETATM    2  C   UNL     1       8.016  21.876  53.585  1.00  0.00    -0.060 A 
HETATM    3  C   UNL     1       7.470  22.967  52.878  1.00  0.00     0.024 A 
HETATM    4  C   UNL     1       7.095  24.164  53.523  1.00  0.00     0.034 A 
HETATM    5  C   UNL     1       7.308  24.222  54.895  1.00  0.00     0.088 A 
HETATM    6  C   UNL     1       7.857  23.157  55.600  1.00  0.00    -0.021 A 
HETATM    7  C   UNL     1       8.059  23.536  57.017  1.00  0.00     0.075 C 
HETATM    8  C   UNL     1       7.246  24.836  57.057  1.00  0.00     0.151 C 
HETATM    9  O   UNL     1       7.078  25.317  55.694  1.00  0.00    -0.342 OA
HETATM   10  C   UNL     1       8.215  21.979  54.967  1.00  0.00     0.017 A 
ENDROOT
BRANCH   8  11
HETATM   11  C   UNL     1       7.923  25.949  57.868  1.00  0.00     0.155 C 
BRANCH  11  12
HETATM   12  N   UNL     1       7.268  27.243  57.816  1.00  0.00    -0.359 N 
HETATM   13  C   UNL     1       7.874  28.351  57.268  1.00  0.00     0.219 C 
HETATM   14  O   UNL     1       8.981  28.318  56.745  1.00  0.00    -0.274 OA
HETATM   15  H   UNL     1       6.390  27.352  58.309  1.00  0.00     0.162 HD
BRANCH  13  16
HETATM   16  C   UNL     1       7.036  29.609  57.396  1.00  0.00     0.128 C 
BRANCH  16  17
HETATM   17  C   UNL     1       5.532  29.304  57.399  1.00  0.00     0.094 C 
HETATM   18  N   UNL     1       4.817  30.231  58.264  1.00  0.00    -0.362 N 
HETATM   19  C   UNL     1       4.320  31.425  57.863  1.00  0.00     0.168 C 
HETATM   20  H   UNL     1       4.851  30.068  59.267  1.00  0.00     0.162 HD
HETATM   21  S   UNL     1       3.761  32.540  58.955  1.00  0.00    -0.041 SA
HETATM   22  N   UNL     1       4.274  31.665  56.529  1.00  0.00    -0.363 N 
HETATM   23  C   UNL     1       4.875  30.814  55.516  1.00  0.00     0.081 C 
HETATM   24  H   UNL     1       3.960  32.594  56.269  1.00  0.00     0.162 HD
HETATM   25  C   UNL     1       4.115  30.934  54.199  1.00  0.00     0.032 C 
HETATM   26  C   UNL     1       4.927  29.363  55.993  1.00  0.00     0.050 C 
ENDBRANCH  16  17
ENDBRANCH  13  16
ENDBRANCH  11  12
ENDBRANCH   8  11
BRANCH   4  27
HETATM   27  C   UNL     1       6.546  25.263  52.716  1.00  0.00     0.112 A 
HETATM   28  S   UNL     1       6.692  26.905  53.211  1.00  0.00    -0.067 SA
HETATM   29  C   UNL     1       5.804  27.415  51.829  1.00  0.00     0.035 A 
HETATM   30  C   UNL     1       5.432  26.292  51.093  1.00  0.00     0.075 A 
HETATM   31  C   UNL     1       5.457  28.716  51.428  1.00  0.00     0.021 A 
HETATM   32  N   UNL     1       5.842  25.078  51.615  1.00  0.00    -0.239 NA
HETATM   33  C   UNL     1       4.685  26.473  49.911  1.00  0.00     0.033 A 
HETATM   34  C   UNL     1       4.334  27.763  49.501  1.00  0.00     0.002 A 
HETATM   35  C   UNL     1       4.716  28.870  50.251  1.00  0.00     0.002 A 
ENDBRANCH   4  27
TORSDOF 5
ENDMDL
MODEL 6
REMARK VINA RESULT:     -10.2      3.935      7.903
REMARK  5 active torsions:
REMARK  status: ('A' for Active; 'I' for Inactive)
REMARK    1  A    between atoms: C_4  and  C_5 
REMARK    2  A    between atoms: C_17  and  C_18 
REMARK    3  A    between atoms: C_18  and  N_19 
REMARK       I    between atoms: N_19  and  C_20 
REMARK    4  A    between atoms: C_20  and  C_21 
REMARK    5  A    between atoms: C_21  and  C_22 
ROOT
HETATM    1  C   UNL     1       9.704  29.527  57.664  1.00  0.00     0.048 C 
HETATM    2  C   UNL     1       8.516  28.923  56.973  1.00  0.00    -0.060 A 
HETATM    3  C   UNL     1       8.525  27.567  56.582  1.00  0.00     0.024 A 
HETATM    4  C   UNL     1       7.432  26.973  55.919  1.00  0.00     0.034 A 
HETATM    5  C   UNL     1       6.345  27.798  55.652  1.00  0.00     0.088 A 
HETATM    6  C   UNL     1       6.330  29.138  56.022  1.00  0.00    -0.021 A 
HETATM    7  C   UNL     1       5.096  29.788  55.526  1.00  0.00     0.075 C 
HETATM    8  C   UNL     1       4.294  28.546  55.118  1.00  0.00     0.151 C 
HETATM    9  O   UNL     1       5.217  27.433  54.958  1.00  0.00    -0.342 OA
HETATM   10  C   UNL     1       7.400  29.717  56.682  1.00  0.00     0.017 A 
ENDROOT
BRANCH   8  11
HETATM   11  C   UNL     1       3.535  28.723  53.796  1.00  0.00     0.155 C 
BRANCH  11  12
HETATM   12  N   UNL     1       3.922  27.815  52.731  1.00  0.00    -0.359 N 
HETATM   13  C   UNL     1       4.930  28.113  51.842  1.00  0.00     0.219 C 
HETATM   14  O   UNL     1       5.603  29.133  51.912  1.00  0.00    -0.274 OA
HETATM   15  H   UNL     1       3.345  26.998  52.571  1.00  0.00     0.162 HD
BRANCH  13  16
HETATM   16  C   UNL     1       5.104  27.055  50.768  1.00  0.00     0.128 C 
BRANCH  16  17
HETATM   17  C   UNL     1       4.920  27.629  49.357  1.00  0.00     0.094 C 
HETATM   18  N   UNL     1       4.501  26.590  48.427  1.00  0.00    -0.362 N 
HETATM   19  C   UNL     1       3.212  26.251  48.187  1.00  0.00     0.168 C 
HETATM   20  H   UNL     1       5.211  25.953  48.074  1.00  0.00     0.162 HD
HETATM   21  S   UNL     1       2.823  24.887  47.327  1.00  0.00    -0.041 SA
HETATM   22  N   UNL     1       2.250  27.083  48.657  1.00  0.00    -0.363 N 
HETATM   23  C   UNL     1       2.494  28.210  49.541  1.00  0.00     0.081 C 
HETATM   24  H   UNL     1       1.298  26.762  48.518  1.00  0.00     0.162 HD
HETATM   25  C   UNL     1       1.434  29.288  49.336  1.00  0.00     0.032 C 
HETATM   26  C   UNL     1       3.900  28.770  49.326  1.00  0.00     0.050 C 
ENDBRANCH  16  17
ENDBRANCH  13  16
ENDBRANCH  11  12
ENDBRANCH   8  11
BRANCH   4  27
HETATM   27  C   UNL     1       7.521  25.559  55.530  1.00  0.00     0.112 A 
HETATM   28  S   UNL     1       7.627  24.305  56.705  1.00  0.00    -0.067 SA
HETATM   29  C   UNL     1       7.738  23.127  55.457  1.00  0.00     0.035 A 
HETATM   30  C   UNL     1       7.712  23.773  54.223  1.00  0.00     0.075 A 
HETATM   31  C   UNL     1       7.845  21.730  55.563  1.00  0.00     0.021 A 
HETATM   32  N   UNL     1       7.608  25.152  54.277  1.00  0.00    -0.239 NA
HETATM   33  C   UNL     1       7.797  22.997  53.049  1.00  0.00     0.033 A 
HETATM   34  C   UNL     1       7.903  21.605  53.142  1.00  0.00     0.002 A 
HETATM   35  C   UNL     1       7.926  20.981  54.384  1.00  0.00     0.002 A 
ENDBRANCH   4  27
TORSDOF 5
ENDMDL
MODEL 7
REMARK VINA RESULT:     -10.0      3.922      9.570
REMARK  5 active torsions:
REMARK  status: ('A' for Active; 'I' for Inactive)
REMARK    1  A    between atoms: C_4  and  C_5 
REMARK    2  A    between atoms: C_17  and  C_18 
REMARK    3  A    between atoms: C_18  and  N_19 
REMARK       I    between atoms: N_19  and  C_20 
REMARK    4  A    between atoms: C_20  and  C_21 
REMARK    5  A    between atoms: C_21  and  C_22 
ROOT
HETATM    1  C   UNL     1       5.670  32.970  63.953  1.00  0.00     0.048 C 
HETATM    2  C   UNL     1       6.274  32.756  62.596  1.00  0.00    -0.060 A 
HETATM    3  C   UNL     1       5.474  32.817  61.435  1.00  0.00     0.024 A 
HETATM    4  C   UNL     1       6.007  32.607  60.148  1.00  0.00     0.034 A 
HETATM    5  C   UNL     1       7.364  32.317  60.078  1.00  0.00     0.088 A 
HETATM    6  C   UNL     1       8.160  32.242  61.215  1.00  0.00    -0.021 A 
HETATM    7  C   UNL     1       9.533  31.823  60.849  1.00  0.00     0.075 C 
HETATM    8  C   UNL     1       9.459  31.995  59.326  1.00  0.00     0.151 C 
HETATM    9  O   UNL     1       8.059  32.012  58.931  1.00  0.00    -0.342 OA
HETATM   10  C   UNL     1       7.637  32.460  62.478  1.00  0.00     0.017 A 
ENDROOT
BRANCH   8  11
HETATM   11  C   UNL     1      10.152  30.864  58.556  1.00  0.00     0.155 C 
BRANCH  11  12
HETATM   12  N   UNL     1       9.270  29.999  57.794  1.00  0.00    -0.359 N 
HETATM   13  C   UNL     1       9.492  29.710  56.466  1.00  0.00     0.219 C 
HETATM   14  O   UNL     1      10.467  30.117  55.847  1.00  0.00    -0.274 OA
HETATM   15  H   UNL     1       8.403  29.704  58.227  1.00  0.00     0.162 HD
BRANCH  13  16
HETATM   16  C   UNL     1       8.398  28.853  55.856  1.00  0.00     0.128 C 
BRANCH  16  17
HETATM   17  C   UNL     1       7.006  29.235  56.376  1.00  0.00     0.094 C 
HETATM   18  N   UNL     1       6.127  29.608  55.277  1.00  0.00    -0.362 N 
HETATM   19  C   UNL     1       5.355  28.736  54.585  1.00  0.00     0.168 C 
HETATM   20  H   UNL     1       6.232  30.537  54.879  1.00  0.00     0.162 HD
HETATM   21  S   UNL     1       4.591  29.184  53.183  1.00  0.00    -0.041 SA
HETATM   22  N   UNL     1       5.210  27.489  55.096  1.00  0.00    -0.363 N 
HETATM   23  C   UNL     1       5.956  26.969  56.230  1.00  0.00     0.081 C 
HETATM   24  H   UNL     1       4.682  26.845  54.516  1.00  0.00     0.162 HD
HETATM   25  C   UNL     1       5.145  25.903  56.959  1.00  0.00     0.032 C 
HETATM   26  C   UNL     1       6.357  28.101  57.175  1.00  0.00     0.050 C 
ENDBRANCH  16  17
ENDBRANCH  13  16
ENDBRANCH  11  12
ENDBRANCH   8  11
BRANCH   4  27
HETATM   27  C   UNL     1       5.107  32.672  58.987  1.00  0.00     0.112 A 
HETATM   28  S   UNL     1       4.498  34.172  58.401  1.00  0.00    -0.067 SA
HETATM   29  C   UNL     1       3.591  33.348  57.195  1.00  0.00     0.035 A 
HETATM   30  C   UNL     1       3.793  31.976  57.337  1.00  0.00     0.075 A 
HETATM   31  C   UNL     1       2.754  33.877  56.198  1.00  0.00     0.021 A 
HETATM   32  N   UNL     1       4.639  31.605  58.367  1.00  0.00    -0.239 NA
HETATM   33  C   UNL     1       3.136  31.099  56.451  1.00  0.00     0.033 A 
HETATM   34  C   UNL     1       2.302  31.614  55.453  1.00  0.00     0.002 A 
HETATM   35  C   UNL     1       2.115  32.986  55.330  1.00  0.00     0.002 A 
ENDBRANCH   4  27
TORSDOF 5
ENDMDL
MODEL 8
REMARK VINA RESULT:      -9.8      1.671      2.156
REMARK  5 active torsions:
REMARK  status: ('A' for Active; 'I' for Inactive)
REMARK    1  A    between atoms: C_4  and  C_5 
REMARK    2  A    between atoms: C_17  and  C_18 
REMARK    3  A    between atoms: C_18  and  N_19 
REMARK       I    between atoms: N_19  and  C_20 
REMARK    4  A    between atoms: C_20  and  C_21 
REMARK    5  A    between atoms: C_21  and  C_22 
ROOT
HETATM    1  C   UNL     1       4.751  26.568  49.692  1.00  0.00     0.048 C 
HETATM    2  C   UNL     1       5.076  26.559  51.157  1.00  0.00    -0.060 A 
HETATM    3  C   UNL     1       5.692  25.435  51.749  1.00  0.00     0.024 A 
HETATM    4  C   UNL     1       5.997  25.388  53.124  1.00  0.00     0.034 A 
HETATM    5  C   UNL     1       5.642  26.502  53.877  1.00  0.00     0.088 A 
HETATM    6  C   UNL     1       5.024  27.608  53.307  1.00  0.00    -0.021 A 
HETATM    7  C   UNL     1       4.677  28.594  54.356  1.00  0.00     0.075 C 
HETATM    8  C   UNL     1       5.480  28.017  55.529  1.00  0.00     0.151 C 
HETATM    9  O   UNL     1       5.788  26.626  55.238  1.00  0.00    -0.342 OA
HETATM   10  C   UNL     1       4.735  27.658  51.954  1.00  0.00     0.017 A 
ENDROOT
BRANCH   8  11
HETATM   11  C   UNL     1       4.722  28.063  56.862  1.00  0.00     0.155 C 
BRANCH  11  12
HETATM   12  N   UNL     1       4.965  29.241  57.676  1.00  0.00    -0.359 N 
HETATM   13  C   UNL     1       4.138  30.340  57.643  1.00  0.00     0.219 C 
HETATM   14  O   UNL     1       3.117  30.389  56.968  1.00  0.00    -0.274 OA
HETATM   15  H   UNL     1       5.839  29.293  58.187  1.00  0.00     0.162 HD
BRANCH  13  16
HETATM   16  C   UNL     1       4.632  31.480  58.514  1.00  0.00     0.128 C 
BRANCH  16  17
HETATM   17  C   UNL     1       3.580  31.922  59.540  1.00  0.00     0.094 C 
HETATM   18  N   UNL     1       4.047  31.676  60.897  1.00  0.00    -0.362 N 
HETATM   19  C   UNL     1       4.769  32.558  61.630  1.00  0.00     0.168 C 
HETATM   20  H   UNL     1       3.994  30.726  61.253  1.00  0.00     0.162 HD
HETATM   21  S   UNL     1       5.491  32.110  63.054  1.00  0.00    -0.041 SA
HETATM   22  N   UNL     1       4.858  33.829  61.166  1.00  0.00    -0.363 N 
HETATM   23  C   UNL     1       4.386  34.268  59.863  1.00  0.00     0.081 C 
HETATM   24  H   UNL     1       5.462  34.441  61.704  1.00  0.00     0.162 HD
HETATM   25  C   UNL     1       3.998  35.742  59.906  1.00  0.00     0.032 C 
HETATM   26  C   UNL     1       3.217  33.402  59.395  1.00  0.00     0.050 C 
ENDBRANCH  16  17
ENDBRANCH  13  16
ENDBRANCH  11  12
ENDBRANCH   8  11
BRANCH   4  27
HETATM   27  C   UNL     1       6.625  24.177  53.671  1.00  0.00     0.112 A 
HETATM   28  S   UNL     1       6.886  23.981  55.361  1.00  0.00    -0.067 SA
HETATM   29  C   UNL     1       7.638  22.460  55.082  1.00  0.00     0.035 A 
HETATM   30  C   UNL     1       7.663  22.214  53.711  1.00  0.00     0.075 A 
HETATM   31  C   UNL     1       8.173  21.551  56.010  1.00  0.00     0.021 A 
HETATM   32  N   UNL     1       7.103  23.202  52.920  1.00  0.00    -0.239 NA
HETATM   33  C   UNL     1       8.244  21.016  53.247  1.00  0.00     0.033 A 
HETATM   34  C   UNL     1       8.778  20.102  54.161  1.00  0.00     0.002 A 
HETATM   35  C   UNL     1       8.742  20.368  55.526  1.00  0.00     0.002 A 
ENDBRANCH   4  27
TORSDOF 5
ENDMDL
MODEL 9
REMARK VINA RESULT:      -9.7      4.028      7.784
REMARK  5 active torsions:
REMARK  status: ('A' for Active; 'I' for Inactive)
REMARK    1  A    between atoms: C_4  and  C_5 
REMARK    2  A    between atoms: C_17  and  C_18 
REMARK    3  A    between atoms: C_18  and  N_19 
REMARK       I    between atoms: N_19  and  C_20 
REMARK    4  A    between atoms: C_20  and  C_21 
REMARK    5  A    between atoms: C_21  and  C_22 
ROOT
HETATM    1  C   UNL     1       9.228  29.479  57.565  1.00  0.00     0.048 C 
HETATM    2  C   UNL     1       8.125  28.828  56.782  1.00  0.00    -0.060 A 
HETATM    3  C   UNL     1       8.199  27.461  56.439  1.00  0.00     0.024 A 
HETATM    4  C   UNL     1       7.188  26.822  55.693  1.00  0.00     0.034 A 
HETATM    5  C   UNL     1       6.118  27.613  55.294  1.00  0.00     0.088 A 
HETATM    6  C   UNL     1       6.041  28.963  55.615  1.00  0.00    -0.021 A 
HETATM    7  C   UNL     1       4.849  29.570  54.979  1.00  0.00     0.075 C 
HETATM    8  C   UNL     1       4.115  28.298  54.537  1.00  0.00     0.151 C 
HETATM    9  O   UNL     1       5.070  27.201  54.505  1.00  0.00    -0.342 OA
HETATM   10  C   UNL     1       7.029  29.586  56.357  1.00  0.00     0.017 A 
ENDROOT
BRANCH   8  11
HETATM   11  C   UNL     1       3.487  28.416  53.142  1.00  0.00     0.155 C 
BRANCH  11  12
HETATM   12  N   UNL     1       3.855  29.604  52.393  1.00  0.00    -0.359 N 
HETATM   13  C   UNL     1       3.363  29.860  51.133  1.00  0.00     0.219 C 
HETATM   14  O   UNL     1       2.548  29.136  50.573  1.00  0.00    -0.274 OA
HETATM   15  H   UNL     1       4.590  30.193  52.767  1.00  0.00     0.162 HD
BRANCH  13  16
HETATM   16  C   UNL     1       3.947  31.115  50.512  1.00  0.00     0.128 C 
BRANCH  16  17
HETATM   17  C   UNL     1       5.302  30.852  49.842  1.00  0.00     0.094 C 
HETATM   18  N   UNL     1       5.363  29.497  49.312  1.00  0.00    -0.362 N 
HETATM   19  C   UNL     1       4.961  29.143  48.068  1.00  0.00     0.168 C 
HETATM   20  H   UNL     1       5.540  28.739  49.965  1.00  0.00     0.162 HD
HETATM   21  S   UNL     1       4.807  27.552  47.630  1.00  0.00    -0.041 SA
HETATM   22  N   UNL     1       4.712  30.142  47.185  1.00  0.00    -0.363 N 
HETATM   23  C   UNL     1       4.677  31.555  47.524  1.00  0.00     0.081 C 
HETATM   24  H   UNL     1       4.348  29.841  46.287  1.00  0.00     0.162 HD
HETATM   25  C   UNL     1       5.058  32.403  46.316  1.00  0.00     0.032 C 
HETATM   26  C   UNL     1       5.591  31.845  48.714  1.00  0.00     0.050 C 
ENDBRANCH  16  17
ENDBRANCH  13  16
ENDBRANCH  11  12
ENDBRANCH   8  11
BRANCH   4  27
HETATM   27  C   UNL     1       7.343  25.398  55.362  1.00  0.00     0.112 A 
HETATM   28  S   UNL     1       7.386  24.187  56.585  1.00  0.00    -0.067 SA
HETATM   29  C   UNL     1       7.624  22.972  55.392  1.00  0.00     0.035 A 
HETATM   30  C   UNL     1       7.680  23.576  54.138  1.00  0.00     0.075 A 
HETATM   31  C   UNL     1       7.757  21.583  55.555  1.00  0.00     0.021 A 
HETATM   32  N   UNL     1       7.538  24.952  54.135  1.00  0.00    -0.239 NA
HETATM   33  C   UNL     1       7.877  22.764  53.002  1.00  0.00     0.033 A 
HETATM   34  C   UNL     1       8.009  21.379  53.151  1.00  0.00     0.002 A 
HETATM   35  C   UNL     1       7.949  20.798  54.413  1.00  0.00     0.002 A 
ENDBRANCH   4  27
TORSDOF 5
ENDMDL
MODEL 10
REMARK VINA RESULT:      -9.7      1.876      2.681
REMARK  5 active torsions:
REMARK  status: ('A' for Active; 'I' for Inactive)
REMARK    1  A    between atoms: C_4  and  C_5 
REMARK    2  A    between atoms: C_17  and  C_18 
REMARK    3  A    between atoms: C_18  and  N_19 
REMARK       I    between atoms: N_19  and  C_20 
REMARK    4  A    between atoms: C_20  and  C_21 
REMARK    5  A    between atoms: C_21  and  C_22 
ROOT
HETATM    1  C   UNL     1       5.215  27.458  50.910  1.00  0.00     0.048 C 
HETATM    2  C   UNL     1       5.927  27.247  52.215  1.00  0.00    -0.060 A 
HETATM    3  C   UNL     1       6.378  25.963  52.587  1.00  0.00     0.024 A 
HETATM    4  C   UNL     1       7.037  25.728  53.812  1.00  0.00     0.034 A 
HETATM    5  C   UNL     1       7.205  26.827  54.646  1.00  0.00     0.088 A 
HETATM    6  C   UNL     1       6.754  28.094  54.294  1.00  0.00    -0.021 A 
HETATM    7  C   UNL     1       6.981  29.042  55.410  1.00  0.00     0.075 C 
HETATM    8  C   UNL     1       7.908  28.192  56.288  1.00  0.00     0.151 C 
HETATM    9  O   UNL     1       7.756  26.797  55.905  1.00  0.00    -0.342 OA
HETATM   10  C   UNL     1       6.117  28.325  53.088  1.00  0.00     0.017 A 
ENDROOT
BRANCH   8  11
HETATM   11  C   UNL     1       7.595  28.307  57.786  1.00  0.00     0.155 C 
BRANCH  11  12
HETATM   12  N   UNL     1       6.951  29.542  58.193  1.00  0.00    -0.359 N 
HETATM   13  C   UNL     1       7.666  30.636  58.627  1.00  0.00     0.219 C 
HETATM   14  O   UNL     1       8.890  30.665  58.655  1.00  0.00    -0.274 OA
HETATM   15  H   UNL     1       5.941  29.547  58.274  1.00  0.00     0.162 HD
BRANCH  13  16
HETATM   16  C   UNL     1       6.781  31.783  59.076  1.00  0.00     0.128 C 
BRANCH  16  17
HETATM   17  C   UNL     1       5.316  31.577  58.667  1.00  0.00     0.094 C 
HETATM   18  N   UNL     1       4.420  31.910  59.766  1.00  0.00    -0.362 N 
HETATM   19  C   UNL     1       3.921  33.148  59.998  1.00  0.00     0.168 C 
HETATM   20  H   UNL     1       4.307  31.228  60.511  1.00  0.00     0.162 HD
HETATM   21  S   UNL     1       3.132  33.511  61.411  1.00  0.00    -0.041 SA
HETATM   22  N   UNL     1       4.070  34.075  59.019  1.00  0.00    -0.363 N 
HETATM   23  C   UNL     1       4.872  33.889  57.821  1.00  0.00     0.081 C 
HETATM   24  H   UNL     1       3.745  35.006  59.255  1.00  0.00     0.162 HD
HETATM   25  C   UNL     1       4.321  34.730  56.675  1.00  0.00     0.032 C 
HETATM   26  C   UNL     1       4.936  32.410  57.441  1.00  0.00     0.050 C 
ENDBRANCH  16  17
ENDBRANCH  13  16
ENDBRANCH  11  12
ENDBRANCH   8  11
BRANCH   4  27
HETATM   27  C   UNL     1       7.464  24.360  54.137  1.00  0.00     0.112 A 
HETATM   28  S   UNL     1       7.684  23.169  52.913  1.00  0.00    -0.067 SA
HETATM   29  C   UNL     1       8.088  21.999  54.106  1.00  0.00     0.035 A 
HETATM   30  C   UNL     1       8.003  22.590  55.365  1.00  0.00     0.075 A 
HETATM   31  C   UNL     1       8.449  20.651  53.940  1.00  0.00     0.021 A 
HETATM   32  N   UNL     1       7.631  23.923  55.371  1.00  0.00    -0.239 NA
HETATM   33  C   UNL     1       8.289  21.807  56.502  1.00  0.00     0.033 A 
HETATM   34  C   UNL     1       8.651  20.465  56.350  1.00  0.00     0.002 A 
HETATM   35  C   UNL     1       8.730  19.896  55.084  1.00  0.00     0.002 A 
ENDBRANCH   4  27
TORSDOF 5
ENDMDL
