MODEL 1
REMARK VINA RESULT:      -9.3      0.000      0.000
REMARK  5 active torsions:
REMARK  status: ('A' for Active; 'I' for Inactive)
REMARK    1  A    between atoms: C_3  and  N_4 
REMARK       I    between atoms: N_4  and  C_5 
REMARK       I    between atoms: C_5  and  N_6 
REMARK    2  A    between atoms: N_6  and  N_7 
REMARK    3  A    between atoms: N_7  and  C_8 
REMARK    4  A    between atoms: N_7  and  C_14 
REMARK    5  A    between atoms: C_14  and  C_15 
ROOT
HETATM    1  N   UNL     1       6.827  25.243  53.176  1.00  0.00    -0.284 N 
ENDROOT
BRANCH   1   2
HETATM    2  N   UNL     1       5.712  25.117  52.318  1.00  0.00    -0.249 N 
HETATM    3  C   UNL     1       5.506  26.085  51.336  1.00  0.00     0.339 C 
HETATM    4  N   UNL     1       4.528  25.676  50.442  1.00  0.00    -0.306 N 
HETATM    5  O   UNL     1       6.132  27.136  51.274  1.00  0.00    -0.245 OA
HETATM    6  H   UNL     1       4.482  24.673  50.334  1.00  0.00     0.171 HD
HETATM    7  H   UNL     1       5.391  24.167  52.192  1.00  0.00     0.192 HD
BRANCH   4   8
HETATM    8  C   UNL     1       4.042  26.430  49.347  1.00  0.00     0.059 A 
HETATM    9  C   UNL     1       3.326  25.926  48.251  1.00  0.00    -0.032 A 
HETATM   10  C   UNL     1       3.034  24.472  48.014  1.00  0.00     0.050 C 
HETATM   11  C   UNL     1       2.872  26.837  47.279  1.00  0.00     0.028 A 
HETATM   12  C   UNL     1       3.195  28.179  47.392  1.00  0.00     0.117 A 
HETATM   13  N   UNL     1       3.941  28.682  48.391  1.00  0.00    -0.271 NA
HETATM   14  C   UNL     1       4.344  27.797  49.335  1.00  0.00     0.146 A 
ENDBRANCH   4   8
ENDBRANCH   1   2
BRANCH   1  15
HETATM   15  C   UNL     1       6.585  25.835  54.425  1.00  0.00     0.051 A 
HETATM   16  C   UNL     1       5.553  25.379  55.267  1.00  0.00     0.031 A 
HETATM   17  C   UNL     1       5.307  25.952  56.519  1.00  0.00     0.002 A 
HETATM   18  C   UNL     1       6.087  27.012  56.967  1.00  0.00     0.000 A 
HETATM   19  C   UNL     1       7.104  27.499  56.155  1.00  0.00     0.002 A 
HETATM   20  C   UNL     1       7.343  26.920  54.903  1.00  0.00     0.031 A 
ENDBRANCH   1  15
BRANCH   1  21
HETATM   21  C   UNL     1       7.978  24.372  52.886  1.00  0.00     0.187 C 
BRANCH  21  22
HETATM   22  C   UNL     1       7.970  23.038  53.617  1.00  0.00    -0.038 A 
HETATM   23  C   UNL     1       8.152  22.910  55.003  1.00  0.00     0.009 A 
HETATM   24  C   UNL     1       8.177  21.652  55.610  1.00  0.00     0.001 A 
HETATM   25  C   UNL     1       8.036  20.501  54.841  1.00  0.00     0.000 A 
HETATM   26  C   UNL     1       7.868  20.606  53.463  1.00  0.00     0.001 A 
HETATM   27  C   UNL     1       7.838  21.863  52.856  1.00  0.00     0.009 A 
ENDBRANCH  21  22
ENDBRANCH   1  21
TORSDOF 5
ENDMDL
MODEL 2
REMARK VINA RESULT:      -9.2      1.929      5.037
REMARK  5 active torsions:
REMARK  status: ('A' for Active; 'I' for Inactive)
REMARK    1  A    between atoms: C_3  and  N_4 
REMARK       I    between atoms: N_4  and  C_5 
REMARK       I    between atoms: C_5  and  N_6 
REMARK    2  A    between atoms: N_6  and  N_7 
REMARK    3  A    between atoms: N_7  and  C_8 
REMARK    4  A    between atoms: N_7  and  C_14 
REMARK    5  A    between atoms: C_14  and  C_15 
ROOT
HETATM    1  N   UNL     1       6.857  24.037  55.083  1.00  0.00    -0.284 N 
ENDROOT
BRANCH   1   2
HETATM    2  N   UNL     1       6.966  25.086  54.142  1.00  0.00    -0.249 N 
HETATM    3  C   UNL     1       5.829  25.478  53.437  1.00  0.00     0.339 C 
HETATM    4  N   UNL     1       6.059  26.663  52.756  1.00  0.00    -0.306 N 
HETATM    5  O   UNL     1       4.772  24.859  53.452  1.00  0.00    -0.245 OA
HETATM    6  H   UNL     1       6.734  27.259  53.211  1.00  0.00     0.171 HD
HETATM    7  H   UNL     1       7.714  25.738  54.334  1.00  0.00     0.192 HD
BRANCH   4   8
HETATM    8  C   UNL     1       5.136  27.323  51.909  1.00  0.00     0.059 A 
HETATM    9  C   UNL     1       4.181  28.269  52.308  1.00  0.00    -0.032 A 
HETATM   10  C   UNL     1       3.918  28.674  53.731  1.00  0.00     0.050 C 
HETATM   11  C   UNL     1       3.381  28.864  51.316  1.00  0.00     0.028 A 
HETATM   12  C   UNL     1       3.508  28.460  49.998  1.00  0.00     0.117 A 
HETATM   13  N   UNL     1       4.362  27.503  49.593  1.00  0.00    -0.271 NA
HETATM   14  C   UNL     1       5.146  26.962  50.557  1.00  0.00     0.146 A 
ENDBRANCH   4   8
ENDBRANCH   1   2
BRANCH   1  15
HETATM   15  C   UNL     1       7.399  22.801  54.699  1.00  0.00     0.051 A 
HETATM   16  C   UNL     1       7.659  21.789  55.642  1.00  0.00     0.031 A 
HETATM   17  C   UNL     1       8.188  20.547  55.272  1.00  0.00     0.002 A 
HETATM   18  C   UNL     1       8.483  20.283  53.941  1.00  0.00     0.000 A 
HETATM   19  C   UNL     1       8.255  21.264  52.985  1.00  0.00     0.002 A 
HETATM   20  C   UNL     1       7.725  22.505  53.363  1.00  0.00     0.031 A 
ENDBRANCH   1  15
BRANCH   1  21
HETATM   21  C   UNL     1       6.616  24.433  56.480  1.00  0.00     0.187 C 
BRANCH  21  22
HETATM   22  C   UNL     1       6.834  25.910  56.771  1.00  0.00    -0.038 A 
HETATM   23  C   UNL     1       8.092  26.471  57.044  1.00  0.00     0.009 A 
HETATM   24  C   UNL     1       8.221  27.829  57.347  1.00  0.00     0.001 A 
HETATM   25  C   UNL     1       7.095  28.646  57.397  1.00  0.00     0.000 A 
HETATM   26  C   UNL     1       5.837  28.106  57.143  1.00  0.00     0.001 A 
HETATM   27  C   UNL     1       5.707  26.750  56.836  1.00  0.00     0.009 A 
ENDBRANCH  21  22
ENDBRANCH   1  21
TORSDOF 5
ENDMDL
MODEL 3
REMARK VINA RESULT:      -9.2      1.537      2.595
REMARK  5 active torsions:
REMARK  status: ('A' for Active; 'I' for Inactive)
REMARK    1  A    between atoms: C_3  and  N_4 
REMARK       I    between atoms: N_4  and  C_5 
REMARK       I    between atoms: C_5  and  N_6 
REMARK    2  A    between atoms: N_6  and  N_7 
REMARK    3  A    between atoms: N_7  and  C_8 
REMARK    4  A    between atoms: N_7  and  C_14 
REMARK    5  A    between atoms: C_14  and  C_15 
ROOT
HETATM    1  N   UNL     1       6.215  26.247  54.655  1.00  0.00    -0.284 N 
ENDROOT
BRANCH   1   2
HETATM    2  N   UNL     1       5.382  26.873  53.701  1.00  0.00    -0.249 N 
HETATM    3  C   UNL     1       5.751  26.836  52.357  1.00  0.00     0.339 C 
HETATM    4  N   UNL     1       4.711  27.272  51.551  1.00  0.00    -0.306 N 
HETATM    5  O   UNL     1       6.842  26.444  51.962  1.00  0.00    -0.245 OA
HETATM    6  H   UNL     1       3.799  27.085  51.941  1.00  0.00     0.171 HD
HETATM    7  H   UNL     1       4.411  26.933  53.975  1.00  0.00     0.192 HD
BRANCH   4   8
HETATM    8  C   UNL     1       4.755  27.401  50.142  1.00  0.00     0.059 A 
HETATM    9  C   UNL     1       5.207  28.521  49.429  1.00  0.00    -0.032 A 
HETATM   10  C   UNL     1       5.639  29.817  50.054  1.00  0.00     0.050 C 
HETATM   11  C   UNL     1       5.231  28.449  48.024  1.00  0.00     0.028 A 
HETATM   12  C   UNL     1       4.753  27.317  47.387  1.00  0.00     0.117 A 
HETATM   13  N   UNL     1       4.245  26.256  48.039  1.00  0.00    -0.271 NA
HETATM   14  C   UNL     1       4.258  26.329  49.391  1.00  0.00     0.146 A 
ENDBRANCH   4   8
ENDBRANCH   1   2
BRANCH   1  15
HETATM   15  C   UNL     1       6.945  27.101  55.496  1.00  0.00     0.051 A 
HETATM   16  C   UNL     1       6.920  26.951  56.895  1.00  0.00     0.031 A 
HETATM   17  C   UNL     1       7.652  27.788  57.745  1.00  0.00     0.002 A 
HETATM   18  C   UNL     1       8.429  28.812  57.217  1.00  0.00     0.000 A 
HETATM   19  C   UNL     1       8.464  29.000  55.842  1.00  0.00     0.002 A 
HETATM   20  C   UNL     1       7.729  28.158  54.998  1.00  0.00     0.031 A 
ENDBRANCH   1  15
BRANCH   1  21
HETATM   21  C   UNL     1       5.908  24.843  54.971  1.00  0.00     0.187 C 
BRANCH  21  22
HETATM   22  C   UNL     1       7.020  23.857  54.646  1.00  0.00    -0.038 A 
HETATM   23  C   UNL     1       7.225  23.311  53.369  1.00  0.00     0.009 A 
HETATM   24  C   UNL     1       8.238  22.376  53.142  1.00  0.00     0.001 A 
HETATM   25  C   UNL     1       9.054  21.961  54.190  1.00  0.00     0.000 A 
HETATM   26  C   UNL     1       8.858  22.480  55.467  1.00  0.00     0.001 A 
HETATM   27  C   UNL     1       7.849  23.418  55.694  1.00  0.00     0.009 A 
ENDBRANCH  21  22
ENDBRANCH   1  21
TORSDOF 5
ENDMDL
MODEL 4
REMARK VINA RESULT:      -9.2      1.382      4.378
REMARK  5 active torsions:
REMARK  status: ('A' for Active; 'I' for Inactive)
REMARK    1  A    between atoms: C_3  and  N_4 
REMARK       I    between atoms: N_4  and  C_5 
REMARK       I    between atoms: C_5  and  N_6 
REMARK    2  A    between atoms: N_6  and  N_7 
REMARK    3  A    between atoms: N_7  and  C_8 
REMARK    4  A    between atoms: N_7  and  C_14 
REMARK    5  A    between atoms: C_14  and  C_15 
ROOT
HETATM    1  N   UNL     1       7.180  25.743  53.042  1.00  0.00    -0.284 N 
ENDROOT
BRANCH   1   2
HETATM    2  N   UNL     1       6.853  25.873  51.673  1.00  0.00    -0.249 N 
HETATM    3  C   UNL     1       5.521  26.073  51.316  1.00  0.00     0.339 C 
HETATM    4  N   UNL     1       5.421  26.423  49.978  1.00  0.00    -0.306 N 
HETATM    5  O   UNL     1       4.584  25.975  52.098  1.00  0.00    -0.245 OA
HETATM    6  H   UNL     1       6.229  26.920  49.634  1.00  0.00     0.171 HD
HETATM    7  H   UNL     1       7.608  26.221  51.098  1.00  0.00     0.192 HD
BRANCH   4   8
HETATM    8  C   UNL     1       4.215  26.659  49.274  1.00  0.00     0.059 A 
HETATM    9  C   UNL     1       3.480  27.854  49.274  1.00  0.00    -0.032 A 
HETATM   10  C   UNL     1       3.809  29.062  50.104  1.00  0.00     0.050 C 
HETATM   11  C   UNL     1       2.330  27.926  48.467  1.00  0.00     0.028 A 
HETATM   12  C   UNL     1       1.920  26.811  47.755  1.00  0.00     0.117 A 
HETATM   13  N   UNL     1       2.562  25.629  47.791  1.00  0.00    -0.271 NA
HETATM   14  C   UNL     1       3.684  25.586  48.548  1.00  0.00     0.146 A 
ENDBRANCH   4   8
ENDBRANCH   1   2
BRANCH   1  15
HETATM   15  C   UNL     1       7.407  24.438  53.505  1.00  0.00     0.051 A 
HETATM   16  C   UNL     1       7.197  24.091  54.853  1.00  0.00     0.031 A 
HETATM   17  C   UNL     1       7.409  22.791  55.327  1.00  0.00     0.002 A 
HETATM   18  C   UNL     1       7.848  21.796  54.462  1.00  0.00     0.000 A 
HETATM   19  C   UNL     1       8.082  22.107  53.129  1.00  0.00     0.002 A 
HETATM   20  C   UNL     1       7.868  23.410  52.663  1.00  0.00     0.031 A 
ENDBRANCH   1  15
BRANCH   1  21
HETATM   21  C   UNL     1       7.679  26.955  53.713  1.00  0.00     0.187 C 
BRANCH  21  22
HETATM   22  C   UNL     1       6.878  27.385  54.933  1.00  0.00    -0.038 A 
HETATM   23  C   UNL     1       5.499  27.646  54.904  1.00  0.00     0.009 A 
HETATM   24  C   UNL     1       4.827  28.080  56.050  1.00  0.00     0.001 A 
HETATM   25  C   UNL     1       5.525  28.274  57.239  1.00  0.00     0.000 A 
HETATM   26  C   UNL     1       6.896  28.035  57.284  1.00  0.00     0.001 A 
HETATM   27  C   UNL     1       7.567  27.596  56.141  1.00  0.00     0.009 A 
ENDBRANCH  21  22
ENDBRANCH   1  21
TORSDOF 5
ENDMDL
MODEL 5
REMARK VINA RESULT:      -8.9      2.730      7.359
REMARK  5 active torsions:
REMARK  status: ('A' for Active; 'I' for Inactive)
REMARK    1  A    between atoms: C_3  and  N_4 
REMARK       I    between atoms: N_4  and  C_5 
REMARK       I    between atoms: C_5  and  N_6 
REMARK    2  A    between atoms: N_6  and  N_7 
REMARK    3  A    between atoms: N_7  and  C_8 
REMARK    4  A    between atoms: N_7  and  C_14 
REMARK    5  A    between atoms: C_14  and  C_15 
ROOT
HETATM    1  N   UNL     1       5.747  25.057  54.173  1.00  0.00    -0.284 N 
ENDROOT
BRANCH   1   2
HETATM    2  N   UNL     1       5.539  25.715  55.407  1.00  0.00    -0.249 N 
HETATM    3  C   UNL     1       6.308  26.838  55.709  1.00  0.00     0.339 C 
HETATM    4  N   UNL     1       5.805  27.490  56.824  1.00  0.00    -0.306 N 
HETATM    5  O   UNL     1       7.276  27.196  55.050  1.00  0.00    -0.245 OA
HETATM    6  H   UNL     1       4.807  27.384  56.932  1.00  0.00     0.171 HD
HETATM    7  H   UNL     1       4.609  25.600  55.785  1.00  0.00     0.192 HD
BRANCH   4   8
HETATM    8  C   UNL     1       6.364  28.641  57.430  1.00  0.00     0.059 A 
HETATM    9  C   UNL     1       5.821  29.934  57.404  1.00  0.00    -0.032 A 
HETATM   10  C   UNL     1       4.588  30.330  56.643  1.00  0.00     0.050 C 
HETATM   11  C   UNL     1       6.489  30.949  58.112  1.00  0.00     0.028 A 
HETATM   12  C   UNL     1       7.685  30.667  58.752  1.00  0.00     0.117 A 
HETATM   13  N   UNL     1       8.269  29.456  58.734  1.00  0.00    -0.271 NA
HETATM   14  C   UNL     1       7.597  28.483  58.074  1.00  0.00     0.146 A 
ENDBRANCH   4   8
ENDBRANCH   1   2
BRANCH   1  15
HETATM   15  C   UNL     1       6.695  24.023  54.174  1.00  0.00     0.051 A 
HETATM   16  C   UNL     1       7.239  23.525  52.975  1.00  0.00     0.031 A 
HETATM   17  C   UNL     1       8.193  22.501  52.961  1.00  0.00     0.002 A 
HETATM   18  C   UNL     1       8.628  21.936  54.154  1.00  0.00     0.000 A 
HETATM   19  C   UNL     1       8.100  22.391  55.355  1.00  0.00     0.002 A 
HETATM   20  C   UNL     1       7.145  23.416  55.360  1.00  0.00     0.031 A 
ENDBRANCH   1  15
BRANCH   1  21
HETATM   21  C   UNL     1       4.680  25.197  53.169  1.00  0.00     0.187 C 
BRANCH  21  22
HETATM   22  C   UNL     1       4.938  26.255  52.107  1.00  0.00    -0.038 A 
HETATM   23  C   UNL     1       5.113  27.619  52.394  1.00  0.00     0.009 A 
HETATM   24  C   UNL     1       5.303  28.549  51.370  1.00  0.00     0.001 A 
HETATM   25  C   UNL     1       5.308  28.136  50.041  1.00  0.00     0.000 A 
HETATM   26  C   UNL     1       5.123  26.790  49.734  1.00  0.00     0.001 A 
HETATM   27  C   UNL     1       4.937  25.859  50.757  1.00  0.00     0.009 A 
ENDBRANCH  21  22
ENDBRANCH   1  21
TORSDOF 5
ENDMDL
MODEL 6
REMARK VINA RESULT:      -8.7      3.931      7.272
REMARK  5 active torsions:
REMARK  status: ('A' for Active; 'I' for Inactive)
REMARK    1  A    between atoms: C_3  and  N_4 
REMARK       I    between atoms: N_4  and  C_5 
REMARK       I    between atoms: C_5  and  N_6 
REMARK    2  A    between atoms: N_6  and  N_7 
REMARK    3  A    between atoms: N_7  and  C_8 
REMARK    4  A    between atoms: N_7  and  C_14 
REMARK    5  A    between atoms: C_14  and  C_15 
ROOT
HETATM    1  N   UNL     1       6.411  28.070  57.014  1.00  0.00    -0.284 N 
ENDROOT
BRANCH   1   2
HETATM    2  N   UNL     1       6.113  26.730  56.678  1.00  0.00    -0.249 N 
HETATM    3  C   UNL     1       6.946  26.058  55.785  1.00  0.00     0.339 C 
HETATM    4  N   UNL     1       6.652  24.703  55.767  1.00  0.00    -0.306 N 
HETATM    5  O   UNL     1       7.828  26.605  55.135  1.00  0.00    -0.245 OA
HETATM    6  H   UNL     1       6.293  24.361  56.646  1.00  0.00     0.171 HD
HETATM    7  H   UNL     1       5.595  26.230  57.389  1.00  0.00     0.192 HD
BRANCH   4   8
HETATM    8  C   UNL     1       7.277  23.734  54.945  1.00  0.00     0.059 A 
HETATM    9  C   UNL     1       7.090  23.579  53.564  1.00  0.00    -0.032 A 
HETATM   10  C   UNL     1       6.115  24.369  52.737  1.00  0.00     0.050 C 
HETATM   11  C   UNL     1       7.840  22.592  52.899  1.00  0.00     0.028 A 
HETATM   12  C   UNL     1       8.682  21.765  53.623  1.00  0.00     0.117 A 
HETATM   13  N   UNL     1       8.828  21.840  54.959  1.00  0.00    -0.271 NA
HETATM   14  C   UNL     1       8.122  22.816  55.579  1.00  0.00     0.146 A 
ENDBRANCH   4   8
ENDBRANCH   1   2
BRANCH   1  15
HETATM   15  C   UNL     1       5.519  29.042  56.538  1.00  0.00     0.051 A 
HETATM   16  C   UNL     1       4.747  29.824  57.418  1.00  0.00     0.031 A 
HETATM   17  C   UNL     1       3.861  30.805  56.958  1.00  0.00     0.002 A 
HETATM   18  C   UNL     1       3.715  31.029  55.595  1.00  0.00     0.000 A 
HETATM   19  C   UNL     1       4.449  30.265  54.696  1.00  0.00     0.002 A 
HETATM   20  C   UNL     1       5.333  29.285  55.165  1.00  0.00     0.031 A 
ENDBRANCH   1  15
BRANCH   1  21
HETATM   21  C   UNL     1       7.319  28.271  58.155  1.00  0.00     0.187 C 
BRANCH  21  22
HETATM   22  C   UNL     1       8.510  29.175  57.871  1.00  0.00    -0.038 A 
HETATM   23  C   UNL     1       9.525  28.858  56.954  1.00  0.00     0.009 A 
HETATM   24  C   UNL     1      10.616  29.710  56.770  1.00  0.00     0.001 A 
HETATM   25  C   UNL     1      10.720  30.886  57.508  1.00  0.00     0.000 A 
HETATM   26  C   UNL     1       9.731  31.211  58.433  1.00  0.00     0.001 A 
HETATM   27  C   UNL     1       8.637  30.362  58.615  1.00  0.00     0.009 A 
ENDBRANCH  21  22
ENDBRANCH   1  21
TORSDOF 5
ENDMDL
MODEL 7
REMARK VINA RESULT:      -8.6      2.518      6.773
REMARK  5 active torsions:
REMARK  status: ('A' for Active; 'I' for Inactive)
REMARK    1  A    between atoms: C_3  and  N_4 
REMARK       I    between atoms: N_4  and  C_5 
REMARK       I    between atoms: C_5  and  N_6 
REMARK    2  A    between atoms: N_6  and  N_7 
REMARK    3  A    between atoms: N_7  and  C_8 
REMARK    4  A    between atoms: N_7  and  C_14 
REMARK    5  A    between atoms: C_14  and  C_15 
ROOT
HETATM    1  N   UNL     1       5.295  26.809  52.112  1.00  0.00    -0.284 N 
ENDROOT
BRANCH   1   2
HETATM    2  N   UNL     1       6.210  27.616  52.825  1.00  0.00    -0.249 N 
HETATM    3  C   UNL     1       5.829  28.132  54.063  1.00  0.00     0.339 C 
HETATM    4  N   UNL     1       6.919  28.680  54.721  1.00  0.00    -0.306 N 
HETATM    5  O   UNL     1       4.687  28.076  54.501  1.00  0.00    -0.245 OA
HETATM    6  H   UNL     1       7.793  28.233  54.486  1.00  0.00     0.171 HD
HETATM    7  H   UNL     1       7.180  27.430  52.612  1.00  0.00     0.192 HD
BRANCH   4   8
HETATM    8  C   UNL     1       6.885  29.326  55.981  1.00  0.00     0.059 A 
HETATM    9  C   UNL     1       7.638  28.974  57.110  1.00  0.00    -0.032 A 
HETATM   10  C   UNL     1       8.549  27.782  57.194  1.00  0.00     0.050 C 
HETATM   11  C   UNL     1       7.515  29.768  58.265  1.00  0.00     0.028 A 
HETATM   12  C   UNL     1       6.616  30.822  58.281  1.00  0.00     0.117 A 
HETATM   13  N   UNL     1       5.826  31.140  57.239  1.00  0.00    -0.271 NA
HETATM   14  C   UNL     1       5.980  30.385  56.125  1.00  0.00     0.146 A 
ENDBRANCH   4   8
ENDBRANCH   1   2
BRANCH   1  15
HETATM   15  C   UNL     1       5.129  27.113  50.752  1.00  0.00     0.051 A 
HETATM   16  C   UNL     1       4.630  26.161  49.843  1.00  0.00     0.031 A 
HETATM   17  C   UNL     1       4.449  26.454  48.486  1.00  0.00     0.002 A 
HETATM   18  C   UNL     1       4.772  27.713  47.994  1.00  0.00     0.000 A 
HETATM   19  C   UNL     1       5.282  28.672  48.860  1.00  0.00     0.002 A 
HETATM   20  C   UNL     1       5.461  28.371  50.216  1.00  0.00     0.031 A 
ENDBRANCH   1  15
BRANCH   1  21
HETATM   21  C   UNL     1       4.967  25.506  52.711  1.00  0.00     0.187 C 
BRANCH  21  22
HETATM   22  C   UNL     1       6.160  24.733  53.253  1.00  0.00    -0.038 A 
HETATM   23  C   UNL     1       7.126  24.123  52.437  1.00  0.00     0.009 A 
HETATM   24  C   UNL     1       8.176  23.389  52.995  1.00  0.00     0.001 A 
HETATM   25  C   UNL     1       8.271  23.242  54.375  1.00  0.00     0.000 A 
HETATM   26  C   UNL     1       7.315  23.827  55.201  1.00  0.00     0.001 A 
HETATM   27  C   UNL     1       6.268  24.564  54.645  1.00  0.00     0.009 A 
ENDBRANCH  21  22
ENDBRANCH   1  21
TORSDOF 5
ENDMDL
MODEL 8
REMARK VINA RESULT:      -8.6      1.949      7.337
REMARK  5 active torsions:
REMARK  status: ('A' for Active; 'I' for Inactive)
REMARK    1  A    between atoms: C_3  and  N_4 
REMARK       I    between atoms: N_4  and  C_5 
REMARK       I    between atoms: C_5  and  N_6 
REMARK    2  A    between atoms: N_6  and  N_7 
REMARK    3  A    between atoms: N_7  and  C_8 
REMARK    4  A    between atoms: N_7  and  C_14 
REMARK    5  A    between atoms: C_14  and  C_15 
ROOT
HETATM    1  N   UNL     1       6.359  26.771  52.523  1.00  0.00    -0.284 N 
ENDROOT
BRANCH   1   2
HETATM    2  N   UNL     1       6.105  25.521  53.131  1.00  0.00    -0.249 N 
HETATM    3  C   UNL     1       7.145  24.597  53.231  1.00  0.00     0.339 C 
HETATM    4  N   UNL     1       6.788  23.548  54.063  1.00  0.00    -0.306 N 
HETATM    5  O   UNL     1       8.227  24.727  52.672  1.00  0.00    -0.245 OA
HETATM    6  H   UNL     1       6.135  23.815  54.784  1.00  0.00     0.171 HD
HETATM    7  H   UNL     1       5.349  25.533  53.802  1.00  0.00     0.192 HD
BRANCH   4   8
HETATM    8  C   UNL     1       7.588  22.416  54.355  1.00  0.00     0.059 A 
HETATM    9  C   UNL     1       8.338  22.215  55.523  1.00  0.00    -0.032 A 
HETATM   10  C   UNL     1       8.489  23.220  56.629  1.00  0.00     0.050 C 
HETATM   11  C   UNL     1       9.032  20.999  55.665  1.00  0.00     0.028 A 
HETATM   12  C   UNL     1       9.013  20.073  54.635  1.00  0.00     0.117 A 
HETATM   13  N   UNL     1       8.363  20.268  53.473  1.00  0.00    -0.271 NA
HETATM   14  C   UNL     1       7.675  21.429  53.366  1.00  0.00     0.146 A 
ENDBRANCH   4   8
ENDBRANCH   1   2
BRANCH   1  15
HETATM   15  C   UNL     1       5.581  27.083  51.398  1.00  0.00     0.051 A 
HETATM   16  C   UNL     1       5.178  28.405  51.128  1.00  0.00     0.031 A 
HETATM   17  C   UNL     1       4.410  28.732  50.004  1.00  0.00     0.002 A 
HETATM   18  C   UNL     1       4.015  27.740  49.116  1.00  0.00     0.000 A 
HETATM   19  C   UNL     1       4.381  26.422  49.360  1.00  0.00     0.002 A 
HETATM   20  C   UNL     1       5.148  26.103  50.487  1.00  0.00     0.031 A 
ENDBRANCH   1  15
BRANCH   1  21
HETATM   21  C   UNL     1       7.052  27.772  53.350  1.00  0.00     0.187 C 
BRANCH  21  22
HETATM   22  C   UNL     1       6.438  28.002  54.722  1.00  0.00    -0.038 A 
HETATM   23  C   UNL     1       5.162  28.552  54.921  1.00  0.00     0.009 A 
HETATM   24  C   UNL     1       4.671  28.779  56.209  1.00  0.00     0.001 A 
HETATM   25  C   UNL     1       5.452  28.472  57.320  1.00  0.00     0.000 A 
HETATM   26  C   UNL     1       6.726  27.939  57.144  1.00  0.00     0.001 A 
HETATM   27  C   UNL     1       7.216  27.708  55.857  1.00  0.00     0.009 A 
ENDBRANCH  21  22
ENDBRANCH   1  21
TORSDOF 5
ENDMDL
MODEL 9
REMARK VINA RESULT:      -8.5      3.435      7.750
REMARK  5 active torsions:
REMARK  status: ('A' for Active; 'I' for Inactive)
REMARK    1  A    between atoms: C_3  and  N_4 
REMARK       I    between atoms: N_4  and  C_5 
REMARK       I    between atoms: C_5  and  N_6 
REMARK    2  A    between atoms: N_6  and  N_7 
REMARK    3  A    between atoms: N_7  and  C_8 
REMARK    4  A    between atoms: N_7  and  C_14 
REMARK    5  A    between atoms: C_14  and  C_15 
ROOT
HETATM    1  N   UNL     1       6.479  27.625  55.630  1.00  0.00    -0.284 N 
ENDROOT
BRANCH   1   2
HETATM    2  N   UNL     1       7.483  26.631  55.577  1.00  0.00    -0.249 N 
HETATM    3  C   UNL     1       7.109  25.291  55.672  1.00  0.00     0.339 C 
HETATM    4  N   UNL     1       8.174  24.463  55.355  1.00  0.00    -0.306 N 
HETATM    5  O   UNL     1       5.981  24.919  55.970  1.00  0.00    -0.245 OA
HETATM    6  H   UNL     1       8.817  24.874  54.695  1.00  0.00     0.171 HD
HETATM    7  H   UNL     1       8.314  26.908  55.074  1.00  0.00     0.192 HD
BRANCH   4   8
HETATM    8  C   UNL     1       8.157  23.047  55.387  1.00  0.00     0.059 A 
HETATM    9  C   UNL     1       7.947  22.199  54.290  1.00  0.00    -0.032 A 
HETATM   10  C   UNL     1       7.612  22.662  52.900  1.00  0.00     0.050 C 
HETATM   11  C   UNL     1       8.021  20.810  54.501  1.00  0.00     0.028 A 
HETATM   12  C   UNL     1       8.229  20.320  55.779  1.00  0.00     0.117 A 
HETATM   13  N   UNL     1       8.361  21.105  56.863  1.00  0.00    -0.271 NA
HETATM   14  C   UNL     1       8.319  22.440  56.638  1.00  0.00     0.146 A 
ENDBRANCH   4   8
ENDBRANCH   1   2
BRANCH   1  15
HETATM   15  C   UNL     1       5.777  27.861  54.438  1.00  0.00     0.051 A 
HETATM   16  C   UNL     1       4.393  28.119  54.440  1.00  0.00     0.031 A 
HETATM   17  C   UNL     1       3.682  28.367  53.261  1.00  0.00     0.002 A 
HETATM   18  C   UNL     1       4.337  28.357  52.035  1.00  0.00     0.000 A 
HETATM   19  C   UNL     1       5.700  28.090  51.994  1.00  0.00     0.002 A 
HETATM   20  C   UNL     1       6.404  27.842  53.179  1.00  0.00     0.031 A 
ENDBRANCH   1  15
BRANCH   1  21
HETATM   21  C   UNL     1       5.975  27.975  56.967  1.00  0.00     0.187 C 
BRANCH  21  22
HETATM   22  C   UNL     1       6.701  29.130  57.641  1.00  0.00    -0.038 A 
HETATM   23  C   UNL     1       7.985  29.021  58.198  1.00  0.00     0.009 A 
HETATM   24  C   UNL     1       8.582  30.108  58.842  1.00  0.00     0.001 A 
HETATM   25  C   UNL     1       7.900  31.316  58.954  1.00  0.00     0.000 A 
HETATM   26  C   UNL     1       6.620  31.440  58.422  1.00  0.00     0.001 A 
HETATM   27  C   UNL     1       6.025  30.356  57.773  1.00  0.00     0.009 A 
ENDBRANCH  21  22
ENDBRANCH   1  21
TORSDOF 5
ENDMDL
MODEL 10
REMARK VINA RESULT:      -8.3      9.056     13.005
REMARK  5 active torsions:
REMARK  status: ('A' for Active; 'I' for Inactive)
REMARK    1  A    between atoms: C_3  and  N_4 
REMARK       I    between atoms: N_4  and  C_5 
REMARK       I    between atoms: C_5  and  N_6 
REMARK    2  A    between atoms: N_6  and  N_7 
REMARK    3  A    between atoms: N_7  and  C_8 
REMARK    4  A    between atoms: N_7  and  C_14 
REMARK    5  A    between atoms: C_14  and  C_15 
ROOT
HETATM    1  N   UNL     1       5.649  32.953  61.955  1.00  0.00    -0.284 N 
ENDROOT
BRANCH   1   2
HETATM    2  N   UNL     1       5.877  32.199  60.783  1.00  0.00    -0.249 N 
HETATM    3  C   UNL     1       7.184  32.045  60.325  1.00  0.00     0.339 C 
HETATM    4  N   UNL     1       7.244  31.085  59.326  1.00  0.00    -0.306 N 
HETATM    5  O   UNL     1       8.140  32.664  60.775  1.00  0.00    -0.245 OA
HETATM    6  H   UNL     1       6.539  30.369  59.419  1.00  0.00     0.171 HD
HETATM    7  H   UNL     1       5.171  31.499  60.597  1.00  0.00     0.192 HD
BRANCH   4   8
HETATM    8  C   UNL     1       8.406  30.707  58.612  1.00  0.00     0.059 A 
HETATM    9  C   UNL     1       8.587  29.510  57.904  1.00  0.00    -0.032 A 
HETATM   10  C   UNL     1       7.597  28.380  57.864  1.00  0.00     0.050 C 
HETATM   11  C   UNL     1       9.794  29.327  57.205  1.00  0.00     0.028 A 
HETATM   12  C   UNL     1      10.786  30.290  57.285  1.00  0.00     0.117 A 
HETATM   13  N   UNL     1      10.672  31.415  58.014  1.00  0.00    -0.271 NA
HETATM   14  C   UNL     1       9.492  31.589  58.656  1.00  0.00     0.146 A 
ENDBRANCH   4   8
ENDBRANCH   1   2
BRANCH   1  15
HETATM   15  C   UNL     1       5.120  34.240  61.772  1.00  0.00     0.051 A 
HETATM   16  C   UNL     1       5.853  35.391  62.119  1.00  0.00     0.031 A 
HETATM   17  C   UNL     1       5.344  36.681  61.932  1.00  0.00     0.002 A 
HETATM   18  C   UNL     1       4.074  36.859  61.396  1.00  0.00     0.000 A 
HETATM   19  C   UNL     1       3.316  35.745  61.057  1.00  0.00     0.002 A 
HETATM   20  C   UNL     1       3.833  34.458  61.248  1.00  0.00     0.031 A 
ENDBRANCH   1  15
BRANCH   1  21
HETATM   21  C   UNL     1       5.555  32.195  63.213  1.00  0.00     0.187 C 
BRANCH  21  22
HETATM   22  C   UNL     1       5.714  33.030  64.475  1.00  0.00    -0.038 A 
HETATM   23  C   UNL     1       6.957  33.337  65.052  1.00  0.00     0.009 A 
HETATM   24  C   UNL     1       7.036  34.073  66.237  1.00  0.00     0.001 A 
HETATM   25  C   UNL     1       5.875  34.502  66.873  1.00  0.00     0.000 A 
HETATM   26  C   UNL     1       4.632  34.195  66.325  1.00  0.00     0.001 A 
HETATM   27  C   UNL     1       4.552  33.464  65.138  1.00  0.00     0.009 A 
ENDBRANCH  21  22
ENDBRANCH   1  21
TORSDOF 5
ENDMDL
