REMARK  3 active torsions:
REMARK  status: ('A' for Active; 'I' for Inactive)
REMARK    1  A    between atoms: C_3  and  C_4 
REMARK       I    between atoms: C_4  and  N_5 
REMARK    2  A    between atoms: N_5  and  C_6 
REMARK    3  A    between atoms: C_13  and  C_14 
REMARK       I    between atoms: C_14  and  N_15 
ROOT
HETATM    1  C   UNL     1       2.145  -2.432   0.170  1.00  0.00     0.262 C 
HETATM    2  N   UNL     1       0.852  -2.271  -0.284  1.00  0.00    -0.323 N 
HETATM    3  O   UNL     1       2.605  -3.483   0.608  1.00  0.00    -0.267 OA
HETATM    4  H   UNL     1       0.568  -1.319  -0.516  1.00  0.00     0.169 HD
ENDROOT
BRANCH   2   5
HETATM    5  C   UNL     1      -0.190  -3.225  -0.302  1.00  0.00     0.036 A 
HETATM    6  C   UNL     1      -0.030  -4.569   0.060  1.00  0.00     0.046 A 
HETATM    7  C   UNL     1      -1.150  -5.431   0.055  1.00  0.00     0.030 A 
HETATM    8  C   UNL     1      -2.385  -4.924  -0.328  1.00  0.00     0.063 A 
HETATM    9  C   UNL     1      -1.395  -6.802   0.371  1.00  0.00     0.156 A 
HETATM   10  N   UNL     1      -3.256  -5.971  -0.223  1.00  0.00    -0.277 N 
HETATM   11  C   UNL     1      -2.577  -3.597  -0.716  1.00  0.00     0.034 A 
HETATM   12  H   UNL     1      -4.250  -5.964  -0.420  1.00  0.00     0.189 HD
HETATM   13  N   UNL     1      -2.699  -7.119   0.198  1.00  0.00    -0.168 NA
HETATM   14  C   UNL     1      -1.455  -2.762  -0.692  1.00  0.00     0.032 A 
BRANCH   9  15
HETATM   15  C   UNL     1      -0.426  -7.803   0.838  1.00  0.00     0.270 C 
HETATM   16  N   UNL     1      -0.974  -9.028   1.103  1.00  0.00    -0.365 N 
HETATM   17  H   UNL     1      -1.971  -9.152   0.971  1.00  0.00     0.159 HD
HETATM   18  H   UNL     1      -0.389  -9.775   1.442  1.00  0.00     0.159 HD
HETATM   19  O   UNL     1       0.773  -7.599   0.993  1.00  0.00    -0.266 OA
ENDBRANCH   9  15
ENDBRANCH   2   5
BRANCH   1  20
HETATM   20  C   UNL     1       2.992  -1.175   0.172  1.00  0.00     0.114 C 
HETATM   21  C   UNL     1       4.346  -1.264   0.168  1.00  0.00    -0.027 C 
HETATM   22  C   UNL     1       5.117  -2.538  -0.092  1.00  0.00     0.050 C 
HETATM   23  C   UNL     1       5.145  -0.048   0.436  1.00  0.00     0.005 A 
HETATM   24  C   UNL     1       4.492   1.174   0.568  1.00  0.00     0.090 A 
HETATM   25  C   UNL     1       6.536  -0.050   0.628  1.00  0.00     0.015 A 
HETATM   26  O   UNL     1       3.104   1.273   0.428  1.00  0.00    -0.274 OA
HETATM   27  C   UNL     1       5.167   2.362   0.856  1.00  0.00     0.038 A 
HETATM   28  C   UNL     1       2.325   0.151   0.226  1.00  0.00     0.304 C 
HETATM   29  O   UNL     1       1.113   0.269   0.051  1.00  0.00    -0.259 OA
HETATM   30  C   UNL     1       6.546   2.339   1.033  1.00  0.00     0.003 A 
HETATM   31  C   UNL     1       7.230   1.132   0.921  1.00  0.00     0.001 A 
ENDBRANCH   1  20
TORSDOF 3
