REMARK  11 active torsions:
REMARK  status: ('A' for Active; 'I' for Inactive)
REMARK    1  A    between atoms: C_2  and  O_3 
REMARK    2  A    between atoms: O_3  and  C_4 
REMARK    3  A    between atoms: C_4  and  C_5 
REMARK    4  A    between atoms: C_6  and  N_7 
REMARK       I    between atoms: N_7  and  C_8 
REMARK    5  A    between atoms: C_8  and  C_9 
REMARK    6  A    between atoms: C_10  and  N_11 
REMARK    7  A    between atoms: N_11  and  C_12 
REMARK    8  A    between atoms: C_12  and  C_13 
REMARK    9  A    between atoms: C_13  and  C_14 
REMARK   10  A    between atoms: C_14  and  N_15 
REMARK   11  A    between atoms: C_24  and  N_25 
ROOT
HETATM    1  C   UNL     1       8.867   1.528   2.774  1.00  0.00     0.061 A 
HETATM    2  C   UNL     1      10.192   1.815   3.197  1.00  0.00     0.043 A 
HETATM    3  C   UNL     1      10.922   0.746   3.746  1.00  0.00     0.032 A 
HETATM    4  C   UNL     1      10.384  -0.545   3.847  1.00  0.00     0.038 A 
HETATM    5  C   UNL     1       9.077  -0.790   3.420  1.00  0.00     0.104 A 
HETATM    6  C   UNL     1       8.310   0.243   2.885  1.00  0.00     0.055 A 
ENDROOT
BRANCH   1   7
HETATM    7  C   UNL     1       7.969   2.569   2.213  1.00  0.00     0.258 C 
HETATM    8  N   UNL     1       8.510   3.262   1.146  1.00  0.00    -0.316 N 
HETATM    9  H   UNL     1       9.458   3.037   0.855  1.00  0.00     0.169 HD
HETATM   10  O   UNL     1       6.877   2.716   2.743  1.00  0.00    -0.267 OA
BRANCH   8  11
HETATM   11  C   UNL     1       7.879   4.239   0.386  1.00  0.00     0.094 A 
HETATM   12  C   UNL     1       8.485   5.090  -0.534  1.00  0.00     0.080 A 
HETATM   13  C   UNL     1       7.489   5.910  -1.202  1.00  0.00    -0.026 A 
HETATM   14  C   UNL     1       6.212   5.610  -0.765  1.00  0.00    -0.008 A 
HETATM   15  C   UNL     1       7.714   6.946  -2.272  1.00  0.00     0.041 C 
HETATM   16  S   UNL     1       6.198   4.447   0.464  1.00  0.00    -0.075 SA
HETATM   17  C   UNL     1       4.945   6.242  -1.256  1.00  0.00     0.047 C 
HETATM   18  C   UNL     1       5.191   6.977  -2.580  1.00  0.00     0.005 C 
HETATM   19  C   UNL     1       6.471   7.817  -2.519  1.00  0.00     0.005 C 
BRANCH  12  20
HETATM   20  C   UNL     1       9.939   5.110  -0.721  1.00  0.00     0.296 C 
HETATM   21  O   UNL     1      10.709   4.517   0.033  1.00  0.00    -0.259 OA
BRANCH  20  22
HETATM   22  O   UNL     1      10.337   5.862  -1.782  1.00  0.00    -0.318 OA
BRANCH  22  23
HETATM   23  C   UNL     1      11.746   5.933  -2.042  1.00  0.00     0.174 C 
HETATM   24  C   UNL     1      12.148   4.832  -3.003  1.00  0.00     0.034 C 
ENDBRANCH  22  23
ENDBRANCH  20  22
ENDBRANCH  12  20
ENDBRANCH   8  11
ENDBRANCH   1   7
BRANCH   2  25
HETATM   25  N   UNL     1      10.669   3.138   3.233  1.00  0.00    -0.389 N 
HETATM   26  H   UNL     1      10.215   3.726   2.532  1.00  0.00     0.159 HD
BRANCH  25  27
HETATM   27  C   UNL     1      12.091   3.422   3.372  1.00  0.00     0.121 C 
BRANCH  27  28
HETATM   28  C   UNL     1      12.283   4.929   3.571  1.00  0.00     0.047 C 
BRANCH  28  29
HETATM   29  C   UNL     1      11.562   5.409   4.829  1.00  0.00     0.236 C 
BRANCH  29  30
HETATM   30  N   UNL     1      11.932   6.844   5.155  1.00  0.00    -0.067 N 
HETATM   31  H   UNL     1      12.957   6.917   5.163  1.00  0.00     0.280 HD
HETATM   32  C   UNL     1      11.395   7.860   4.147  1.00  0.00     0.261 C 
HETATM   33  C   UNL     1      11.797   9.275   4.579  1.00  0.00     0.195 C 
HETATM   34  O   UNL     1      11.316   9.570   5.893  1.00  0.00    -0.388 OA
HETATM   35  C   UNL     1      11.848   8.669   6.870  1.00  0.00     0.195 C 
HETATM   36  C   UNL     1      11.446   7.224   6.559  1.00  0.00     0.261 C 
ENDBRANCH  29  30
ENDBRANCH  28  29
ENDBRANCH  27  28
ENDBRANCH  25  27
ENDBRANCH   2  25
BRANCH   5  37
HETATM   37  N   UNL     1       8.508  -2.137   3.545  1.00  0.00    -0.116 N 
HETATM   38  O   UNL     1       9.146  -2.966   4.208  1.00  0.00    -0.532 OA
HETATM   39  O   UNL     1       7.433  -2.360   2.975  1.00  0.00    -0.532 OA
ENDBRANCH   5  37
TORSDOF 11
