REMARK  6 active torsions:
REMARK  status: ('A' for Active; 'I' for Inactive)
REMARK    1  A    between atoms: O_2  and  C_3 
REMARK    2  A    between atoms: C_6  and  C_7 
REMARK    3  A    between atoms: C_11  and  C_12 
REMARK       I    between atoms: C_12  and  N_13 
REMARK    4  A    between atoms: N_13  and  N_14 
REMARK       I    between atoms: N_14  and  C_15 
REMARK    5  A    between atoms: C_15  and  C_16 
REMARK    6  A    between atoms: C_17  and  C_18 
ROOT
HETATM    1  C   UNL     1       5.316  -8.590  -0.543  1.00  0.00     0.288 C 
HETATM    2  N   UNL     1       4.109  -9.177  -0.227  1.00  0.00    -0.262 N 
HETATM    3  O   UNL     1       6.324  -9.258  -0.769  1.00  0.00    -0.264 OA
HETATM    4  H   UNL     1       3.254  -8.661  -0.039  1.00  0.00     0.190 HD
ENDROOT
BRANCH   1   5
HETATM    5  C   UNL     1       5.316  -7.155  -0.583  1.00  0.00     0.121 A 
HETATM    6  N   UNL     1       6.442  -6.447  -0.895  1.00  0.00    -0.272 N 
HETATM    7  N   UNL     1       6.284  -5.117  -0.859  1.00  0.00    -0.174 NA
HETATM    8  H   UNL     1       7.354  -6.827  -1.130  1.00  0.00     0.189 HD
HETATM    9  C   UNL     1       4.997  -4.934  -0.524  1.00  0.00     0.089 A 
HETATM   10  C   UNL     1       4.353  -6.193  -0.348  1.00  0.00     0.071 A 
BRANCH   9  11
HETATM   11  C   UNL     1       4.426  -3.593  -0.360  1.00  0.00    -0.005 A 
HETATM   12  C   UNL     1       3.041  -3.388  -0.346  1.00  0.00     0.016 A 
HETATM   13  C   UNL     1       2.515  -2.104  -0.162  1.00  0.00     0.037 A 
HETATM   14  C   UNL     1       3.356  -1.005   0.015  1.00  0.00     0.068 A 
HETATM   15  C   UNL     1       4.736  -1.196  -0.013  1.00  0.00     0.037 A 
HETATM   16  C   UNL     1       5.264  -2.480  -0.200  1.00  0.00     0.016 A 
BRANCH  14  17
HETATM   17  O   UNL     1       2.712   0.187   0.198  1.00  0.00    -0.356 OA
HETATM   18  C   UNL     1       3.525   1.312   0.508  1.00  0.00     0.210 C 
ENDBRANCH  14  17
ENDBRANCH   9  11
ENDBRANCH   1   5
BRANCH   2  19
HETATM   19  N   UNL     1       4.033 -10.569  -0.145  1.00  0.00    -0.267 N 
HETATM   20  C   UNL     1       2.818 -11.144   0.144  1.00  0.00     0.240 C 
HETATM   21  O   UNL     1       1.781 -10.504   0.293  1.00  0.00    -0.271 OA
HETATM   22  H   UNL     1       4.908 -11.086  -0.194  1.00  0.00     0.190 HD
BRANCH  20  23
HETATM   23  C   UNL     1       2.857 -12.623   0.287  1.00  0.00     0.089 A 
HETATM   24  C   UNL     1       2.229 -13.256   1.520  1.00  0.00     0.034 A 
HETATM   25  C   UNL     1       1.608 -13.450   0.156  1.00  0.00     0.025 A 
BRANCH  24  26
HETATM   26  C   UNL     1       2.964 -14.380   2.225  1.00  0.00    -0.031 A 
HETATM   27  C   UNL     1       4.159 -14.172   2.946  1.00  0.00     0.040 A 
HETATM   28 CL   UNL     1       4.868 -12.596   3.055  1.00  0.00    -0.084 Cl
HETATM   29  C   UNL     1       4.813 -15.221   3.601  1.00  0.00     0.024 A 
HETATM   30  C   UNL     1       4.284 -16.509   3.558  1.00  0.00     0.002 A 
HETATM   31  C   UNL     1       3.101 -16.743   2.867  1.00  0.00     0.001 A 
HETATM   32  C   UNL     1       2.449 -15.690   2.216  1.00  0.00     0.009 A 
ENDBRANCH  24  26
ENDBRANCH  20  23
ENDBRANCH   2  19
TORSDOF 6
