REMARK  5 active torsions:
REMARK  status: ('A' for Active; 'I' for Inactive)
REMARK    1  A    between atoms: C_8  and  C_9 
REMARK    2  A    between atoms: C_11  and  O_12 
REMARK    3  A    between atoms: C_14  and  O_15 
REMARK    4  A    between atoms: C_18  and  C_19 
REMARK    5  A    between atoms: C_22  and  O_23 
ROOT
HETATM    1  C   UNL     1       0.825  -0.191  -0.939  1.00  0.00     0.070 C 
HETATM    2  C   UNL     1       2.275  -0.040  -0.678  1.00  0.00     0.033 A 
HETATM    3  N   UNL     1       3.133  -1.102  -0.793  1.00  0.00    -0.282 N 
HETATM    4  H   UNL     1       2.911  -2.062  -1.030  1.00  0.00     0.189 HD
HETATM    5  N   UNL     1       4.421  -0.784  -0.599  1.00  0.00    -0.179 NA
HETATM    6  C   UNL     1       4.383   0.524  -0.335  1.00  0.00     0.066 A 
HETATM    7  C   UNL     1       3.061   1.038  -0.310  1.00  0.00     0.001 A 
HETATM    8  C   UNL     1       2.779   2.492  -0.073  1.00  0.00     0.070 C 
HETATM    9  C   UNL     1       3.997   3.259   0.518  1.00  0.00     0.102 C 
HETATM   10  C   UNL     1       5.335   2.855  -0.166  1.00  0.00     0.071 C 
HETATM   11  C   UNL     1       6.539   3.620   0.407  1.00  0.00     0.047 C 
HETATM   12  C   UNL     1       5.619   1.328  -0.112  1.00  0.00     0.100 C 
ENDROOT
BRANCH   8  13
HETATM   13  C   UNL     1       1.501   2.666   0.737  1.00  0.00    -0.046 A 
HETATM   14  C   UNL     1       1.157   1.845   1.829  1.00  0.00     0.047 A 
HETATM   15  C   UNL     1      -0.017   2.075   2.548  1.00  0.00     0.101 A 
HETATM   16  C   UNL     1      -0.812   3.177   2.235  1.00  0.00     0.099 A 
HETATM   17  C   UNL     1      -0.489   4.013   1.178  1.00  0.00     0.040 A 
HETATM   18  C   UNL     1       0.658   3.752   0.426  1.00  0.00     0.011 A 
BRANCH  15  19
HETATM   19  O   UNL     1      -0.433   1.299   3.599  1.00  0.00    -0.353 OA
HETATM   20  C   UNL     1      -0.401  -0.097   3.297  1.00  0.00     0.210 C 
ENDBRANCH  15  19
BRANCH  16  21
HETATM   21  O   UNL     1      -1.935   3.447   2.964  1.00  0.00    -0.358 OA
HETATM   22  H   UNL     1      -1.945   2.775   3.673  1.00  0.00     0.218 HD
ENDBRANCH  16  21
ENDBRANCH   8  13
BRANCH   9  23
HETATM   23  C   UNL     1       4.098   3.137   2.038  1.00  0.00     0.131 C 
HETATM   24  C   UNL     1       3.769   4.371   2.843  1.00  0.00     0.091 C 
HETATM   25  O   UNL     1       4.468   2.106   2.597  1.00  0.00    -0.298 OA
ENDBRANCH   9  23
BRANCH  10  26
HETATM   26  O   UNL     1       5.238   3.245  -1.555  1.00  0.00    -0.389 OA
HETATM   27  H   UNL     1       5.377   4.205  -1.628  1.00  0.00     0.210 HD
ENDBRANCH  10  26
TORSDOF 5
