REMARK  4 active torsions:
REMARK  status: ('A' for Active; 'I' for Inactive)
REMARK    1  A    between atoms: C_5  and  C_6 
REMARK    2  A    between atoms: C_10  and  C_11 
REMARK       I    between atoms: C_11  and  N_12 
REMARK    3  A    between atoms: N_12  and  N_13 
REMARK    4  A    between atoms: C_14  and  C_15 
ROOT
HETATM    1  C   UNL     1       9.860  -1.570  -1.458  1.00  0.00     0.289 C 
HETATM    2  N   UNL     1       9.557  -2.926  -1.445  1.00  0.00    -0.242 N 
HETATM    3  O   UNL     1      10.964  -1.100  -1.720  1.00  0.00    -0.264 OA
HETATM    4  H   UNL     1       8.711  -3.220  -0.971  1.00  0.00     0.192 HD
ENDROOT
BRANCH   1   5
HETATM    5  C   UNL     1       8.753  -0.710  -1.117  1.00  0.00     0.121 A 
HETATM    6  N   UNL     1       8.918   0.638  -0.964  1.00  0.00    -0.272 N 
HETATM    7  N   UNL     1       7.794   1.297  -0.652  1.00  0.00    -0.174 NA
HETATM    8  H   UNL     1       9.784   1.160  -1.059  1.00  0.00     0.189 HD
HETATM    9  C   UNL     1       6.838   0.355  -0.632  1.00  0.00     0.089 A 
HETATM   10  C   UNL     1       7.405  -0.923  -0.906  1.00  0.00     0.071 A 
BRANCH   9  11
HETATM   11  C   UNL     1       5.435   0.685  -0.359  1.00  0.00    -0.006 A 
HETATM   12  C   UNL     1       4.401  -0.199  -0.699  1.00  0.00     0.014 A 
HETATM   13  C   UNL     1       3.065   0.126  -0.438  1.00  0.00     0.007 A 
HETATM   14  C   UNL     1       2.736   1.343   0.167  1.00  0.00    -0.062 A 
HETATM   15  C   UNL     1       1.309   1.702   0.457  1.00  0.00     0.048 C 
HETATM   16  C   UNL     1       3.763   2.229   0.510  1.00  0.00     0.007 A 
HETATM   17  C   UNL     1       5.097   1.903   0.246  1.00  0.00     0.014 A 
ENDBRANCH   9  11
ENDBRANCH   1   5
BRANCH   2  18
HETATM   18  N   UNL     1      10.426  -3.963  -1.691  1.00  0.00    -0.183 NA
HETATM   19  C   UNL     1      11.412  -3.769  -2.508  1.00  0.00     0.153 C 
BRANCH  19  20
HETATM   20  C   UNL     1      12.358  -4.839  -2.780  1.00  0.00     0.018 A 
HETATM   21  C   UNL     1      13.482  -4.752  -3.669  1.00  0.00     0.004 A 
HETATM   22  C   UNL     1      14.121  -5.990  -3.663  1.00  0.00     0.043 A 
HETATM   23  C   UNL     1      14.015  -3.730  -4.485  1.00  0.00     0.014 A 
HETATM   24  C   UNL     1      15.260  -6.263  -4.431  1.00  0.00     0.030 A 
HETATM   25  N   UNL     1      13.425  -6.798  -2.798  1.00  0.00    -0.358 N 
HETATM   26  C   UNL     1      15.764  -5.235  -5.231  1.00  0.00     0.002 A 
HETATM   27  C   UNL     1      15.153  -3.984  -5.259  1.00  0.00     0.001 A 
HETATM   28  H   UNL     1      13.670  -7.757  -2.595  1.00  0.00     0.166 HD
HETATM   29  C   UNL     1      12.358  -6.126  -2.254  1.00  0.00     0.018 A 
HETATM   30  C   UNL     1      11.446  -6.791  -1.286  1.00  0.00     0.069 C 
ENDBRANCH  19  20
ENDBRANCH   2  18
TORSDOF 4
