REMARK  8 active torsions:
REMARK  status: ('A' for Active; 'I' for Inactive)
REMARK    1  A    between atoms: C_6  and  C_7 
REMARK       I    between atoms: C_7  and  N_8 
REMARK    2  A    between atoms: N_8  and  C_9 
REMARK    3  A    between atoms: C_9  and  C_10 
REMARK    4  A    between atoms: N_15  and  C_17 
REMARK    5  A    between atoms: C_17  and  C_18 
REMARK    6  A    between atoms: C_21  and  C_22 
REMARK    7  A    between atoms: C_23  and  C_24 
REMARK    8  A    between atoms: C_24  and  O_25 
ROOT
HETATM    1  C   UNL     1       8.553   1.218   0.393  1.00  0.00     0.140 C 
HETATM    2  O   UNL     1       9.314   0.000   0.568  1.00  0.00    -0.373 OA
HETATM    3  C   UNL     1       9.385  -0.279   1.984  1.00  0.00     0.064 C 
HETATM    4  C   UNL     1      10.854  -0.553   2.319  1.00  0.00     0.066 C 
HETATM    5  C   UNL     1      11.357  -1.805   1.614  1.00  0.00     0.238 C 
HETATM    6  N   UNL     1      10.496  -2.998   1.957  1.00  0.00    -0.067 N 
HETATM    7  H   UNL     1      10.824  -3.748   1.336  1.00  0.00     0.280 HD
HETATM    8  C   UNL     1       9.055  -2.754   1.579  1.00  0.00     0.238 C 
HETATM    9  C   UNL     1       8.517  -1.509   2.272  1.00  0.00     0.066 C 
HETATM   10  C   UNL     1       8.856   0.969   2.703  1.00  0.00     0.041 C 
HETATM   11  C   UNL     1       8.884   2.032   1.629  1.00  0.00     0.036 C 
ENDROOT
BRANCH   1  12
HETATM   12  C   UNL     1       8.926   1.932  -0.910  1.00  0.00     0.155 C 
BRANCH  12  13
HETATM   13  N   UNL     1       8.647   1.161  -2.110  1.00  0.00    -0.353 N 
HETATM   14  C   UNL     1       7.363   0.835  -2.493  1.00  0.00     0.270 C 
HETATM   15  O   UNL     1       6.403   1.064  -1.763  1.00  0.00    -0.266 OA
HETATM   16  H   UNL     1       9.397   1.034  -2.771  1.00  0.00     0.162 HD
BRANCH  14  17
HETATM   17  C   UNL     1       7.248   0.204  -3.789  1.00  0.00     0.122 A 
HETATM   18  N   UNL     1       6.070  -0.283  -4.312  1.00  0.00    -0.269 N 
HETATM   19  N   UNL     1       6.207  -0.848  -5.527  1.00  0.00    -0.177 NA
HETATM   20  C   UNL     1       4.757  -0.258  -3.706  1.00  0.00     0.180 C 
HETATM   21  C   UNL     1       7.495  -0.679  -5.829  1.00  0.00     0.053 A 
HETATM   22  C   UNL     1       8.033  -1.134  -7.134  1.00  0.00     0.072 C 
HETATM   23  C   UNL     1       8.189  -0.043  -4.777  1.00  0.00     0.065 A 
ENDBRANCH  14  17
ENDBRANCH  12  13
ENDBRANCH   1  12
BRANCH   6  24
HETATM   24  C   UNL     1      10.665  -3.558   3.355  1.00  0.00     0.273 C 
BRANCH  24  25
HETATM   25  C   UNL     1      12.078  -3.963   3.675  1.00  0.00    -0.033 A 
HETATM   26  C   UNL     1      12.854  -3.189   4.552  1.00  0.00     0.010 A 
HETATM   27  C   UNL     1      14.183  -3.530   4.813  1.00  0.00     0.021 A 
HETATM   28  C   UNL     1      14.751  -4.648   4.203  1.00  0.00     0.017 A 
HETATM   29  C   UNL     1      13.984  -5.434   3.342  1.00  0.00     0.021 A 
HETATM   30  C   UNL     1      12.654  -5.096   3.078  1.00  0.00     0.010 A 
BRANCH  28  31
HETATM   31  C   UNL     1      16.117  -4.981   4.454  1.00  0.00    -0.064 C 
HETATM   32  C   UNL     1      17.270  -5.252   4.658  1.00  0.00    -0.064 C 
BRANCH  32  33
HETATM   33  C   UNL     1      18.685  -5.584   4.897  1.00  0.00     0.114 C 
HETATM   34  C   UNL     1      19.439  -4.368   5.432  1.00  0.00     0.060 C 
HETATM   35  C   UNL     1      18.804  -6.760   5.862  1.00  0.00     0.060 C 
BRANCH  33  36
HETATM   36  O   UNL     1      19.276  -5.977   3.660  1.00  0.00    -0.378 OA
HETATM   37  H   UNL     1      19.182  -5.231   3.045  1.00  0.00     0.211 HD
ENDBRANCH  33  36
ENDBRANCH  32  33
ENDBRANCH  28  31
ENDBRANCH  24  25
ENDBRANCH   6  24
TORSDOF 8
