REMARK  8 active torsions:
REMARK  status: ('A' for Active; 'I' for Inactive)
REMARK    1  A    between atoms: C_4  and  C_5 
REMARK    2  A    between atoms: C_5  and  N_6 
REMARK    3  A    between atoms: C_5  and  C_32 
REMARK       I    between atoms: N_10  and  C_11 
REMARK    4  A    between atoms: C_11  and  C_12 
REMARK    5  A    between atoms: C_13  and  N_14 
REMARK    6  A    between atoms: N_14  and  C_15 
REMARK    7  A    between atoms: C_15  and  N_16 
REMARK       I    between atoms: N_16  and  C_17 
REMARK    8  A    between atoms: C_17  and  C_18 
ROOT
HETATM    1  N   UNL     1       3.196   1.277   0.861  1.00  0.00    -0.056 N 
HETATM    2  H   UNL     1       4.200   1.070   0.854  1.00  0.00     0.281 HD
HETATM    3  C   UNL     1       3.032   2.666   0.241  1.00  0.00     0.256 C 
HETATM    4  C   UNL     1       3.809   3.703   1.068  1.00  0.00     0.154 C 
HETATM    5  N   UNL     1       3.367   3.659   2.463  1.00  0.00    -0.345 N 
HETATM    6  C   UNL     1       2.277   4.405   2.953  1.00  0.00     0.256 C 
HETATM    7  O   UNL     1       1.661   4.047   3.954  1.00  0.00    -0.267 OA
HETATM    8  C   UNL     1       3.599   2.356   3.099  1.00  0.00     0.154 C 
HETATM    9  C   UNL     1       2.805   1.264   2.345  1.00  0.00     0.256 C 
ENDROOT
BRANCH   6  10
HETATM   10  C   UNL     1       1.742   5.533   2.149  1.00  0.00     0.058 A 
HETATM   11  C   UNL     1       2.493   6.639   1.711  1.00  0.00     0.049 A 
HETATM   12  C   UNL     1       1.947   7.477   0.728  1.00  0.00     0.030 A 
HETATM   13  C   UNL     1       0.645   7.278   0.262  1.00  0.00     0.002 A 
HETATM   14  C   UNL     1      -0.123   6.229   0.758  1.00  0.00     0.001 A 
HETATM   15  C   UNL     1       0.425   5.352   1.692  1.00  0.00     0.019 A 
BRANCH  11  16
HETATM   16  N   UNL     1       3.801   6.955   2.138  1.00  0.00    -0.337 N 
HETATM   17  H   UNL     1       4.393   7.441   1.472  1.00  0.00     0.168 HD
BRANCH  16  18
HETATM   18  C   UNL     1       4.392   6.713   3.333  1.00  0.00     0.157 C 
HETATM   19  S   UNL     1       6.043   6.445   3.373  1.00  0.00    -0.047 SA
BRANCH  18  20
HETATM   20  N   UNL     1       3.707   6.803   4.507  1.00  0.00    -0.199 NA
HETATM   21  C   UNL     1       2.743   7.783   4.727  1.00  0.00     0.261 C 
HETATM   22  O   UNL     1       1.656   7.819   4.161  1.00  0.00    -0.271 OA
HETATM   23  H   UNL     1       4.376   6.779   5.272  1.00  0.00     0.139 HD
BRANCH  21  24
HETATM   24  C   UNL     1       3.121   8.750   5.740  1.00  0.00     0.137 A 
HETATM   25  O   UNL     1       4.339   8.634   6.359  1.00  0.00    -0.318 OA
HETATM   26  C   UNL     1       4.456   9.689   7.207  1.00  0.00     0.143 A 
HETATM   27  C   UNL     1       3.334  10.481   7.151  1.00  0.00     0.027 A 
HETATM   28  C   UNL     1       2.469   9.873   6.211  1.00  0.00     0.044 A 
ENDBRANCH  21  24
ENDBRANCH  18  20
ENDBRANCH  16  18
ENDBRANCH  11  16
ENDBRANCH   6  10
BRANCH   1  29
HETATM   29  C   UNL     1       2.574   0.189  -0.020  1.00  0.00     0.254 C 
BRANCH  29  30
HETATM   30  C   UNL     1       1.067   0.311  -0.233  1.00  0.00    -0.023 A 
HETATM   31  C   UNL     1       0.586   0.686  -1.505  1.00  0.00     0.009 A 
HETATM   32  C   UNL     1      -0.779   0.864  -1.741  1.00  0.00     0.001 A 
HETATM   33  C   UNL     1      -1.694   0.665  -0.714  1.00  0.00     0.000 A 
HETATM   34  C   UNL     1      -1.246   0.284   0.547  1.00  0.00     0.001 A 
HETATM   35  C   UNL     1       0.120   0.111   0.786  1.00  0.00     0.009 A 
ENDBRANCH  29  30
BRANCH  29  36
HETATM   36  C   UNL     1       3.170  -1.191   0.251  1.00  0.00    -0.023 A 
HETATM   37  C   UNL     1       4.499  -1.436  -0.164  1.00  0.00     0.009 A 
HETATM   38  C   UNL     1       5.108  -2.675   0.042  1.00  0.00     0.001 A 
HETATM   39  C   UNL     1       4.405  -3.696   0.668  1.00  0.00     0.000 A 
HETATM   40  C   UNL     1       3.096  -3.478   1.086  1.00  0.00     0.001 A 
HETATM   41  C   UNL     1       2.483  -2.238   0.882  1.00  0.00     0.009 A 
ENDBRANCH  29  36
ENDBRANCH   1  29
TORSDOF 8
