REMARK  10 active torsions:
REMARK  status: ('A' for Active; 'I' for Inactive)
REMARK    1  A    between atoms: C_6  and  C_7 
REMARK    2  A    between atoms: C_7  and  N_8 
REMARK    3  A    between atoms: N_8  and  C_10 
REMARK    4  A    between atoms: N_8  and  C_20 
REMARK    5  A    between atoms: C_10  and  C_11 
REMARK    6  A    between atoms: N_12  and  C_13 
REMARK    7  A    between atoms: C_20  and  C_21 
REMARK    8  A    between atoms: C_21  and  C_22 
REMARK    9  A    between atoms: C_22  and  N_23 
REMARK   10  A    between atoms: C_30  and  O_31 
ROOT
HETATM    1  N   UNL     1       4.506  -5.708  -0.299  1.00  0.00    -0.060 N 
HETATM    2  H   UNL     1       3.614  -5.727   0.216  1.00  0.00     0.280 HD
ENDROOT
BRANCH   1   3
HETATM    3  C   UNL     1       5.173  -4.409   0.179  1.00  0.00     0.278 C 
BRANCH   3   4
HETATM    4  C   UNL     1       6.391  -3.940  -0.548  1.00  0.00     0.021 A 
HETATM    5  C   UNL     1       6.323  -2.949  -1.530  1.00  0.00     0.027 A 
HETATM    6  C   UNL     1       7.492  -2.486  -2.158  1.00  0.00    -0.006 A 
HETATM    7  C   UNL     1       8.733  -3.047  -1.777  1.00  0.00     0.075 A 
HETATM    8  C   UNL     1       7.434  -1.475  -3.131  1.00  0.00     0.014 A 
HETATM    9  C   UNL     1       9.895  -2.575  -2.400  1.00  0.00    -0.032 A 
HETATM   10  N   UNL     1       8.792  -4.007  -0.831  1.00  0.00    -0.223 NA
HETATM   11  C   UNL     1      11.257  -3.087  -2.008  1.00  0.00     0.050 C 
HETATM   12  C   UNL     1       9.824  -1.555  -3.364  1.00  0.00     0.009 A 
HETATM   13  C   UNL     1       8.599  -1.011  -3.730  1.00  0.00     0.002 A 
HETATM   14  C   UNL     1       7.656  -4.402  -0.253  1.00  0.00     0.170 A 
BRANCH  14  15
HETATM   15  O   UNL     1       7.867  -5.341   0.700  1.00  0.00    -0.344 OA
HETATM   16  H   UNL     1       8.850  -5.345   0.680  1.00  0.00     0.219 HD
ENDBRANCH  14  15
ENDBRANCH   3   4
ENDBRANCH   1   3
BRANCH   1  17
HETATM   17  C   UNL     1       4.015  -5.603  -1.768  1.00  0.00     0.316 C 
BRANCH  17  18
HETATM   18  C   UNL     1       2.788  -4.780  -1.846  1.00  0.00     0.163 A 
HETATM   19  N   UNL     1       2.102  -4.338  -2.956  1.00  0.00    -0.253 N 
HETATM   20  N   UNL     1       1.086  -3.561  -2.524  1.00  0.00    -0.002 NA
HETATM   21  N   UNL     1       1.112  -3.601  -1.204  1.00  0.00     0.018 NA
HETATM   22  N   UNL     1       2.149  -4.364  -0.766  1.00  0.00    -0.145 NA
BRANCH  19  23
HETATM   23  C   UNL     1       2.257  -4.538  -4.405  1.00  0.00     0.042 C 
HETATM   24  C   UNL     1       3.298  -5.609  -4.782  1.00  0.00     0.039 C 
HETATM   25  C   UNL     1       0.907  -4.992  -5.009  1.00  0.00     0.039 C 
HETATM   26  C   UNL     1       2.682  -3.209  -5.058  1.00  0.00     0.039 C 
ENDBRANCH  19  23
ENDBRANCH  17  18
ENDBRANCH   1  17
BRANCH   1  27
HETATM   27  C   UNL     1       5.270  -6.985  -0.058  1.00  0.00     0.237 C 
BRANCH  27  28
HETATM   28  C   UNL     1       5.564  -7.302   1.420  1.00  0.00     0.055 C 
BRANCH  28  29
HETATM   29  C   UNL     1       4.362  -7.799   2.225  1.00  0.00     0.236 C 
BRANCH  29  30
HETATM   30  N   UNL     1       4.750  -8.060   3.668  1.00  0.00    -0.067 N 
HETATM   31  H   UNL     1       5.323  -7.280   4.021  1.00  0.00     0.280 HD
HETATM   32  C   UNL     1       3.514  -8.120   4.588  1.00  0.00     0.261 C 
HETATM   33  C   UNL     1       3.957  -8.356   6.036  1.00  0.00     0.195 C 
HETATM   34  O   UNL     1       4.713  -9.564   6.140  1.00  0.00    -0.388 OA
HETATM   35  C   UNL     1       5.908  -9.518   5.358  1.00  0.00     0.195 C 
HETATM   36  C   UNL     1       5.575  -9.344   3.871  1.00  0.00     0.261 C 
ENDBRANCH  29  30
ENDBRANCH  28  29
ENDBRANCH  27  28
ENDBRANCH   1  27
TORSDOF 10
