REMARK  5 active torsions:
REMARK  status: ('A' for Active; 'I' for Inactive)
REMARK    1  A    between atoms: C_8  and  C_9 
REMARK    2  A    between atoms: C_9  and  N_10 
REMARK       I    between atoms: N_10  and  C_11 
REMARK       I    between atoms: C_11  and  N_12 
REMARK    3  A    between atoms: C_13  and  C_14 
REMARK    4  A    between atoms: C_14  and  C_15 
REMARK    5  A    between atoms: C_15  and  C_16 
ROOT
HETATM    1  N   UNL     1      -0.232  -3.848   0.985  1.00  0.00    -0.339 N 
HETATM    2  C   UNL     1       0.757  -3.852   0.042  1.00  0.00     0.318 C 
HETATM    3  N   UNL     1       1.573  -4.973   0.033  1.00  0.00    -0.330 N 
HETATM    4  C   UNL     1       1.432  -6.164   0.900  1.00  0.00     0.089 C 
HETATM    5  C   UNL     1       1.390  -7.441   0.039  1.00  0.00     0.025 C 
HETATM    6  C   UNL     1       2.541  -7.524  -0.960  1.00  0.00     0.004 C 
HETATM    7  C   UNL     1       2.604  -6.259  -1.810  1.00  0.00     0.020 C 
HETATM    8  C   UNL     1       2.671  -5.010  -0.938  1.00  0.00     0.128 C 
HETATM    9  O   UNL     1       0.881  -2.924  -0.754  1.00  0.00    -0.247 OA
HETATM   10  H   UNL     1      -0.031  -4.300   1.859  1.00  0.00     0.164 HD
ENDROOT
BRANCH   4  11
HETATM   11  C   UNL     1       2.542  -6.236   1.970  1.00  0.00     0.030 C 
BRANCH  11  12
HETATM   12  C   UNL     1       2.508  -5.050   2.939  1.00  0.00     0.040 C 
BRANCH  12  13
HETATM   13  C   UNL     1       3.612  -5.137   3.963  1.00  0.00    -0.058 A 
HETATM   14  C   UNL     1       4.874  -4.593   3.688  1.00  0.00     0.007 A 
HETATM   15  C   UNL     1       5.903  -4.685   4.626  1.00  0.00     0.001 A 
HETATM   16  C   UNL     1       5.681  -5.325   5.844  1.00  0.00     0.000 A 
HETATM   17  C   UNL     1       4.432  -5.875   6.124  1.00  0.00     0.001 A 
HETATM   18  C   UNL     1       3.401  -5.785   5.187  1.00  0.00     0.007 A 
ENDBRANCH  12  13
ENDBRANCH  11  12
ENDBRANCH   4  11
BRANCH   1  19
HETATM   19  C   UNL     1      -1.148  -2.735   1.072  1.00  0.00     0.167 C 
BRANCH  19  20
HETATM   20  C   UNL     1      -2.354  -3.198   1.808  1.00  0.00     0.009 A 
HETATM   21  C   UNL     1      -2.747  -2.909   3.103  1.00  0.00     0.034 A 
HETATM   22  C   UNL     1      -2.135  -2.072   4.161  1.00  0.00     0.070 C 
HETATM   23  N   UNL     1      -3.925  -3.575   3.294  1.00  0.00    -0.282 N 
HETATM   24  H   UNL     1      -4.511  -3.590   4.122  1.00  0.00     0.189 HD
HETATM   25  N   UNL     1      -4.320  -4.289   2.232  1.00  0.00    -0.179 NA
HETATM   26  C   UNL     1      -3.375  -4.059   1.315  1.00  0.00     0.060 A 
HETATM   27  C   UNL     1      -3.459  -4.692  -0.026  1.00  0.00     0.073 C 
ENDBRANCH  19  20
ENDBRANCH   1  19
TORSDOF 5
