REMARK  9 active torsions:
REMARK  status: ('A' for Active; 'I' for Inactive)
REMARK    1  A    between atoms: C_2  and  O_3 
REMARK    2  A    between atoms: O_3  and  C_4 
REMARK    3  A    between atoms: C_7  and  C_8 
REMARK    4  A    between atoms: C_9  and  C_10 
REMARK       I    between atoms: C_10  and  N_11 
REMARK    5  A    between atoms: N_11  and  C_12 
REMARK    6  A    between atoms: C_22  and  S_23 
REMARK    7  A    between atoms: S_23  and  C_24 
REMARK    8  A    between atoms: C_24  and  C_25 
REMARK       I    between atoms: C_25  and  N_26 
REMARK    9  A    between atoms: N_26  and  C_27 
ROOT
HETATM    1  C   UNL     1       8.167  -0.453  -2.794  1.00  0.00     0.104 C 
HETATM    2  C   UNL     1       8.830   0.835  -2.299  1.00  0.00     0.046 C 
HETATM    3  C   UNL     1       9.874   0.777  -1.441  1.00  0.00     0.019 C 
HETATM    4  C   UNL     1      10.482   1.954  -0.717  1.00  0.00     0.069 C 
HETATM    5  N   UNL     1      10.462  -0.448  -1.170  1.00  0.00    -0.353 N 
HETATM    6  C   UNL     1      10.190  -1.626  -1.850  1.00  0.00     0.087 C 
HETATM    7  C   UNL     1       9.054  -1.685  -2.599  1.00  0.00     0.055 C 
HETATM    8  C   UNL     1       8.622  -2.977  -3.273  1.00  0.00     0.019 C 
HETATM    9  N   UNL     1       8.263  -4.048  -3.833  1.00  0.00    -0.096 N 
HETATM   10  H   UNL     1      11.302  -0.405  -0.593  1.00  0.00     0.166 HD
ENDROOT
BRANCH   1  11
HETATM   11  C   UNL     1       6.787  -0.683  -2.176  1.00  0.00    -0.044 A 
HETATM   12  C   UNL     1       5.697  -1.011  -2.998  1.00  0.00     0.011 A 
HETATM   13  C   UNL     1       4.427  -1.235  -2.454  1.00  0.00     0.037 A 
HETATM   14  C   UNL     1       4.224  -1.132  -1.079  1.00  0.00     0.068 A 
HETATM   15  C   UNL     1       5.303  -0.812  -0.254  1.00  0.00     0.037 A 
HETATM   16  C   UNL     1       6.575  -0.599  -0.791  1.00  0.00     0.011 A 
BRANCH  14  17
HETATM   17  O   UNL     1       3.037  -1.311  -0.424  1.00  0.00    -0.352 OA
BRANCH  17  18
HETATM   18  C   UNL     1       1.924  -1.738  -1.208  1.00  0.00     0.171 C 
HETATM   19  C   UNL     1       0.732  -1.892  -0.281  1.00  0.00     0.034 C 
ENDBRANCH  17  18
ENDBRANCH  14  17
ENDBRANCH   1  11
BRANCH   6  20
HETATM   20  S   UNL     1      11.266  -3.025  -1.860  1.00  0.00    -0.102 SA
BRANCH  20  21
HETATM   21  C   UNL     1      12.678  -2.603  -0.827  1.00  0.00     0.184 C 
BRANCH  21  22
HETATM   22  C   UNL     1      13.355  -1.306  -1.222  1.00  0.00     0.231 C 
HETATM   23  N   UNL     1      13.948  -1.310  -2.469  1.00  0.00    -0.326 N 
HETATM   24  H   UNL     1      13.635  -2.030  -3.109  1.00  0.00     0.169 HD
HETATM   25  O   UNL     1      13.299  -0.344  -0.455  1.00  0.00    -0.272 OA
BRANCH  23  26
HETATM   26  C   UNL     1      14.793  -0.301  -2.992  1.00  0.00     0.040 A 
HETATM   27  C   UNL     1      15.005  -0.220  -4.384  1.00  0.00    -0.035 A 
HETATM   28  C   UNL     1      14.297  -1.117  -5.362  1.00  0.00     0.050 C 
HETATM   29  C   UNL     1      15.898   0.744  -4.889  1.00  0.00     0.009 A 
HETATM   30  C   UNL     1      16.569   1.618  -4.036  1.00  0.00     0.001 A 
HETATM   31  C   UNL     1      16.354   1.542  -2.666  1.00  0.00     0.002 A 
HETATM   32  C   UNL     1      15.472   0.590  -2.149  1.00  0.00     0.030 A 
ENDBRANCH  23  26
ENDBRANCH  21  22
ENDBRANCH  20  21
ENDBRANCH   6  20
BRANCH   2  33
HETATM   33  C   UNL     1       8.280   2.114  -2.852  1.00  0.00     0.255 C 
HETATM   34  N   UNL     1       9.269   2.985  -3.270  1.00  0.00    -0.323 N 
HETATM   35  H   UNL     1      10.227   2.675  -3.171  1.00  0.00     0.169 HD
HETATM   36  O   UNL     1       7.074   2.268  -2.969  1.00  0.00    -0.268 OA
BRANCH  34  37
HETATM   37  C   UNL     1       9.113   4.296  -3.766  1.00  0.00     0.035 A 
HETATM   38  C   UNL     1       7.881   4.882  -4.056  1.00  0.00     0.029 A 
HETATM   39  C   UNL     1       7.817   6.197  -4.528  1.00  0.00     0.002 A 
HETATM   40  C   UNL     1       8.983   6.940  -4.703  1.00  0.00     0.000 A 
HETATM   41  C   UNL     1      10.217   6.366  -4.413  1.00  0.00     0.002 A 
HETATM   42  C   UNL     1      10.282   5.048  -3.954  1.00  0.00     0.029 A 
ENDBRANCH  34  37
ENDBRANCH   2  33
TORSDOF 9
