REMARK  8 active torsions:
REMARK  status: ('A' for Active; 'I' for Inactive)
REMARK    1  A    between atoms: C_2  and  N_3 
REMARK       I    between atoms: N_3  and  C_4 
REMARK       I    between atoms: C_4  and  N_5 
REMARK       I    between atoms: N_5  and  C_6 
REMARK    2  A    between atoms: C_6  and  C_7 
REMARK    3  A    between atoms: C_7  and  S_8 
REMARK    4  A    between atoms: C_7  and  C_29 
REMARK    5  A    between atoms: S_8  and  C_9 
REMARK    6  A    between atoms: N_10  and  C_11 
REMARK    7  A    between atoms: C_18  and  C_19 
REMARK    8  A    between atoms: C_19  and  N_20 
ROOT
HETATM    1  C   UNL     1       4.174  -3.733   2.726  1.00  0.00     0.197 A 
HETATM    2  N   UNL     1       5.519  -3.804   3.050  1.00  0.00    -0.274 N 
HETATM    3  C   UNL     1       5.770  -5.171   3.052  1.00  0.00     0.161 A 
HETATM    4  N   UNL     1       4.655  -5.836   2.805  1.00  0.00    -0.132 NA
HETATM    5  N   UNL     1       3.662  -4.935   2.610  1.00  0.00    -0.122 NA
ENDROOT
BRANCH   1   6
HETATM    6  S   UNL     1       3.323  -2.311   2.229  1.00  0.00    -0.071 SA
BRANCH   6   7
HETATM    7  C   UNL     1       2.910  -2.710   0.479  1.00  0.00     0.175 C 
BRANCH   7   8
HETATM    8  C   UNL     1       1.542  -3.409   0.350  1.00  0.00     0.224 C 
HETATM    9  N   UNL     1       1.339  -4.525   1.143  1.00  0.00    -0.178 NA
HETATM   10  C   UNL     1       0.126  -4.707   1.716  1.00  0.00     0.300 C 
HETATM   11  H   UNL     1       2.015  -4.560   1.898  1.00  0.00     0.141 HD
HETATM   12  N   UNL     1      -0.907  -5.136   0.957  1.00  0.00    -0.348 N 
HETATM   13  O   UNL     1      -0.011  -4.540   2.926  1.00  0.00    -0.254 OA
HETATM   14  H   UNL     1      -1.755  -5.282   1.492  1.00  0.00     0.163 HD
HETATM   15  O   UNL     1       0.771  -3.078  -0.554  1.00  0.00    -0.278 OA
BRANCH  12  16
HETATM   16  C   UNL     1      -0.861  -5.699  -0.380  1.00  0.00     0.119 C 
HETATM   17  C   UNL     1      -1.941  -5.104  -1.262  1.00  0.00     0.026 C 
ENDBRANCH  12  16
ENDBRANCH   7   8
BRANCH   7  18
HETATM   18  C   UNL     1       4.064  -3.347  -0.297  1.00  0.00    -0.035 A 
HETATM   19  C   UNL     1       4.005  -4.648  -0.822  1.00  0.00     0.009 A 
HETATM   20  C   UNL     1       5.077  -5.182  -1.544  1.00  0.00     0.001 A 
HETATM   21  C   UNL     1       6.230  -4.430  -1.747  1.00  0.00     0.000 A 
HETATM   22  C   UNL     1       6.312  -3.139  -1.233  1.00  0.00     0.001 A 
HETATM   23  C   UNL     1       5.238  -2.600  -0.520  1.00  0.00     0.009 A 
ENDBRANCH   7  18
ENDBRANCH   6   7
ENDBRANCH   1   6
BRANCH   2  24
HETATM   24  C   UNL     1       6.419  -2.746   3.331  1.00  0.00     0.043 A 
HETATM   25  C   UNL     1       6.003  -1.679   4.143  1.00  0.00     0.033 A 
HETATM   26  C   UNL     1       6.893  -0.646   4.448  1.00  0.00     0.044 A 
HETATM   27  C   UNL     1       8.183  -0.676   3.937  1.00  0.00     0.116 A 
HETATM   28  F   UNL     1       9.036   0.313   4.232  1.00  0.00    -0.206 F 
HETATM   29  C   UNL     1       8.601  -1.717   3.117  1.00  0.00     0.044 A 
HETATM   30  C   UNL     1       7.719  -2.755   2.806  1.00  0.00     0.033 A 
ENDBRANCH   2  24
BRANCH   3  31
HETATM   31  C   UNL     1       7.029  -5.881   3.395  1.00  0.00     0.315 C 
BRANCH  31  32
HETATM   32  N   UNL     1       7.010  -7.274   2.771  1.00  0.00    -0.064 N 
HETATM   33  H   UNL     1       6.023  -7.572   2.874  1.00  0.00     0.280 HD
HETATM   34  C   UNL     1       7.286  -7.239   1.286  1.00  0.00     0.235 C 
HETATM   35  C   UNL     1       7.036  -8.618   0.694  1.00  0.00     0.028 C 
HETATM   36  C   UNL     1       7.859  -9.687   1.404  1.00  0.00     0.003 C 
HETATM   37  C   UNL     1       7.626  -9.658   2.911  1.00  0.00     0.028 C 
HETATM   38  C   UNL     1       7.863  -8.272   3.498  1.00  0.00     0.235 C 
ENDBRANCH  31  32
ENDBRANCH   3  31
TORSDOF 8
