REMARK  7 active torsions:
REMARK  status: ('A' for Active; 'I' for Inactive)
REMARK    1  A    between atoms: O_1  and  C_2 
REMARK    2  A    between atoms: C_2  and  C_3 
REMARK    3  A    between atoms: C_3  and  C_4 
REMARK    4  A    between atoms: C_4  and  N_5 
REMARK    5  A    between atoms: C_4  and  C_21 
REMARK       I    between atoms: N_5  and  C_6 
REMARK       I    between atoms: C_6  and  N_8 
REMARK    6  A    between atoms: N_8  and  C_9 
REMARK    7  A    between atoms: C_12  and  C_15 
ROOT
HETATM    1  N   UNL     1       4.679  -1.498   0.104  1.00  0.00    -0.334 N 
HETATM    2  C   UNL     1       4.586  -0.545   1.099  1.00  0.00     0.321 C 
HETATM    3  O   UNL     1       4.263   0.615   0.884  1.00  0.00    -0.247 OA
HETATM    4  N   UNL     1       4.828  -1.118   2.330  1.00  0.00    -0.309 N 
HETATM    5  H   UNL     1       5.397  -2.191   0.253  1.00  0.00     0.165 HD
HETATM    6  H   UNL     1       4.718  -2.120   2.358  1.00  0.00     0.170 HD
ENDROOT
BRANCH   1   7
HETATM    7  C   UNL     1       4.382  -1.161  -1.283  1.00  0.00     0.121 C 
BRANCH   7   8
HETATM    8  C   UNL     1       3.794  -2.375  -2.017  1.00  0.00     0.056 C 
BRANCH   8   9
HETATM    9  C   UNL     1       2.418  -2.750  -1.480  1.00  0.00     0.166 C 
BRANCH   9  10
HETATM   10  O   UNL     1       1.935  -3.873  -2.207  1.00  0.00    -0.401 OA
HETATM   11  H   UNL     1       1.039  -4.062  -1.878  1.00  0.00     0.209 HD
ENDBRANCH   9  10
ENDBRANCH   8   9
ENDBRANCH   7   8
BRANCH   7  12
HETATM   12  C   UNL     1       5.618  -0.629  -1.991  1.00  0.00    -0.032 A 
HETATM   13  C   UNL     1       5.628   0.690  -2.478  1.00  0.00     0.009 A 
HETATM   14  C   UNL     1       6.740   1.199  -3.154  1.00  0.00     0.004 A 
HETATM   15  C   UNL     1       7.864   0.399  -3.343  1.00  0.00     0.042 A 
HETATM   16  C   UNL     1       7.865  -0.901  -2.853  1.00  0.00     0.117 A 
HETATM   17  F   UNL     1       8.947  -1.671  -3.028  1.00  0.00    -0.206 F 
HETATM   18  C   UNL     1       6.760  -1.421  -2.184  1.00  0.00     0.051 A 
ENDBRANCH   7  12
ENDBRANCH   1   7
BRANCH   4  19
HETATM   19  C   UNL     1       4.863  -0.452   3.570  1.00  0.00     0.036 A 
HETATM   20  C   UNL     1       4.710  -1.221   4.727  1.00  0.00     0.030 A 
HETATM   21  C   UNL     1       4.706  -0.615   5.991  1.00  0.00     0.014 A 
HETATM   22  C   UNL     1       4.878   0.769   6.129  1.00  0.00    -0.023 A 
HETATM   23  C   UNL     1       5.071   1.524   4.963  1.00  0.00     0.014 A 
HETATM   24  C   UNL     1       5.060   0.921   3.697  1.00  0.00     0.030 A 
BRANCH  22  25
HETATM   25  C   UNL     1       4.851   1.388   7.448  1.00  0.00     0.010 A 
HETATM   26  C   UNL     1       4.755   0.814   8.741  1.00  0.00     0.152 A 
HETATM   27  N   UNL     1       4.739   1.723   9.720  1.00  0.00    -0.187 NA
HETATM   28  N   UNL     1       4.820   2.889   9.063  1.00  0.00    -0.289 N 
HETATM   29  H   UNL     1       4.821   3.747   9.603  1.00  0.00     0.188 HD
HETATM   30  C   UNL     1       4.888   2.744   7.707  1.00  0.00     0.123 A 
ENDBRANCH  22  25
ENDBRANCH   4  19
TORSDOF 7
