REMARK  7 active torsions:
REMARK  status: ('A' for Active; 'I' for Inactive)
REMARK    1  A    between atoms: C_2  and  N_3 
REMARK    2  A    between atoms: C_2  and  C_17 
REMARK       I    between atoms: N_3  and  C_4 
REMARK    3  A    between atoms: C_4  and  C_5 
REMARK    4  A    between atoms: C_6  and  N_7 
REMARK    5  A    between atoms: C_17  and  O_18 
REMARK    6  A    between atoms: C_17  and  C_19 
REMARK    7  A    between atoms: C_22  and  O_23 
ROOT
HETATM    1  N   UNL     1       3.047  -0.943  -1.349  1.00  0.00    -0.350 N 
HETATM    2  C   UNL     1       2.587  -2.209  -1.096  1.00  0.00     0.255 C 
HETATM    3  O   UNL     1       1.623  -2.417  -0.363  1.00  0.00    -0.268 OA
HETATM    4  H   UNL     1       3.588  -0.847  -2.203  1.00  0.00     0.163 HD
ENDROOT
BRANCH   1   5
HETATM    5  C   UNL     1       2.331   0.256  -0.885  1.00  0.00     0.114 C 
HETATM    6  C   UNL     1       1.066   0.475  -1.724  1.00  0.00     0.035 C 
BRANCH   5   7
HETATM    7  C   UNL     1       3.287   1.485  -0.918  1.00  0.00     0.173 C 
BRANCH   7   8
HETATM    8  O   UNL     1       3.560   1.886  -2.268  1.00  0.00    -0.389 OA
HETATM    9  H   UNL     1       3.791   1.077  -2.755  1.00  0.00     0.210 HD
ENDBRANCH   7   8
BRANCH   7  10
HETATM   10  C   UNL     1       2.776   2.659  -0.105  1.00  0.00    -0.028 A 
HETATM   11  C   UNL     1       2.819   2.601   1.296  1.00  0.00     0.012 A 
HETATM   12  C   UNL     1       2.345   3.665   2.068  1.00  0.00     0.037 A 
HETATM   13  C   UNL     1       1.821   4.808   1.462  1.00  0.00     0.068 A 
HETATM   14  C   UNL     1       1.775   4.877   0.071  1.00  0.00     0.037 A 
HETATM   15  C   UNL     1       2.248   3.811  -0.705  1.00  0.00     0.012 A 
BRANCH  13  16
HETATM   16  O   UNL     1       1.395   5.772   2.334  1.00  0.00    -0.356 OA
HETATM   17  C   UNL     1       0.844   6.952   1.764  1.00  0.00     0.210 C 
ENDBRANCH  13  16
ENDBRANCH   7  10
ENDBRANCH   5   7
ENDBRANCH   1   5
BRANCH   2  18
HETATM   18  C   UNL     1       3.347  -3.377  -1.641  1.00  0.00     0.079 A 
HETATM   19  C   UNL     1       4.046  -3.542  -2.845  1.00  0.00     0.165 A 
HETATM   20  N   UNL     1       4.684  -4.724  -3.155  1.00  0.00    -0.241 NA
HETATM   21  C   UNL     1       4.633  -5.751  -2.284  1.00  0.00     0.119 A 
HETATM   22  C   UNL     1       3.966  -5.683  -1.085  1.00  0.00     0.020 A 
HETATM   23  C   UNL     1       3.323  -4.491  -0.771  1.00  0.00     0.022 A 
BRANCH  19  24
HETATM   24  N   UNL     1       4.151  -2.554  -3.883  1.00  0.00    -0.226 N 
HETATM   25  N   UNL     1       3.686  -1.275  -3.798  1.00  0.00    -0.179 NA
HETATM   26  C   UNL     1       3.952  -0.731  -4.989  1.00  0.00     0.141 A 
HETATM   27  C   UNL     1       4.645  -1.600  -5.838  1.00  0.00     0.040 A 
HETATM   28  C   UNL     1       4.776  -2.752  -5.106  1.00  0.00     0.122 A 
ENDBRANCH  19  24
ENDBRANCH   2  18
TORSDOF 7
