REMARK  6 active torsions:
REMARK  status: ('A' for Active; 'I' for Inactive)
REMARK    1  A    between atoms: O_2  and  C_3 
REMARK    2  A    between atoms: C_4  and  C_5 
REMARK    3  A    between atoms: C_5  and  N_6 
REMARK       I    between atoms: N_6  and  C_7 
REMARK    4  A    between atoms: C_7  and  C_8 
REMARK    5  A    between atoms: C_8  and  O_9 
REMARK    6  A    between atoms: N_10  and  C_11 
ROOT
HETATM    1  C   UNL     1      -1.075   3.334   2.730  1.00  0.00     0.256 C 
HETATM    2  N   UNL     1      -0.809   3.161   4.169  1.00  0.00    -0.254 N 
HETATM    3  C   UNL     1       0.146   2.236   4.575  1.00  0.00     0.330 C 
HETATM    4  O   UNL     1       0.716   2.232   5.667  1.00  0.00    -0.246 OA
HETATM    5  N   UNL     1       0.507   1.266   3.689  1.00  0.00    -0.308 N 
HETATM    6  C   UNL     1      -0.058   1.075   2.438  1.00  0.00     0.048 A 
HETATM    7  C   UNL     1      -0.896   2.057   1.931  1.00  0.00     0.034 A 
HETATM    8  C   UNL     1       0.218  -0.091   1.721  1.00  0.00     0.030 A 
HETATM    9  C   UNL     1      -0.373  -0.289   0.474  1.00  0.00     0.002 A 
HETATM   10  C   UNL     1      -1.220   0.682  -0.053  1.00  0.00     0.001 A 
HETATM   11  C   UNL     1      -1.474   1.853   0.665  1.00  0.00     0.015 A 
HETATM   12  H   UNL     1       1.140   0.573   4.067  1.00  0.00     0.170 HD
ENDROOT
BRANCH   1  13
HETATM   13  C   UNL     1      -0.165   4.465   2.098  1.00  0.00     0.279 C 
HETATM   14  N   UNL     1       1.092   4.646   2.632  1.00  0.00    -0.352 N 
HETATM   15  H   UNL     1       1.321   4.204   3.513  1.00  0.00     0.162 HD
HETATM   16  O   UNL     1      -0.583   5.114   1.133  1.00  0.00    -0.268 OA
BRANCH  14  17
HETATM   17  C   UNL     1       2.004   5.664   2.146  1.00  0.00     0.164 C 
BRANCH  17  18
HETATM   18  C   UNL     1       3.298   5.124   1.575  1.00  0.00    -0.007 A 
HETATM   19  C   UNL     1       4.179   6.014   0.920  1.00  0.00     0.076 A 
HETATM   20  C   UNL     1       5.393   5.546   0.406  1.00  0.00     0.037 A 
HETATM   21  C   UNL     1       5.740   4.200   0.530  1.00  0.00     0.003 A 
HETATM   22  C   UNL     1       4.880   3.315   1.171  1.00  0.00     0.001 A 
HETATM   23  C   UNL     1       3.669   3.773   1.692  1.00  0.00     0.011 A 
BRANCH  19  24
HETATM   24  O   UNL     1       3.769   7.322   0.858  1.00  0.00    -0.355 OA
HETATM   25  C   UNL     1       4.461   8.175  -0.047  1.00  0.00     0.210 C 
ENDBRANCH  19  24
ENDBRANCH  17  18
ENDBRANCH  14  17
ENDBRANCH   1  13
BRANCH   1  26
HETATM   26  O   UNL     1      -2.455   3.695   2.560  1.00  0.00    -0.359 OA
HETATM   27  H   UNL     1      -2.455   4.347   1.833  1.00  0.00     0.213 HD
ENDBRANCH   1  26
BRANCH   2  28
HETATM   28  C   UNL     1      -1.395   4.061   5.136  1.00  0.00     0.043 A 
HETATM   29  C   UNL     1      -1.816   5.360   4.806  1.00  0.00     0.031 A 
HETATM   30  C   UNL     1      -2.409   6.199   5.760  1.00  0.00     0.026 A 
HETATM   31  C   UNL     1      -2.604   5.746   7.059  1.00  0.00     0.034 A 
HETATM   32 CL   UNL     1      -3.346   6.771   8.224  1.00  0.00    -0.084 Cl
HETATM   33  C   UNL     1      -2.207   4.465   7.414  1.00  0.00     0.026 A 
HETATM   34  C   UNL     1      -1.607   3.634   6.460  1.00  0.00     0.031 A 
ENDBRANCH   2  28
TORSDOF 6
