REMARK  4 active torsions:
REMARK  status: ('A' for Active; 'I' for Inactive)
REMARK    1  A    between atoms: C_4  and  C_5 
REMARK    2  A    between atoms: N_8  and  C_9 
REMARK    3  A    between atoms: C_12  and  C_13 
REMARK       I    between atoms: C_13  and  N_14 
REMARK    4  A    between atoms: N_14  and  N_15 
ROOT
HETATM    1  C   UNL     1       7.419   1.409  -0.595  1.00  0.00     0.034 A 
HETATM    2  C   UNL     1       8.427   2.332  -0.897  1.00  0.00     0.030 A 
HETATM    3  C   UNL     1       9.702   1.914  -1.318  1.00  0.00     0.019 A 
HETATM    4  C   UNL     1       9.991   0.551  -1.436  1.00  0.00     0.033 A 
HETATM    5  C   UNL     1       8.998  -0.381  -1.120  1.00  0.00     0.019 A 
HETATM    6  C   UNL     1       7.736   0.045  -0.698  1.00  0.00     0.030 A 
ENDROOT
BRANCH   4   7
HETATM    7  C   UNL     1      11.292   0.026  -1.941  1.00  0.00     0.271 C 
HETATM    8  N   UNL     1      12.403   0.834  -1.760  1.00  0.00    -0.242 N 
HETATM    9  H   UNL     1      12.359   1.703  -1.228  1.00  0.00     0.192 HD
HETATM   10  O   UNL     1      11.316  -1.087  -2.464  1.00  0.00    -0.266 OA
BRANCH   8  11
HETATM   11  N   UNL     1      13.617   0.394  -2.211  1.00  0.00    -0.166 NA
HETATM   12  C   UNL     1      14.649   1.132  -1.962  1.00  0.00     0.157 A 
HETATM   13  C   UNL     1      14.719   2.462  -1.212  1.00  0.00     0.277 A 
HETATM   14  C   UNL     1      16.017   0.825  -2.362  1.00  0.00     0.027 A 
HETATM   15  O   UNL     1      13.764   3.038  -0.733  1.00  0.00    -0.266 OA
HETATM   16  N   UNL     1      16.051   2.820  -1.215  1.00  0.00    -0.321 N 
HETATM   17  C   UNL     1      16.813   1.866  -1.888  1.00  0.00     0.048 A 
HETATM   18  H   UNL     1      16.403   3.662  -0.786  1.00  0.00     0.169 HD
HETATM   19  C   UNL     1      18.175   1.875  -2.101  1.00  0.00     0.030 A 
HETATM   20  C   UNL     1      18.721   0.799  -2.813  1.00  0.00     0.002 A 
HETATM   21  C   UNL     1      17.908  -0.251  -3.291  1.00  0.00     0.001 A 
HETATM   22  C   UNL     1      16.530  -0.245  -3.065  1.00  0.00     0.016 A 
ENDBRANCH   8  11
ENDBRANCH   4   7
BRANCH   1  23
HETATM   23  N   UNL     1       6.114   1.750  -0.198  1.00  0.00    -0.335 N 
HETATM   24  C   UNL     1       5.508   2.958  -0.137  1.00  0.00     0.171 A 
HETATM   25  N   UNL     1       6.045   4.150  -0.267  1.00  0.00    -0.223 NA
HETATM   26  S   UNL     1       3.799   2.981   0.152  1.00  0.00    -0.061 SA
HETATM   27  C   UNL     1       5.083   5.146  -0.166  1.00  0.00     0.076 A 
HETATM   28  C   UNL     1       3.803   4.688   0.066  1.00  0.00     0.085 A 
HETATM   29  H   UNL     1       5.503   0.952  -0.079  1.00  0.00     0.168 HD
BRANCH  27  30
HETATM   30  C   UNL     1       5.438   6.558  -0.262  1.00  0.00    -0.007 A 
HETATM   31  C   UNL     1       4.523   7.523  -0.712  1.00  0.00     0.014 A 
HETATM   32  C   UNL     1       4.885   8.872  -0.775  1.00  0.00     0.001 A 
HETATM   33  C   UNL     1       6.164   9.270  -0.392  1.00  0.00     0.000 A 
HETATM   34  C   UNL     1       7.085   8.321   0.047  1.00  0.00     0.001 A 
HETATM   35  C   UNL     1       6.725   6.972   0.107  1.00  0.00     0.014 A 
ENDBRANCH  27  30
ENDBRANCH   1  23
TORSDOF 4
