REMARK  5 active torsions:
REMARK  status: ('A' for Active; 'I' for Inactive)
REMARK    1  A    between atoms: O_2  and  C_3 
REMARK    2  A    between atoms: C_6  and  C_7 
REMARK    3  A    between atoms: C_11  and  N_12 
REMARK       I    between atoms: N_15  and  C_16 
REMARK    4  A    between atoms: C_16  and  C_17 
REMARK    5  A    between atoms: C_17  and  C_18 
ROOT
HETATM    1  N   UNL     1       4.728   5.310  -6.977  1.00  0.00    -0.363 N 
HETATM    2  C   UNL     1       5.208   4.247  -7.884  1.00  0.00     0.144 C 
HETATM    3  C   UNL     1       4.685   4.474  -9.309  1.00  0.00     0.145 C 
HETATM    4  N   UNL     1       4.944   5.829  -9.812  1.00  0.00    -0.349 N 
HETATM    5  C   UNL     1       4.969   5.985 -11.195  1.00  0.00     0.224 C 
HETATM    6  O   UNL     1       4.919   5.016 -11.959  1.00  0.00    -0.273 OA
HETATM    7  C   UNL     1       4.577   6.904  -8.879  1.00  0.00     0.145 C 
HETATM    8  C   UNL     1       5.077   6.665  -7.437  1.00  0.00     0.144 C 
ENDROOT
BRANCH   1   9
HETATM    9  C   UNL     1       4.472   5.010  -5.669  1.00  0.00     0.122 A 
HETATM   10  N   UNL     1       4.445   5.933  -4.655  1.00  0.00    -0.262 N 
HETATM   11  N   UNL     1       4.100   5.438  -3.456  1.00  0.00    -0.173 NA
HETATM   12  H   UNL     1       4.643   6.922  -4.713  1.00  0.00     0.191 HD
HETATM   13  C   UNL     1       3.892   4.130  -3.682  1.00  0.00     0.090 A 
HETATM   14  C   UNL     1       4.143   3.824  -5.048  1.00  0.00     0.084 A 
BRANCH  13  15
HETATM   15  C   UNL     1       3.424   3.222  -2.630  1.00  0.00    -0.005 A 
HETATM   16  C   UNL     1       2.833   3.729  -1.463  1.00  0.00     0.016 A 
HETATM   17  C   UNL     1       2.319   2.872  -0.481  1.00  0.00     0.037 A 
HETATM   18  C   UNL     1       2.390   1.490  -0.651  1.00  0.00     0.068 A 
HETATM   19  C   UNL     1       3.008   0.977  -1.793  1.00  0.00     0.037 A 
HETATM   20  C   UNL     1       3.517   1.832  -2.776  1.00  0.00     0.016 A 
BRANCH  18  21
HETATM   21  O   UNL     1       1.911   0.548   0.216  1.00  0.00    -0.356 OA
HETATM   22  C   UNL     1       1.047   1.015   1.245  1.00  0.00     0.210 C 
ENDBRANCH  18  21
ENDBRANCH  13  15
ENDBRANCH   1   9
BRANCH   5  23
HETATM   23  C   UNL     1       5.088   7.387 -11.772  1.00  0.00     0.141 C 
BRANCH  23  24
HETATM   24  C   UNL     1       3.777   8.122 -11.942  1.00  0.00    -0.048 A 
HETATM   25  C   UNL     1       3.735   9.515 -11.768  1.00  0.00     0.031 A 
HETATM   26  C   UNL     1       2.549  10.219 -11.982  1.00  0.00     0.034 A 
HETATM   27 CL   UNL     1       2.522  11.927 -11.767  1.00  0.00    -0.084 Cl
HETATM   28  C   UNL     1       1.392   9.554 -12.378  1.00  0.00     0.024 A 
HETATM   29  C   UNL     1       1.424   8.173 -12.568  1.00  0.00     0.002 A 
HETATM   30  C   UNL     1       2.610   7.464 -12.360  1.00  0.00     0.007 A 
ENDBRANCH  23  24
ENDBRANCH   5  23
TORSDOF 5
