REMARK  8 active torsions:
REMARK  status: ('A' for Active; 'I' for Inactive)
REMARK    1  A    between atoms: C_2  and  O_3 
REMARK    2  A    between atoms: O_3  and  C_4 
REMARK    3  A    between atoms: C_5  and  N_6 
REMARK       I    between atoms: N_6  and  C_7 
REMARK    4  A    between atoms: C_7  and  C_8 
REMARK    5  A    between atoms: C_8  and  C_9 
REMARK    6  A    between atoms: C_9  and  S_10 
REMARK    7  A    between atoms: S_10  and  C_11 
REMARK    8  A    between atoms: N_12  and  C_13 
ROOT
HETATM    1  C   UNL     1       9.529  -1.931   0.299  1.00  0.00     0.177 A 
HETATM    2  N   UNL     1      10.576  -2.848   0.554  1.00  0.00    -0.276 N 
HETATM    3  C   UNL     1      10.244  -4.252   0.597  1.00  0.00     0.124 A 
HETATM    4  N   UNL     1      11.141  -5.205   0.760  1.00  0.00    -0.384 N 
HETATM    5  H   UNL     1      10.873  -6.178   0.762  1.00  0.00     0.157 HD
HETATM    6  H   UNL     1      12.120  -4.971   0.862  1.00  0.00     0.157 HD
HETATM    7  C   UNL     1       8.867  -4.583   0.407  1.00  0.00     0.081 A 
HETATM    8  C   UNL     1       7.967  -3.559   0.138  1.00  0.00     0.187 A 
HETATM    9  N   UNL     1       6.725  -3.997  -0.010  1.00  0.00    -0.153 NA
HETATM   10  N   UNL     1       6.841  -5.327   0.164  1.00  0.00    -0.280 N 
HETATM   11  H   UNL     1       5.998  -5.890   0.098  1.00  0.00     0.189 HD
HETATM   12  C   UNL     1       8.131  -5.745   0.424  1.00  0.00     0.042 A 
HETATM   13  C   UNL     1       8.452  -7.171   0.651  1.00  0.00     0.071 C 
HETATM   14  N   UNL     1       8.280  -2.210   0.061  1.00  0.00    -0.202 NA
ENDROOT
BRANCH   1  15
HETATM   15  S   UNL     1       9.897  -0.186   0.300  1.00  0.00    -0.091 SA
BRANCH  15  16
HETATM   16  C   UNL     1       8.268   0.558   0.649  1.00  0.00     0.091 C 
BRANCH  16  17
HETATM   17  C   UNL     1       7.664   0.198   2.002  1.00  0.00     0.113 C 
BRANCH  17  18
HETATM   18  C   UNL     1       8.504   0.695   3.157  1.00  0.00     0.223 C 
HETATM   19  N   UNL     1       8.307   2.038   3.426  1.00  0.00    -0.325 N 
HETATM   20  H   UNL     1       7.393   2.408   3.201  1.00  0.00     0.169 HD
HETATM   21  O   UNL     1       9.222  -0.081   3.783  1.00  0.00    -0.273 OA
BRANCH  19  22
HETATM   22  C   UNL     1       9.086   2.806   4.320  1.00  0.00     0.068 A 
HETATM   23  C   UNL     1      10.477   2.672   4.464  1.00  0.00     0.095 A 
HETATM   24  C   UNL     1      11.167   3.495   5.364  1.00  0.00     0.039 A 
HETATM   25  C   UNL     1      10.480   4.440   6.127  1.00  0.00     0.003 A 
HETATM   26  C   UNL     1       9.106   4.595   5.968  1.00  0.00     0.002 A 
HETATM   27  C   UNL     1       8.415   3.794   5.055  1.00  0.00     0.032 A 
BRANCH  23  28
HETATM   28  O   UNL     1      11.175   1.890   3.578  1.00  0.00    -0.349 OA
BRANCH  28  29
HETATM   29  C   UNL     1      12.053   0.946   4.198  1.00  0.00     0.171 C 
HETATM   30  C   UNL     1      13.482   1.235   3.774  1.00  0.00     0.034 C 
ENDBRANCH  28  29
ENDBRANCH  23  28
ENDBRANCH  19  22
ENDBRANCH  17  18
ENDBRANCH  16  17
ENDBRANCH  15  16
ENDBRANCH   1  15
BRANCH   2  31
HETATM   31  C   UNL     1      11.928  -2.424   0.725  1.00  0.00     0.044 A 
HETATM   32  C   UNL     1      12.673  -1.940  -0.361  1.00  0.00     0.054 A 
HETATM   33  C   UNL     1      14.013  -1.596  -0.190  1.00  0.00     0.036 A 
HETATM   34 CL   UNL     1      14.918  -1.005  -1.529  1.00  0.00    -0.084 Cl
HETATM   35  C   UNL     1      14.631  -1.742   1.050  1.00  0.00     0.024 A 
HETATM   36  C   UNL     1      13.901  -2.229   2.134  1.00  0.00     0.004 A 
HETATM   37  C   UNL     1      12.556  -2.569   1.973  1.00  0.00     0.030 A 
ENDBRANCH   2  31
TORSDOF 8
