REMARK  8 active torsions:
REMARK  status: ('A' for Active; 'I' for Inactive)
REMARK    1  A    between atoms: C_8  and  C_9 
REMARK    2  A    between atoms: C_9  and  C_10 
REMARK       I    between atoms: C_10  and  N_11 
REMARK    3  A    between atoms: N_11  and  C_27 
REMARK    4  A    between atoms: N_11  and  C_12 
REMARK    5  A    between atoms: C_12  and  C_13 
REMARK    6  A    between atoms: C_12  and  C_22 
REMARK       I    between atoms: C_13  and  N_14 
REMARK    7  A    between atoms: N_14  and  C_15 
REMARK    8  A    between atoms: C_27  and  C_28 
ROOT
HETATM    1  C   UNL     1       2.236  -2.601  -1.831  1.00  0.00     0.225 C 
HETATM    2  N   UNL     1       2.297  -3.652  -0.913  1.00  0.00    -0.330 N 
HETATM    3  O   UNL     1       3.119  -2.430  -2.677  1.00  0.00    -0.273 OA
ENDROOT
BRANCH   2   4
HETATM    4  C   UNL     1       3.415  -4.603  -1.053  1.00  0.00     0.165 C 
BRANCH   4   5
HETATM    5  C   UNL     1       2.968  -6.021  -1.335  1.00  0.00    -0.037 A 
HETATM    6  C   UNL     1       2.453  -6.363  -2.598  1.00  0.00     0.048 A 
HETATM    7  C   UNL     1       2.016  -7.656  -2.797  1.00  0.00     0.105 A 
HETATM    8  C   UNL     1       2.093  -8.608  -1.809  1.00  0.00     0.105 A 
HETATM    9  O   UNL     1       1.458  -8.141  -3.939  1.00  0.00    -0.323 OA
HETATM   10  O   UNL     1       1.600  -9.812  -2.204  1.00  0.00    -0.323 OA
HETATM   11  C   UNL     1       2.621  -8.324  -0.571  1.00  0.00     0.040 A 
HETATM   12  C   UNL     1       1.200  -9.509  -3.556  1.00  0.00     0.352 A 
HETATM   13  C   UNL     1       3.065  -7.019  -0.339  1.00  0.00     0.012 A 
ENDBRANCH   4   5
ENDBRANCH   2   4
BRANCH   2  14
HETATM   14  C   UNL     1       1.506  -3.651   0.347  1.00  0.00     0.219 C 
BRANCH  14  15
HETATM   15  C   UNL     1       2.356  -4.003   1.611  1.00  0.00     0.246 C 
HETATM   16  N   UNL     1       2.060  -5.160   2.294  1.00  0.00    -0.354 N 
HETATM   17  H   UNL     1       1.224  -5.655   2.004  1.00  0.00     0.162 HD
HETATM   18  O   UNL     1       3.316  -3.295   1.918  1.00  0.00    -0.271 OA
BRANCH  16  19
HETATM   19  C   UNL     1       2.637  -5.599   3.566  1.00  0.00     0.084 C 
HETATM   20  C   UNL     1       4.151  -5.870   3.548  1.00  0.00     0.025 C 
HETATM   21  C   UNL     1       5.047  -4.717   3.992  1.00  0.00     0.002 C 
HETATM   22  C   UNL     1       4.536  -4.026   5.248  1.00  0.00     0.000 C 
HETATM   23  C   UNL     1       3.088  -3.579   5.097  1.00  0.00     0.002 C 
HETATM   24  C   UNL     1       2.173  -4.750   4.757  1.00  0.00     0.025 C 
ENDBRANCH  16  19
ENDBRANCH  14  15
BRANCH  14  25
HETATM   25  C   UNL     1       0.189  -4.403   0.216  1.00  0.00     0.014 A 
HETATM   26  S   UNL     1      -0.970  -4.304   1.496  1.00  0.00    -0.104 SA
HETATM   27  C   UNL     1      -2.090  -5.287   0.665  1.00  0.00     0.050 A 
HETATM   28  C   UNL     1      -1.637  -5.640  -0.582  1.00  0.00     0.008 A 
HETATM   29  C   UNL     1      -0.342  -5.112  -0.848  1.00  0.00     0.017 A 
ENDBRANCH  14  25
ENDBRANCH   2  14
BRANCH   1  30
HETATM   30  C   UNL     1       0.999  -1.719  -1.871  1.00  0.00     0.144 C 
BRANCH  30  31
HETATM   31  C   UNL     1       0.951  -0.515  -0.978  1.00  0.00    -0.021 A 
HETATM   32  C   UNL     1       1.914   0.018  -0.052  1.00  0.00    -0.001 A 
HETATM   33  C   UNL     1       3.220  -0.335   0.348  1.00  0.00     0.014 A 
HETATM   34  C   UNL     1       1.323   1.121   0.574  1.00  0.00     0.042 A 
HETATM   35  C   UNL     1       3.862   0.388   1.362  1.00  0.00     0.001 A 
HETATM   36  C   UNL     1       3.235   1.470   1.971  1.00  0.00     0.002 A 
HETATM   37  C   UNL     1       1.955   1.863   1.580  1.00  0.00     0.030 A 
HETATM   38  N   UNL     1       0.080   1.290   0.018  1.00  0.00    -0.365 N 
HETATM   39  H   UNL     1      -0.566   2.024   0.273  1.00  0.00     0.165 HD
HETATM   40  C   UNL     1      -0.158   0.313  -0.905  1.00  0.00     0.097 A 
ENDBRANCH  30  31
ENDBRANCH   1  30
TORSDOF 8
