REMARK  8 active torsions:
REMARK  status: ('A' for Active; 'I' for Inactive)
REMARK    1  A    between atoms: C_2  and  C_3 
REMARK    2  A    between atoms: C_3  and  C_4 
REMARK    3  A    between atoms: C_7  and  N_8 
REMARK       I    between atoms: N_8  and  C_9 
REMARK    4  A    between atoms: C_9  and  C_10 
REMARK    5  A    between atoms: C_13  and  N_14 
REMARK       I    between atoms: N_14  and  C_15 
REMARK    6  A    between atoms: C_15  and  C_16 
REMARK    7  A    between atoms: C_16  and  C_17 
REMARK    8  A    between atoms: C_19  and  N_20 
ROOT
HETATM    1  C   UNL     1       4.194   7.116  -3.734  1.00  0.00     0.032 A 
HETATM    2  C   UNL     1       4.522   8.413  -3.321  1.00  0.00     0.019 A 
HETATM    3  C   UNL     1       5.151   8.625  -2.084  1.00  0.00     0.030 A 
HETATM    4  C   UNL     1       5.442   7.552  -1.242  1.00  0.00     0.034 A 
HETATM    5  C   UNL     1       5.080   6.261  -1.641  1.00  0.00     0.030 A 
HETATM    6  C   UNL     1       4.462   6.044  -2.875  1.00  0.00     0.019 A 
ENDROOT
BRANCH   4   7
HETATM    7  N   UNL     1       6.090   7.667   0.003  1.00  0.00    -0.327 N 
HETATM    8  C   UNL     1       6.540   8.813   0.626  1.00  0.00     0.223 C 
HETATM    9  O   UNL     1       6.418   9.962   0.215  1.00  0.00    -0.273 OA
HETATM   10  H   UNL     1       6.196   6.789   0.515  1.00  0.00     0.169 HD
BRANCH   8  11
HETATM   11  C   UNL     1       7.227   8.545   1.954  1.00  0.00     0.128 C 
BRANCH  11  12
HETATM   12  C   UNL     1       6.190   8.241   3.022  1.00  0.00     0.158 C 
HETATM   13  S   UNL     1       6.811   8.602   4.694  1.00  0.00    -0.077 SA
HETATM   14  C   UNL     1       6.072   7.127   5.302  1.00  0.00     0.168 C 
HETATM   15  N   UNL     1       5.651   6.308   4.393  1.00  0.00    -0.189 NA
HETATM   16  C   UNL     1       5.889   6.753   3.117  1.00  0.00     0.260 C 
HETATM   17  O   UNL     1       5.843   6.029   2.126  1.00  0.00    -0.270 OA
BRANCH  14  18
HETATM   18  N   UNL     1       5.926   6.943   6.658  1.00  0.00    -0.360 N 
HETATM   19  C   UNL     1       6.870   7.458   7.655  1.00  0.00     0.125 C 
HETATM   20  C   UNL     1       6.106   7.959   8.879  1.00  0.00     0.020 C 
HETATM   21  C   UNL     1       5.196   6.874   9.449  1.00  0.00     0.003 C 
HETATM   22  C   UNL     1       4.291   6.300   8.363  1.00  0.00     0.020 C 
HETATM   23  C   UNL     1       5.099   5.834   7.152  1.00  0.00     0.125 C 
ENDBRANCH  14  18
ENDBRANCH  11  12
ENDBRANCH   8  11
ENDBRANCH   4   7
BRANCH   1  24
HETATM   24  C   UNL     1       3.573   6.801  -5.058  1.00  0.00     0.256 C 
HETATM   25  N   UNL     1       3.839   7.694  -6.080  1.00  0.00    -0.323 N 
HETATM   26  H   UNL     1       4.386   8.513  -5.862  1.00  0.00     0.169 HD
HETATM   27  O   UNL     1       2.914   5.770  -5.147  1.00  0.00    -0.267 OA
BRANCH  25  28
HETATM   28  C   UNL     1       3.510   7.543  -7.446  1.00  0.00     0.035 A 
HETATM   29  C   UNL     1       2.923   6.400  -7.986  1.00  0.00     0.030 A 
HETATM   30  C   UNL     1       2.688   6.300  -9.363  1.00  0.00     0.010 A 
HETATM   31  C   UNL     1       3.016   7.349 -10.229  1.00  0.00    -0.054 A 
HETATM   32  C   UNL     1       3.591   8.503  -9.682  1.00  0.00     0.010 A 
HETATM   33  C   UNL     1       3.838   8.597  -8.307  1.00  0.00     0.030 A 
BRANCH  31  34
HETATM   34  C   UNL     1       2.809   7.245 -11.731  1.00  0.00     0.014 C 
HETATM   35  C   UNL     1       3.862   6.307 -12.333  1.00  0.00     0.015 C 
BRANCH  34  36
HETATM   36  C   UNL     1       1.394   6.790 -12.144  1.00  0.00     0.004 C 
HETATM   37  C   UNL     1       0.304   7.765 -11.718  1.00  0.00     0.006 C 
ENDBRANCH  34  36
ENDBRANCH  31  34
ENDBRANCH  25  28
ENDBRANCH   1  24
TORSDOF 8
