REMARK  7 active torsions:
REMARK  status: ('A' for Active; 'I' for Inactive)
REMARK    1  A    between atoms: C_2  and  O_3 
REMARK    2  A    between atoms: O_3  and  C_4 
REMARK    3  A    between atoms: C_4  and  C_5 
REMARK    4  A    between atoms: C_6  and  C_7 
REMARK    5  A    between atoms: C_18  and  S_19 
REMARK    6  A    between atoms: S_19  and  C_20 
REMARK    7  A    between atoms: C_20  and  C_21 
ROOT
HETATM    1  C   UNL     1       5.226   0.208  -0.372  1.00  0.00     0.070 C 
HETATM    2  C   UNL     1       6.453   0.792   0.334  1.00  0.00     0.203 C 
HETATM    3  N   UNL     1       7.084  -0.208   1.199  1.00  0.00    -0.082 N 
HETATM    4  C   UNL     1       6.834  -1.549   1.120  1.00  0.00     0.726 A 
HETATM    5  N   UNL     1       5.930  -1.993   0.225  1.00  0.00    -0.192 N 
HETATM    6  N   UNL     1       7.914   0.080   2.216  1.00  0.00    -0.128 NA
HETATM    7  C   UNL     1       8.178  -1.148   2.680  1.00  0.00     0.226 A 
HETATM    8  N   UNL     1       7.544  -2.176   2.023  1.00  0.00    -0.035 NA
HETATM    9  C   UNL     1       5.051  -1.138  -0.446  1.00  0.00     0.037 C 
HETATM   10  C   UNL     1       3.959  -1.829  -1.226  1.00  0.00     0.070 C 
HETATM   11  H   UNL     1       5.684  -2.980   0.246  1.00  0.00     0.184 HD
ENDROOT
BRANCH   7  12
HETATM   12  S   UNL     1       9.224  -1.365   4.052  1.00  0.00    -0.083 SA
BRANCH  12  13
HETATM   13  C   UNL     1       9.250  -3.174   4.167  1.00  0.00     0.123 C 
BRANCH  13  14
HETATM   14  C   UNL     1      10.091  -3.633   5.336  1.00  0.00    -0.027 A 
HETATM   15  C   UNL     1       9.554  -3.887   6.609  1.00  0.00     0.041 A 
HETATM   16 CL   UNL     1       7.866  -3.729   6.943  1.00  0.00    -0.084 Cl
HETATM   17  C   UNL     1      10.384  -4.279   7.666  1.00  0.00     0.024 A 
HETATM   18  C   UNL     1      11.758  -4.414   7.470  1.00  0.00     0.002 A 
HETATM   19  C   UNL     1      12.306  -4.158   6.217  1.00  0.00     0.001 A 
HETATM   20  C   UNL     1      11.482  -3.770   5.160  1.00  0.00     0.009 A 
ENDBRANCH  13  14
ENDBRANCH  12  13
ENDBRANCH   7  12
BRANCH   2  21
HETATM   21  C   UNL     1       7.491   1.340  -0.648  1.00  0.00    -0.026 A 
HETATM   22  C   UNL     1       7.859   2.695  -0.589  1.00  0.00     0.033 A 
HETATM   23  C   UNL     1       8.788   3.215  -1.491  1.00  0.00     0.034 A 
HETATM   24 CL   UNL     1       9.219   4.879  -1.410  1.00  0.00    -0.084 Cl
HETATM   25  C   UNL     1       9.366   2.400  -2.461  1.00  0.00     0.024 A 
HETATM   26  C   UNL     1       9.016   1.053  -2.530  1.00  0.00     0.002 A 
HETATM   27  C   UNL     1       8.086   0.525  -1.631  1.00  0.00     0.010 A 
ENDBRANCH   2  21
BRANCH   1  28
HETATM   28  C   UNL     1       4.301   1.264  -0.862  1.00  0.00     0.293 C 
HETATM   29  O   UNL     1       4.624   2.439  -0.948  1.00  0.00    -0.259 OA
BRANCH  28  30
HETATM   30  O   UNL     1       3.053   0.787  -1.079  1.00  0.00    -0.318 OA
BRANCH  30  31
HETATM   31  C   UNL     1       2.061   1.762  -1.436  1.00  0.00     0.174 C 
HETATM   32  C   UNL     1       2.134   2.087  -2.917  1.00  0.00     0.034 C 
ENDBRANCH  30  31
ENDBRANCH  28  30
ENDBRANCH   1  28
TORSDOF 7
