REMARK  5 active torsions:
REMARK  status: ('A' for Active; 'I' for Inactive)
REMARK    1  A    between atoms: C_4  and  C_5 
REMARK       I    between atoms: C_5  and  N_6 
REMARK    2  A    between atoms: N_6  and  C_7 
REMARK    3  A    between atoms: C_10  and  C_11 
REMARK    4  A    between atoms: C_11  and  N_12 
REMARK       I    between atoms: N_12  and  C_13 
REMARK       I    between atoms: C_13  and  N_14 
REMARK    5  A    between atoms: N_14  and  C_15 
ROOT
HETATM    1  C   UNL     1       3.405   0.451   0.123  1.00  0.00     0.035 A 
HETATM    2  C   UNL     1       2.749   1.369   0.942  1.00  0.00     0.030 A 
HETATM    3  C   UNL     1       2.884   2.743   0.720  1.00  0.00     0.011 A 
HETATM    4  C   UNL     1       3.671   3.223  -0.334  1.00  0.00    -0.040 A 
HETATM    5  C   UNL     1       4.382   2.305  -1.114  1.00  0.00     0.011 A 
HETATM    6  C   UNL     1       4.249   0.931  -0.885  1.00  0.00     0.030 A 
ENDROOT
BRANCH   4   7
HETATM    7  C   UNL     1       3.709   4.693  -0.642  1.00  0.00     0.162 C 
BRANCH   7   8
HETATM    8  N   UNL     1       4.898   5.346  -0.151  1.00  0.00    -0.339 N 
HETATM    9  C   UNL     1       5.190   6.683  -0.146  1.00  0.00     0.321 C 
HETATM   10  N   UNL     1       4.226   7.487  -0.694  1.00  0.00    -0.306 N 
HETATM   11  O   UNL     1       6.266   7.029   0.324  1.00  0.00    -0.247 OA
HETATM   12  H   UNL     1       3.523   7.009  -1.231  1.00  0.00     0.171 HD
HETATM   13  H   UNL     1       5.621   4.781   0.277  1.00  0.00     0.164 HD
BRANCH  10  14
HETATM   14  C   UNL     1       4.153   8.898  -0.736  1.00  0.00     0.075 A 
HETATM   15  C   UNL     1       4.983   9.795  -0.051  1.00  0.00     0.144 A 
HETATM   16  F   UNL     1       5.948   9.387   0.780  1.00  0.00    -0.204 F 
HETATM   17  C   UNL     1       4.807  11.176  -0.170  1.00  0.00     0.063 A 
HETATM   18  C   UNL     1       3.784  11.678  -0.967  1.00  0.00     0.014 A 
HETATM   19 BR   UNL     1       3.537  13.544  -1.122  1.00  0.00    -0.051 Br
HETATM   20  C   UNL     1       2.933  10.810  -1.642  1.00  0.00     0.021 A 
HETATM   21  C   UNL     1       3.118   9.429  -1.525  1.00  0.00     0.034 A 
ENDBRANCH  10  14
ENDBRANCH   7   8
ENDBRANCH   4   7
BRANCH   1  22
HETATM   22  N   UNL     1       3.238  -0.944   0.214  1.00  0.00    -0.321 N 
HETATM   23  C   UNL     1       2.359  -1.648   1.021  1.00  0.00     0.279 C 
HETATM   24  O   UNL     1       1.640  -1.162   1.887  1.00  0.00    -0.265 OA
HETATM   25  H   UNL     1       3.748  -1.515  -0.451  1.00  0.00     0.169 HD
BRANCH  23  26
HETATM   26  C   UNL     1       2.337  -3.068   0.714  1.00  0.00     0.142 A 
HETATM   27  O   UNL     1       3.176  -3.566  -0.252  1.00  0.00    -0.317 OA
HETATM   28  C   UNL     1       2.927  -4.898  -0.348  1.00  0.00     0.143 A 
HETATM   29  C   UNL     1       1.942  -5.271   0.534  1.00  0.00     0.027 A 
HETATM   30  C   UNL     1       1.564  -4.094   1.223  1.00  0.00     0.045 A 
ENDBRANCH  23  26
ENDBRANCH   1  22
TORSDOF 5
