REMARK  5 active torsions:
REMARK  status: ('A' for Active; 'I' for Inactive)
REMARK    1  A    between atoms: C_3  and  O_4 
REMARK    2  A    between atoms: C_6  and  N_7 
REMARK       I    between atoms: N_7  and  C_8 
REMARK    3  A    between atoms: C_8  and  C_9 
REMARK    4  A    between atoms: C_14  and  C_15 
REMARK    5  A    between atoms: C_23  and  C_24 
ROOT
HETATM    1  C   UNL     1      -3.622  -1.501  -0.142  1.00  0.00     0.148 A 
HETATM    2  N   UNL     1      -3.052  -0.271  -0.189  1.00  0.00    -0.165 NA
HETATM    3  N   UNL     1      -4.113   0.557  -0.175  1.00  0.00    -0.240 N 
HETATM    4  C   UNL     1      -5.319  -0.079  -0.250  1.00  0.00     0.123 A 
HETATM    5  N   UNL     1      -6.465   0.613  -0.406  1.00  0.00    -0.366 N 
HETATM    6  C   UNL     1      -6.490   2.048  -0.678  1.00  0.00     0.118 C 
HETATM    7  C   UNL     1      -5.100   2.576  -1.095  1.00  0.00     0.066 C 
HETATM    8  C   UNL     1      -3.975   1.999  -0.222  1.00  0.00     0.221 C 
HETATM    9  C   UNL     1      -5.043  -1.415  -0.153  1.00  0.00     0.089 A 
HETATM   10  H   UNL     1      -7.370   0.142  -0.428  1.00  0.00     0.161 HD
ENDROOT
BRANCH   1  11
HETATM   11  C   UNL     1      -2.820  -2.739  -0.138  1.00  0.00     0.276 C 
HETATM   12  N   UNL     1      -1.475  -2.476  -0.308  1.00  0.00    -0.322 N 
HETATM   13  H   UNL     1      -1.268  -1.484  -0.397  1.00  0.00     0.169 HD
HETATM   14  O   UNL     1      -3.348  -3.839  -0.027  1.00  0.00    -0.266 OA
BRANCH  12  15
HETATM   15  C   UNL     1      -0.413  -3.389  -0.416  1.00  0.00     0.037 A 
HETATM   16  C   UNL     1      -0.555  -4.770  -0.276  1.00  0.00     0.066 A 
HETATM   17  C   UNL     1       0.558  -5.601  -0.407  1.00  0.00     0.067 A 
HETATM   18  C   UNL     1       1.817  -5.079  -0.681  1.00  0.00     0.036 A 
HETATM   19  C   UNL     1       1.966  -3.701  -0.822  1.00  0.00     0.005 A 
HETATM   20  C   UNL     1       0.857  -2.861  -0.686  1.00  0.00     0.029 A 
BRANCH  17  21
HETATM   21  O   UNL     1       0.369  -6.944  -0.254  1.00  0.00    -0.361 OA
HETATM   22  H   UNL     1       1.223  -7.394  -0.354  1.00  0.00     0.217 HD
ENDBRANCH  17  21
ENDBRANCH  12  15
ENDBRANCH   1  11
BRANCH   8  23
HETATM   23  C   UNL     1      -3.973   2.564   1.180  1.00  0.00     0.409 C 
HETATM   24  F   UNL     1      -2.933   2.116   1.915  1.00  0.00    -0.169 F 
HETATM   25  F   UNL     1      -3.852   3.917   1.125  1.00  0.00    -0.169 F 
HETATM   26  F   UNL     1      -5.106   2.309   1.868  1.00  0.00    -0.169 F 
ENDBRANCH   8  23
BRANCH   6  27
HETATM   27  C   UNL     1      -7.520   2.325  -1.762  1.00  0.00    -0.035 A 
HETATM   28  C   UNL     1      -8.542   3.265  -1.550  1.00  0.00     0.012 A 
HETATM   29  C   UNL     1      -9.487   3.518  -2.547  1.00  0.00     0.043 A 
HETATM   30  C   UNL     1      -9.415   2.837  -3.756  1.00  0.00     0.116 A 
HETATM   31  F   UNL     1     -10.323   3.083  -4.708  1.00  0.00    -0.206 F 
HETATM   32  C   UNL     1      -8.415   1.902  -3.990  1.00  0.00     0.043 A 
HETATM   33  C   UNL     1      -7.471   1.646  -2.996  1.00  0.00     0.012 A 
ENDBRANCH   6  27
TORSDOF 5
