REMARK  9 active torsions:
REMARK  status: ('A' for Active; 'I' for Inactive)
REMARK    1  A    between atoms: C_2  and  N_3 
REMARK    2  A    between atoms: C_4  and  S_5 
REMARK    3  A    between atoms: S_5  and  C_6 
REMARK    4  A    between atoms: C_6  and  C_7 
REMARK       I    between atoms: C_7  and  N_8 
REMARK    5  A    between atoms: N_8  and  C_9 
REMARK    6  A    between atoms: C_9  and  C_10 
REMARK    7  A    between atoms: C_10  and  C_11 
REMARK    8  A    between atoms: C_14  and  O_15 
REMARK    9  A    between atoms: C_22  and  C_23 
ROOT
HETATM    1  C   UNL     1       1.687   2.678   1.577  1.00  0.00     0.185 C 
ENDROOT
BRANCH   1   2
HETATM    2  S   UNL     1       2.221   3.736   0.200  1.00  0.00    -0.081 SA
BRANCH   2   3
HETATM    3  C   UNL     1       3.216   2.614  -0.661  1.00  0.00     0.192 A 
HETATM    4  N   UNL     1       3.480   2.679  -2.006  1.00  0.00    -0.308 N 
HETATM    5  C   UNL     1       4.277   1.579  -2.280  1.00  0.00     0.164 A 
HETATM    6  N   UNL     1       4.467   0.924  -1.144  1.00  0.00    -0.128 NA
HETATM    7  N   UNL     1       3.813   1.576  -0.134  1.00  0.00    -0.122 NA
BRANCH   4   8
HETATM    8  C   UNL     1       2.920   3.631  -2.943  1.00  0.00     0.128 C 
HETATM    9  C   UNL     1       3.666   4.958  -2.957  1.00  0.00     0.027 C 
ENDBRANCH   4   8
BRANCH   5  10
HETATM   10  C   UNL     1       4.786   1.115  -3.578  1.00  0.00     0.012 A 
HETATM   11  C   UNL     1       4.855  -0.269  -3.813  1.00  0.00     0.015 A 
HETATM   12  C   UNL     1       5.347  -0.776  -5.018  1.00  0.00     0.001 A 
HETATM   13  C   UNL     1       5.783   0.096  -6.011  1.00  0.00     0.000 A 
HETATM   14  C   UNL     1       5.741   1.470  -5.790  1.00  0.00     0.001 A 
HETATM   15  C   UNL     1       5.257   1.975  -4.577  1.00  0.00     0.015 A 
ENDBRANCH   5  10
ENDBRANCH   2   3
ENDBRANCH   1   2
BRANCH   1  16
HETATM   16  C   UNL     1       0.716   3.448   2.455  1.00  0.00     0.227 C 
HETATM   17  N   UNL     1       1.214   3.782   3.702  1.00  0.00    -0.360 N 
HETATM   18  H   UNL     1       2.217   3.741   3.832  1.00  0.00     0.162 HD
HETATM   19  O   UNL     1      -0.420   3.740   2.088  1.00  0.00    -0.273 OA
BRANCH  17  20
HETATM   20  C   UNL     1       0.450   4.621   4.611  1.00  0.00     0.127 C 
BRANCH  20  21
HETATM   21  C   UNL     1       0.834   4.370   6.069  1.00  0.00     0.058 C 
BRANCH  21  22
HETATM   22  C   UNL     1       0.092   5.281   7.013  1.00  0.00    -0.057 A 
HETATM   23  C   UNL     1      -1.190   4.946   7.462  1.00  0.00     0.010 A 
HETATM   24  C   UNL     1      -1.884   5.805   8.318  1.00  0.00     0.037 A 
HETATM   25  C   UNL     1      -1.315   7.010   8.736  1.00  0.00     0.068 A 
HETATM   26  C   UNL     1      -0.038   7.349   8.289  1.00  0.00     0.037 A 
HETATM   27  C   UNL     1       0.660   6.490   7.432  1.00  0.00     0.010 A 
BRANCH  25  28
HETATM   28  O   UNL     1      -2.102   7.756   9.569  1.00  0.00    -0.356 OA
HETATM   29  C   UNL     1      -1.584   9.013   9.986  1.00  0.00     0.210 C 
ENDBRANCH  25  28
ENDBRANCH  21  22
ENDBRANCH  20  21
ENDBRANCH  17  20
ENDBRANCH   1  16
TORSDOF 9
