REMARK  7 active torsions:
REMARK  status: ('A' for Active; 'I' for Inactive)
REMARK    1  A    between atoms: C_7  and  C_8 
REMARK    2  A    between atoms: C_8  and  C_9 
REMARK    3  A    between atoms: C_9  and  C_10 
REMARK    4  A    between atoms: C_10  and  O_11 
REMARK    5  A    between atoms: C_13  and  C_14 
REMARK    6  A    between atoms: C_21  and  C_22 
REMARK       I    between atoms: C_22  and  N_23 
REMARK    7  A    between atoms: N_23  and  C_24 
ROOT
HETATM    1  C   UNL     1       0.873   0.275   0.242  1.00  0.00     0.070 C 
HETATM    2  C   UNL     1       2.359   0.114   0.030  1.00  0.00     0.037 C 
HETATM    3  N   UNL     1       3.069   1.302  -0.166  1.00  0.00    -0.192 N 
HETATM    4  C   UNL     1       4.413   1.358  -0.069  1.00  0.00     0.726 A 
HETATM    5  N   UNL     1       5.125   0.193  -0.081  1.00  0.00    -0.083 N 
HETATM    6  N   UNL     1       6.437   0.406   0.143  1.00  0.00    -0.140 NA
HETATM    7  C   UNL     1       6.453   1.743   0.251  1.00  0.00     0.166 A 
HETATM    8  N   UNL     1       5.231   2.362   0.112  1.00  0.00    -0.046 NA
HETATM    9  C   UNL     1       4.518  -1.130  -0.224  1.00  0.00     0.202 C 
HETATM   10  C   UNL     1       3.015  -1.077   0.039  1.00  0.00     0.062 C 
HETATM   11  H   UNL     1       2.555   2.166  -0.007  1.00  0.00     0.184 HD
ENDROOT
BRANCH  10  12
HETATM   12  C   UNL     1       2.346  -2.321   0.540  1.00  0.00     0.256 C 
HETATM   13  N   UNL     1       2.794  -3.494  -0.030  1.00  0.00    -0.323 N 
HETATM   14  H   UNL     1       3.427  -3.437  -0.815  1.00  0.00     0.169 HD
HETATM   15  O   UNL     1       1.520  -2.235   1.443  1.00  0.00    -0.267 OA
BRANCH  13  16
HETATM   16  C   UNL     1       2.481  -4.812   0.373  1.00  0.00     0.035 A 
HETATM   17  C   UNL     1       1.561  -5.130   1.375  1.00  0.00     0.031 A 
HETATM   18  C   UNL     1       1.332  -6.464   1.734  1.00  0.00     0.026 A 
HETATM   19  C   UNL     1       2.029  -7.485   1.096  1.00  0.00     0.034 A 
HETATM   20 CL   UNL     1       1.758  -9.122   1.548  1.00  0.00    -0.084 Cl
HETATM   21  C   UNL     1       2.947  -7.185   0.094  1.00  0.00     0.026 A 
HETATM   22  C   UNL     1       3.167  -5.853  -0.270  1.00  0.00     0.031 A 
ENDBRANCH  13  16
ENDBRANCH  10  12
BRANCH   9  23
HETATM   23  C   UNL     1       4.880  -1.688  -1.604  1.00  0.00    -0.028 A 
HETATM   24  C   UNL     1       5.969  -2.572  -1.732  1.00  0.00     0.012 A 
HETATM   25  C   UNL     1       6.319  -3.091  -2.980  1.00  0.00     0.043 A 
HETATM   26  C   UNL     1       5.591  -2.728  -4.106  1.00  0.00     0.116 A 
HETATM   27  F   UNL     1       5.928  -3.229  -5.301  1.00  0.00    -0.206 F 
HETATM   28  C   UNL     1       4.521  -1.847  -4.010  1.00  0.00     0.043 A 
HETATM   29  C   UNL     1       4.170  -1.322  -2.764  1.00  0.00     0.012 A 
ENDBRANCH   9  23
BRANCH   7  30
HETATM   30  C   UNL     1       7.695   2.497   0.559  1.00  0.00     0.085 C 
BRANCH  30  31
HETATM   31  C   UNL     1       7.940   2.662   2.059  1.00  0.00     0.034 C 
BRANCH  31  32
HETATM   32  C   UNL     1       8.207   1.341   2.775  1.00  0.00     0.164 C 
BRANCH  32  33
HETATM   33  O   UNL     1       8.546   1.593   4.134  1.00  0.00    -0.401 OA
HETATM   34  H   UNL     1       9.368   2.113   4.141  1.00  0.00     0.209 HD
ENDBRANCH  32  33
ENDBRANCH  31  32
ENDBRANCH  30  31
ENDBRANCH   7  30
TORSDOF 7
