REMARK  6 active torsions:
REMARK  status: ('A' for Active; 'I' for Inactive)
REMARK    1  A    between atoms: C_4  and  C_5 
REMARK    2  A    between atoms: C_6  and  O_7 
REMARK    3  A    between atoms: O_7  and  C_8 
REMARK    4  A    between atoms: C_8  and  C_9 
REMARK       I    between atoms: C_9  and  N_10 
REMARK    5  A    between atoms: N_10  and  N_11 
REMARK    6  A    between atoms: C_12  and  C_13 
ROOT
HETATM    1  O   UNL     1       3.012   2.179   0.818  1.00  0.00    -0.341 OA
ENDROOT
BRANCH   1   2
HETATM    2  C   UNL     1       3.747   1.202   0.191  1.00  0.00     0.080 A 
HETATM    3  C   UNL     1       3.115  -0.020  -0.114  1.00  0.00     0.007 A 
HETATM    4  C   UNL     1       3.893  -1.032  -0.705  1.00  0.00     0.015 A 
HETATM    5  C   UNL     1       5.252  -0.840  -0.970  1.00  0.00     0.001 A 
HETATM    6  C   UNL     1       5.862   0.367  -0.640  1.00  0.00     0.003 A 
HETATM    7  C   UNL     1       5.112   1.386  -0.053  1.00  0.00     0.037 A 
BRANCH   3   8
HETATM    8  C   UNL     1       1.685  -0.260   0.150  1.00  0.00    -0.023 A 
HETATM    9  C   UNL     1       0.691   0.509  -0.479  1.00  0.00     0.012 A 
HETATM   10  C   UNL     1      -0.663   0.272  -0.236  1.00  0.00     0.001 A 
HETATM   11  C   UNL     1      -1.048  -0.745   0.634  1.00  0.00     0.000 A 
HETATM   12  C   UNL     1      -0.079  -1.522   1.264  1.00  0.00     0.001 A 
HETATM   13  C   UNL     1       1.277  -1.280   1.024  1.00  0.00     0.012 A 
ENDBRANCH   3   8
ENDBRANCH   1   2
BRANCH   1  14
HETATM   14  C   UNL     1       3.055   3.429   0.123  1.00  0.00     0.280 C 
BRANCH  14  15
HETATM   15  C   UNL     1       1.867   4.307   0.508  1.00  0.00     0.261 C 
HETATM   16  N   UNL     1       1.089   3.761   1.517  1.00  0.00    -0.246 N 
HETATM   17  H   UNL     1       1.328   2.836   1.870  1.00  0.00     0.192 HD
HETATM   18  O   UNL     1       1.671   5.393  -0.034  1.00  0.00    -0.269 OA
BRANCH  16  19
HETATM   19  N   UNL     1       0.008   4.436   1.996  1.00  0.00    -0.182 NA
HETATM   20  C   UNL     1      -0.605   3.876   2.988  1.00  0.00     0.168 C 
BRANCH  20  21
HETATM   21  C   UNL     1      -1.758   4.521   3.554  1.00  0.00     0.051 A 
HETATM   22  N   UNL     1      -2.294   5.687   3.053  1.00  0.00    -0.365 N 
HETATM   23  H   UNL     1      -1.916   6.179   2.252  1.00  0.00     0.165 HD
HETATM   24  C   UNL     1      -3.387   6.054   3.792  1.00  0.00     0.088 A 
HETATM   25  C   UNL     1      -3.554   5.122   4.791  1.00  0.00     0.019 A 
HETATM   26  C   UNL     1      -2.529   4.155   4.642  1.00  0.00     0.032 A 
ENDBRANCH  20  21
ENDBRANCH  16  19
ENDBRANCH  14  15
ENDBRANCH   1  14
TORSDOF 6
