REMARK  6 active torsions:
REMARK  status: ('A' for Active; 'I' for Inactive)
REMARK    1  A    between atoms: C_7  and  N_8 
REMARK       I    between atoms: N_8  and  C_9 
REMARK    2  A    between atoms: C_9  and  C_10 
REMARK    3  A    between atoms: C_10  and  N_11 
REMARK       I    between atoms: N_11  and  C_12 
REMARK    4  A    between atoms: C_12  and  C_13 
REMARK    5  A    between atoms: N_16  and  C_17 
REMARK    6  A    between atoms: C_23  and  O_24 
ROOT
HETATM    1  C   UNL     1      -0.105  -3.390   0.778  1.00  0.00     0.080 C 
HETATM    2  C   UNL     1      -0.854  -2.092   1.110  1.00  0.00     0.029 C 
HETATM    3  C   UNL     1      -0.866  -1.116  -0.067  1.00  0.00     0.098 C 
HETATM    4  N   UNL     1      -1.448  -1.801  -1.224  1.00  0.00    -0.268 NA
HETATM    5  C   UNL     1      -0.646  -2.942  -1.686  1.00  0.00     0.098 C 
HETATM    6  C   UNL     1      -0.563  -3.979  -0.564  1.00  0.00     0.029 C 
ENDROOT
BRANCH   1   7
HETATM    7  C   UNL     1       1.408  -3.203   0.841  1.00  0.00     0.222 C 
HETATM    8  N   UNL     1       1.878  -2.910   2.101  1.00  0.00    -0.352 N 
HETATM    9  H   UNL     1       1.234  -2.787   2.872  1.00  0.00     0.162 HD
HETATM   10  O   UNL     1       2.160  -3.313  -0.123  1.00  0.00    -0.273 OA
BRANCH   8  11
HETATM   11  C   UNL     1       3.297  -2.835   2.389  1.00  0.00     0.225 C 
BRANCH  11  12
HETATM   12  C   UNL     1       3.900  -1.491   1.971  1.00  0.00     0.239 C 
HETATM   13  N   UNL     1       4.155  -1.432   0.613  1.00  0.00    -0.326 N 
HETATM   14  H   UNL     1       3.748  -2.187   0.056  1.00  0.00     0.169 HD
HETATM   15  O   UNL     1       4.088  -0.602   2.796  1.00  0.00    -0.271 OA
BRANCH  13  16
HETATM   16  C   UNL     1       4.861  -0.439  -0.091  1.00  0.00     0.035 A 
HETATM   17  C   UNL     1       5.459   0.664   0.513  1.00  0.00     0.031 A 
HETATM   18  C   UNL     1       6.184   1.581  -0.254  1.00  0.00     0.022 A 
HETATM   19  C   UNL     1       6.322   1.398  -1.631  1.00  0.00     0.017 A 
HETATM   20  C   UNL     1       5.727   0.297  -2.263  1.00  0.00    -0.043 A 
HETATM   21 BR   UNL     1       7.347   2.677  -2.589  1.00  0.00    -0.051 Br
HETATM   22  C   UNL     1       5.865   0.043  -3.738  1.00  0.00     0.049 C 
HETATM   23  C   UNL     1       4.995  -0.611  -1.476  1.00  0.00     0.037 A 
ENDBRANCH  13  16
ENDBRANCH  11  12
ENDBRANCH   8  11
ENDBRANCH   1   7
BRANCH   4  24
HETATM   24  C   UNL     1      -1.934  -0.972  -2.248  1.00  0.00     0.106 A 
HETATM   25  N   UNL     1      -1.585  -1.221  -3.530  1.00  0.00    -0.233 NA
HETATM   26  C   UNL     1      -2.115  -0.470  -4.523  1.00  0.00     0.102 A 
HETATM   27  C   UNL     1      -3.019   0.578  -4.294  1.00  0.00    -0.004 A 
HETATM   28  C   UNL     1      -1.769  -0.744  -5.843  1.00  0.00     0.095 A 
HETATM   29  C   UNL     1      -3.379   0.831  -2.972  1.00  0.00     0.017 A 
HETATM   30  C   UNL     1      -3.541   1.320  -5.372  1.00  0.00     0.014 A 
HETATM   31  C   UNL     1      -2.844   0.044  -1.952  1.00  0.00     0.045 A 
HETATM   32  C   UNL     1      -3.170   1.015  -6.682  1.00  0.00     0.004 A 
HETATM   33  C   UNL     1      -2.279  -0.025  -6.921  1.00  0.00     0.039 A 
BRANCH  28  34
HETATM   34  O   UNL     1      -0.895  -1.772  -6.105  1.00  0.00    -0.358 OA
HETATM   35  H   UNL     1      -0.687  -2.128  -5.215  1.00  0.00     0.218 HD
ENDBRANCH  28  34
ENDBRANCH   4  24
TORSDOF 6
