REMARK  4 active torsions:
REMARK  status: ('A' for Active; 'I' for Inactive)
REMARK    1  A    between atoms: C_3  and  N_4 
REMARK    2  A    between atoms: C_5  and  C_6 
REMARK    3  A    between atoms: C_13  and  N_14 
REMARK       I    between atoms: N_14  and  C_15 
REMARK    4  A    between atoms: C_15  and  C_16 
ROOT
HETATM    1  C   UNL     1      -0.531   1.021   0.622  1.00  0.00     0.005 A 
HETATM    2  C   UNL     1       0.845   1.075   0.404  1.00  0.00     0.031 A 
HETATM    3  C   UNL     1       1.532  -0.046  -0.064  1.00  0.00     0.058 A 
HETATM    4  C   UNL     1       0.818  -1.223  -0.334  1.00  0.00     0.061 A 
HETATM    5  C   UNL     1      -0.559  -1.296  -0.106  1.00  0.00     0.037 A 
HETATM    6  C   UNL     1      -1.228  -0.161   0.368  1.00  0.00     0.029 A 
ENDROOT
BRANCH   5   7
HETATM    7  N   UNL     1      -1.334  -2.448  -0.334  1.00  0.00    -0.321 N 
HETATM    8  C   UNL     1      -0.904  -3.714  -0.695  1.00  0.00     0.279 C 
HETATM    9  O   UNL     1       0.265  -4.052  -0.848  1.00  0.00    -0.265 OA
HETATM   10  H   UNL     1      -2.336  -2.368  -0.195  1.00  0.00     0.169 HD
BRANCH   8  11
HETATM   11  C   UNL     1      -2.004  -4.649  -0.860  1.00  0.00     0.142 A 
HETATM   12  O   UNL     1      -3.294  -4.213  -0.688  1.00  0.00    -0.317 OA
HETATM   13  C   UNL     1      -4.108  -5.278  -0.906  1.00  0.00     0.143 A 
HETATM   14  C   UNL     1      -3.370  -6.397  -1.211  1.00  0.00     0.027 A 
HETATM   15  C   UNL     1      -2.013  -5.993  -1.182  1.00  0.00     0.045 A 
ENDBRANCH   8  11
ENDBRANCH   5   7
BRANCH   3  16
HETATM   16  N   UNL     1       2.910   0.065  -0.310  1.00  0.00    -0.259 NA
HETATM   17  C   UNL     1       3.684  -0.786   0.282  1.00  0.00     0.146 C 
BRANCH  17  18
HETATM   18  C   UNL     1       5.102  -0.725   0.055  1.00  0.00     0.049 A 
HETATM   19  N   UNL     1       5.701   0.216  -0.751  1.00  0.00    -0.365 N 
HETATM   20  H   UNL     1       5.187   0.935  -1.246  1.00  0.00     0.165 HD
HETATM   21  C   UNL     1       7.056   0.022  -0.771  1.00  0.00     0.088 A 
HETATM   22  C   UNL     1       7.339  -1.064   0.027  1.00  0.00     0.019 A 
HETATM   23  C   UNL     1       6.108  -1.535   0.548  1.00  0.00     0.032 A 
ENDBRANCH  17  18
ENDBRANCH   3  16
TORSDOF 4
