REMARK  8 active torsions:
REMARK  status: ('A' for Active; 'I' for Inactive)
REMARK    1  A    between atoms: C_2  and  C_3 
REMARK    2  A    between atoms: C_3  and  N_4 
REMARK       I    between atoms: N_4  and  C_5 
REMARK    3  A    between atoms: C_5  and  C_6 
REMARK    4  A    between atoms: C_7  and  N_8 
REMARK    5  A    between atoms: N_11  and  C_12 
REMARK    6  A    between atoms: C_13  and  O_14 
REMARK    7  A    between atoms: C_24  and  N_25 
REMARK       I    between atoms: N_25  and  C_26 
REMARK       I    between atoms: C_26  and  N_27 
REMARK    8  A    between atoms: N_27  and  C_28 
ROOT
HETATM    1  C   UNL     1       0.479   2.006  -0.986  1.00  0.00     0.060 A 
HETATM    2  C   UNL     1       0.520   0.878  -0.139  1.00  0.00     0.046 A 
HETATM    3  C   UNL     1      -0.484  -0.086  -0.346  1.00  0.00     0.032 A 
HETATM    4  C   UNL     1      -1.507   0.081  -1.293  1.00  0.00     0.032 A 
HETATM    5  C   UNL     1      -1.570   1.235  -2.063  1.00  0.00     0.037 A 
HETATM    6  C   UNL     1      -0.565   2.188  -1.917  1.00  0.00     0.049 A 
ENDROOT
BRANCH   2   7
HETATM    7  N   UNL     1       1.446   0.731   0.887  1.00  0.00    -0.378 N 
HETATM    8  C   UNL     1       2.882   0.642   0.552  1.00  0.00     0.138 C 
HETATM    9  C   UNL     1       3.731   1.127   1.754  1.00  0.00     0.115 C 
HETATM   10  N   UNL     1       3.408   0.353   2.979  1.00  0.00    -0.278 NA
HETATM   11  C   UNL     1       1.956   0.422   3.301  1.00  0.00     0.115 C 
HETATM   12  C   UNL     1       1.098  -0.041   2.099  1.00  0.00     0.138 C 
BRANCH  10  13
HETATM   13  C   UNL     1       4.201   0.582   4.131  1.00  0.00     0.044 A 
HETATM   14  C   UNL     1       4.278  -0.398   5.160  1.00  0.00     0.089 A 
HETATM   15  C   UNL     1       5.038  -0.152   6.314  1.00  0.00     0.038 A 
HETATM   16  C   UNL     1       5.728   1.050   6.467  1.00  0.00     0.003 A 
HETATM   17  C   UNL     1       5.671   2.012   5.469  1.00  0.00     0.002 A 
HETATM   18  C   UNL     1       4.919   1.778   4.314  1.00  0.00     0.026 A 
BRANCH  14  19
HETATM   19  O   UNL     1       3.597  -1.574   4.935  1.00  0.00    -0.354 OA
HETATM   20  C   UNL     1       3.581  -2.537   5.978  1.00  0.00     0.210 C 
ENDBRANCH  14  19
ENDBRANCH  10  13
ENDBRANCH   2   7
BRANCH   1  21
HETATM   21  C   UNL     1       1.449   3.132  -0.901  1.00  0.00     0.254 C 
HETATM   22  N   UNL     1       2.084   3.401  -2.100  1.00  0.00    -0.353 N 
HETATM   23  H   UNL     1       1.951   2.736  -2.852  1.00  0.00     0.163 HD
HETATM   24  O   UNL     1       1.597   3.772   0.129  1.00  0.00    -0.268 OA
BRANCH  22  25
HETATM   25  C   UNL     1       2.983   4.519  -2.365  1.00  0.00     0.080 C 
HETATM   26  C   UNL     1       2.398   5.871  -1.960  1.00  0.00     0.032 C 
BRANCH  25  27
HETATM   27  C   UNL     1       4.422   4.283  -1.879  1.00  0.00     0.020 C 
HETATM   28  C   UNL     1       4.664   4.431  -0.387  1.00  0.00     0.007 C 
ENDBRANCH  25  27
ENDBRANCH  22  25
ENDBRANCH   1  21
BRANCH   5  29
HETATM   29  N   UNL     1      -2.637   1.543  -2.927  1.00  0.00    -0.309 N 
HETATM   30  C   UNL     1      -3.649   0.697  -3.351  1.00  0.00     0.325 C 
HETATM   31  N   UNL     1      -4.692   1.445  -3.870  1.00  0.00    -0.307 N 
HETATM   32  O   UNL     1      -3.624  -0.523  -3.267  1.00  0.00    -0.247 OA
HETATM   33  H   UNL     1      -4.761   2.391  -3.519  1.00  0.00     0.170 HD
HETATM   34  H   UNL     1      -2.613   2.444  -3.381  1.00  0.00     0.170 HD
BRANCH  31  35
HETATM   35  C   UNL     1      -5.851   0.965  -4.521  1.00  0.00     0.053 A 
HETATM   36  C   UNL     1      -6.963   1.819  -4.647  1.00  0.00     0.037 A 
HETATM   37 BR   UNL     1      -6.946   3.580  -3.925  1.00  0.00    -0.049 Br
HETATM   38  C   UNL     1      -8.125   1.393  -5.296  1.00  0.00     0.021 A 
HETATM   39  C   UNL     1      -8.185   0.112  -5.839  1.00  0.00     0.002 A 
HETATM   40  C   UNL     1      -7.086  -0.737  -5.733  1.00  0.00     0.002 A 
HETATM   41  C   UNL     1      -5.925  -0.314  -5.078  1.00  0.00     0.031 A 
ENDBRANCH  31  35
ENDBRANCH   5  29
TORSDOF 8
