REMARK  4 active torsions:
REMARK  status: ('A' for Active; 'I' for Inactive)
REMARK    1  A    between atoms: O_2  and  C_3 
REMARK    2  A    between atoms: C_5  and  O_6 
REMARK    3  A    between atoms: C_8  and  N_9 
REMARK    4  A    between atoms: N_9  and  C_10 
ROOT
HETATM    1  C   UNL     1       6.566   4.293   2.616  1.00  0.00     0.153 A 
HETATM    2  S   UNL     1       7.008   5.733   3.410  1.00  0.00    -0.011 SA
HETATM    3  C   UNL     1       8.720   5.539   3.634  1.00  0.00     0.228 A 
HETATM    4  O   UNL     1       9.357   6.404   4.221  1.00  0.00    -0.279 OA
HETATM    5  C   UNL     1       9.407   4.347   3.114  1.00  0.00     0.048 A 
HETATM    6  C   UNL     1       8.715   3.335   2.447  1.00  0.00     0.048 A 
HETATM    7  C   UNL     1      10.799   4.251   3.297  1.00  0.00     0.018 A 
HETATM    8  C   UNL     1      11.503   3.148   2.819  1.00  0.00     0.001 A 
HETATM    9  C   UNL     1      10.823   2.135   2.154  1.00  0.00     0.002 A 
HETATM   10  C   UNL     1       9.441   2.230   1.970  1.00  0.00     0.030 A 
HETATM   11  N   UNL     1       7.377   3.339   2.226  1.00  0.00    -0.336 N 
HETATM   12  H   UNL     1       6.948   2.598   1.689  1.00  0.00     0.168 HD
ENDROOT
BRANCH   1  13
HETATM   13  N   UNL     1       5.195   4.169   2.306  1.00  0.00    -0.334 N 
HETATM   14  H   UNL     1       4.686   5.049   2.386  1.00  0.00     0.168 HD
BRANCH  13  15
HETATM   15  C   UNL     1       4.364   3.121   1.868  1.00  0.00     0.068 A 
HETATM   16  C   UNL     1       3.232   3.439   1.083  1.00  0.00     0.097 A 
HETATM   17  C   UNL     1       2.420   2.422   0.563  1.00  0.00     0.075 A 
HETATM   18  C   UNL     1       2.723   1.085   0.823  1.00  0.00     0.070 A 
HETATM   19  C   UNL     1       3.830   0.772   1.613  1.00  0.00     0.039 A 
HETATM   20  C   UNL     1       4.647   1.779   2.131  1.00  0.00     0.035 A 
BRANCH  16  21
HETATM   21  O   UNL     1       3.030   4.787   0.891  1.00  0.00    -0.354 OA
HETATM   22  C   UNL     1       1.877   5.176   0.152  1.00  0.00     0.210 C 
ENDBRANCH  16  21
BRANCH  18  23
HETATM   23  O   UNL     1       2.023  -0.002   0.377  1.00  0.00    -0.356 OA
HETATM   24  C   UNL     1       0.878   0.246  -0.430  1.00  0.00     0.210 C 
ENDBRANCH  18  23
ENDBRANCH  13  15
ENDBRANCH   1  13
TORSDOF 4
