REMARK  4 active torsions:
REMARK  status: ('A' for Active; 'I' for Inactive)
REMARK    1  A    between atoms: C_2  and  N_3 
REMARK    2  A    between atoms: N_7  and  C_9 
REMARK    3  A    between atoms: C_9  and  C_10 
REMARK    4  A    between atoms: C_13  and  C_14 
ROOT
HETATM    1  N   UNL     1       2.656  -1.154  -0.796  1.00  0.00    -0.398 N 
HETATM    2  C   UNL     1       3.583  -0.970   0.395  1.00  0.00     0.075 C 
HETATM    3  C   UNL     1       2.934  -0.625   1.763  1.00  0.00     0.065 C 
HETATM    4  C   UNL     1       2.315   0.754   1.910  1.00  0.00     0.238 C 
HETATM    5  N   UNL     1       3.162   1.860   1.327  1.00  0.00    -0.065 N 
HETATM    6  H   UNL     1       2.481   2.598   1.096  1.00  0.00     0.280 HD
HETATM    7  C   UNL     1       3.802   1.537   0.000  1.00  0.00     0.238 C 
HETATM    8  C   UNL     1       4.531   0.200   0.040  1.00  0.00     0.065 C 
HETATM    9  C   UNL     1       4.407  -2.234   0.636  1.00  0.00     0.061 A 
HETATM   10  C   UNL     1       4.166  -3.452   0.038  1.00  0.00     0.037 A 
HETATM   11  N   UNL     1       5.117  -4.327   0.506  1.00  0.00    -0.354 N 
HETATM   12  H   UNL     1       5.205  -5.308   0.239  1.00  0.00     0.166 HD
HETATM   13  C   UNL     1       5.951  -3.704   1.344  1.00  0.00     0.181 A 
HETATM   14  N   UNL     1       5.529  -2.432   1.432  1.00  0.00    -0.352 N 
HETATM   15  H   UNL     1       6.009  -1.739   2.000  1.00  0.00     0.166 HD
HETATM   16  C   UNL     1       3.136  -3.663  -0.983  1.00  0.00     0.078 C 
HETATM   17  C   UNL     1       2.988  -2.303  -1.698  1.00  0.00     0.124 C 
ENDROOT
BRANCH   5  18
HETATM   18  C   UNL     1       4.073   2.582   2.330  1.00  0.00     0.301 C 
BRANCH  18  19
HETATM   19  C   UNL     1       3.305   3.032   3.512  1.00  0.00     0.107 C 
HETATM   20  O   UNL     1       3.543   2.351   4.659  1.00  0.00    -0.216 OA
HETATM   21  N   UNL     1       2.521   2.586   5.546  1.00  0.00    -0.128 NA
HETATM   22  C   UNL     1       1.680   3.449   4.954  1.00  0.00     0.097 C 
HETATM   23  C   UNL     1       2.207   3.842   3.688  1.00  0.00     0.071 C 
BRANCH  22  24
HETATM   24  C   UNL     1       0.357   3.754   5.501  1.00  0.00    -0.005 A 
HETATM   25  C   UNL     1      -0.262   2.855   6.385  1.00  0.00     0.014 A 
HETATM   26  C   UNL     1      -1.574   3.065   6.815  1.00  0.00     0.001 A 
HETATM   27  C   UNL     1      -2.281   4.179   6.372  1.00  0.00     0.000 A 
HETATM   28  C   UNL     1      -1.673   5.092   5.512  1.00  0.00     0.001 A 
HETATM   29  C   UNL     1      -0.361   4.882   5.078  1.00  0.00     0.014 A 
ENDBRANCH  22  24
ENDBRANCH  18  19
ENDBRANCH   5  18
BRANCH   1  30
HETATM   30  C   UNL     1       1.208  -1.005  -0.592  1.00  0.00     0.113 C 
HETATM   31  C   UNL     1       0.338  -1.030  -1.853  1.00  0.00     0.026 C 
ENDBRANCH   1  30
TORSDOF 4
