REMARK  4 active torsions:
REMARK  status: ('A' for Active; 'I' for Inactive)
REMARK    1  A    between atoms: O_2  and  C_3 
REMARK    2  A    between atoms: C_4  and  O_5 
REMARK    3  A    between atoms: C_9  and  C_10 
REMARK    4  A    between atoms: C_10  and  N_11 
ROOT
HETATM    1  N   UNL     1       7.131   1.367  -2.439  1.00  0.00    -0.066 N 
HETATM    2  H   UNL     1       7.025   0.552  -1.815  1.00  0.00     0.280 HD
HETATM    3  C   UNL     1       6.555   0.944  -3.779  1.00  0.00     0.246 C 
HETATM    4  C   UNL     1       7.406  -0.170  -4.423  1.00  0.00     0.062 C 
HETATM    5  C   UNL     1       8.830   0.336  -4.623  1.00  0.00     0.020 C 
HETATM    6  C   UNL     1       9.419   0.625  -3.249  1.00  0.00     0.031 C 
HETATM    7  C   UNL     1       9.508  -0.676  -2.454  1.00  0.00     0.138 C 
HETATM    8  N   UNL     1       8.336  -1.547  -2.535  1.00  0.00    -0.317 N 
HETATM    9  C   UNL     1       7.394  -1.422  -3.561  1.00  0.00     0.020 A 
HETATM   10  C   UNL     1       6.486  -2.394  -3.757  1.00  0.00     0.026 A 
HETATM   11  C   UNL     1       8.372  -2.668  -1.687  1.00  0.00     0.247 A 
HETATM   12  O   UNL     1       9.187  -2.809  -0.781  1.00  0.00    -0.268 OA
HETATM   13  C   UNL     1       7.350  -3.713  -1.929  1.00  0.00     0.074 A 
HETATM   14  C   UNL     1       6.469  -3.568  -2.924  1.00  0.00     0.007 A 
HETATM   15  C   UNL     1       8.609   1.695  -2.515  1.00  0.00     0.241 C 
ENDROOT
BRANCH   1  16
HETATM   16  C   UNL     1       6.393   2.516  -1.777  1.00  0.00     0.273 C 
BRANCH  16  17
HETATM   17  C   UNL     1       4.893   2.416  -1.725  1.00  0.00    -0.028 A 
HETATM   18  C   UNL     1       4.116   3.018  -2.731  1.00  0.00     0.031 A 
HETATM   19  C   UNL     1       2.720   3.019  -2.654  1.00  0.00     0.047 A 
HETATM   20  C   UNL     1       2.082   2.428  -1.565  1.00  0.00     0.116 A 
HETATM   21 BR   UNL     1       1.748   3.889  -4.028  1.00  0.00    -0.048 Br
HETATM   22  C   UNL     1       2.841   1.774  -0.592  1.00  0.00     0.103 A 
HETATM   23  C   UNL     1       4.239   1.779  -0.661  1.00  0.00     0.048 A 
BRANCH  20  24
HETATM   24  O   UNL     1       0.727   2.538  -1.432  1.00  0.00    -0.357 OA
HETATM   25  H   UNL     1       0.522   2.482  -0.481  1.00  0.00     0.218 HD
ENDBRANCH  20  24
BRANCH  22  26
HETATM   26  O   UNL     1       2.279   1.189   0.512  1.00  0.00    -0.353 OA
HETATM   27  C   UNL     1       1.436   0.081   0.180  1.00  0.00     0.210 C 
ENDBRANCH  22  26
ENDBRANCH  16  17
ENDBRANCH   1  16
TORSDOF 4
