REMARK  7 active torsions:
REMARK  status: ('A' for Active; 'I' for Inactive)
REMARK    1  A    between atoms: C_6  and  C_7 
REMARK    2  A    between atoms: N_13  and  C_15 
REMARK    3  A    between atoms: C_15  and  C_16 
REMARK    4  A    between atoms: C_16  and  N_17 
REMARK       I    between atoms: N_17  and  C_18 
REMARK    5  A    between atoms: C_18  and  C_19 
REMARK    6  A    between atoms: C_19  and  N_20 
REMARK    7  A    between atoms: C_19  and  C_27 
ROOT
HETATM    1  C   UNL     1       1.802   2.240  -2.880  1.00  0.00     0.150 C 
ENDROOT
BRANCH   1   2
HETATM    2  C   UNL     1       0.912   1.716  -1.730  1.00  0.00     0.255 C 
BRANCH   2   3
HETATM    3  N   UNL     1       1.634   1.633  -0.396  1.00  0.00    -0.063 N 
HETATM    4  C   UNL     1       2.695   0.535  -0.265  1.00  0.00     0.272 C 
HETATM    5  C   UNL     1       2.139  -0.915  -0.280  1.00  0.00     0.188 C 
HETATM    6  O   UNL     1       1.373  -1.155   0.915  1.00  0.00    -0.339 OA
HETATM    7  C   UNL     1       0.055  -0.841   0.744  1.00  0.00     0.077 A 
HETATM    8  C   UNL     1      -0.356   0.494   0.686  1.00  0.00     0.001 A 
HETATM    9  C   UNL     1      -0.866  -1.884   0.695  1.00  0.00     0.037 A 
HETATM   10  C   UNL     1      -1.723   0.771   0.543  1.00  0.00     0.012 A 
HETATM   11  C   UNL     1       0.653   1.599   0.776  1.00  0.00     0.276 C 
HETATM   12  C   UNL     1      -2.649  -0.272   0.467  1.00  0.00     0.001 A 
HETATM   13  C   UNL     1      -2.221  -1.597   0.545  1.00  0.00     0.003 A 
HETATM   14  H   UNL     1       2.138   2.520  -0.264  1.00  0.00     0.280 HD
BRANCH   5  15
HETATM   15  C   UNL     1       3.289  -1.895  -0.360  1.00  0.00    -0.020 A 
HETATM   16  C   UNL     1       3.849  -2.355  -1.540  1.00  0.00     0.059 A 
HETATM   17  S   UNL     1       5.152  -3.433  -1.286  1.00  0.00    -0.113 SA
HETATM   18  C   UNL     1       4.977  -3.330   0.409  1.00  0.00     0.050 A 
HETATM   19  C   UNL     1       3.955  -2.481   0.771  1.00  0.00     0.017 A 
ENDBRANCH   5  15
ENDBRANCH   2   3
ENDBRANCH   1   2
BRANCH   1  20
HETATM   20  N   UNL     1       1.173   2.191  -4.204  1.00  0.00    -0.357 N 
HETATM   21  C   UNL     1       0.008   2.891  -4.479  1.00  0.00     0.253 C 
HETATM   22  O   UNL     1      -0.618   3.446  -3.579  1.00  0.00    -0.271 OA
HETATM   23  H   UNL     1       1.786   1.953  -4.983  1.00  0.00     0.162 HD
BRANCH  21  24
HETATM   24  C   UNL     1      -0.484   2.878  -5.968  1.00  0.00     0.314 C 
BRANCH  24  25
HETATM   25  N   UNL     1      -1.933   3.365  -6.186  1.00  0.00    -0.050 N 
HETATM   26  H   UNL     1      -2.107   3.287  -7.196  1.00  0.00     0.281 HD
HETATM   27  C   UNL     1      -2.968   2.480  -5.492  1.00  0.00     0.262 C 
HETATM   28  C   UNL     1      -4.380   2.962  -5.841  1.00  0.00     0.195 C 
HETATM   29  O   UNL     1      -4.550   4.331  -5.466  1.00  0.00    -0.388 OA
HETATM   30  C   UNL     1      -3.647   5.193  -6.166  1.00  0.00     0.195 C 
HETATM   31  C   UNL     1      -2.190   4.837  -5.840  1.00  0.00     0.262 C 
ENDBRANCH  24  25
BRANCH  24  32
HETATM   32  C   UNL     1       0.483   3.547  -6.915  1.00  0.00    -0.001 A 
HETATM   33  C   UNL     1       1.224   4.667  -6.545  1.00  0.00     0.126 A 
HETATM   34  N   UNL     1       2.082   5.303  -7.364  1.00  0.00    -0.272 NA
HETATM   35  C   UNL     1       2.217   4.829  -8.621  1.00  0.00     0.116 A 
HETATM   36  C   UNL     1       1.521   3.732  -9.094  1.00  0.00     0.020 A 
HETATM   37  C   UNL     1       0.641   3.084  -8.230  1.00  0.00     0.012 A 
ENDBRANCH  24  32
ENDBRANCH  21  24
ENDBRANCH   1  20
TORSDOF 7
