REMARK  5 active torsions:
REMARK  status: ('A' for Active; 'I' for Inactive)
REMARK    1  A    between atoms: O_2  and  C_3 
REMARK    2  A    between atoms: C_5  and  C_6 
REMARK    3  A    between atoms: C_12  and  C_13 
REMARK    4  A    between atoms: C_15  and  O_16 
REMARK    5  A    between atoms: C_18  and  O_19 
ROOT
HETATM    1  C   UNL     1       2.501   5.094  -0.100  1.00  0.00     0.098 A 
HETATM    2  N   UNL     1       1.170   5.147   0.166  1.00  0.00    -0.173 NA
HETATM    3  N   UNL     1       0.866   6.464   0.250  1.00  0.00    -0.272 N 
HETATM    4  H   UNL     1      -0.095   6.741   0.426  1.00  0.00     0.189 HD
HETATM    5  C   UNL     1       1.951   7.228   0.067  1.00  0.00     0.128 A 
HETATM    6  C   UNL     1       3.021   6.402  -0.131  1.00  0.00     0.034 A 
HETATM    7  C   UNL     1       4.240   7.215  -0.343  1.00  0.00     0.156 A 
HETATM    8  N   UNL     1       3.664   8.569  -0.244  1.00  0.00    -0.343 N 
HETATM    9  C   UNL     1       2.300   8.595   0.018  1.00  0.00     0.271 A 
HETATM   10  O   UNL     1       1.594   9.572   0.179  1.00  0.00    -0.266 OA
HETATM   11  H   UNL     1       4.205   9.420  -0.296  1.00  0.00     0.163 HD
ENDROOT
BRANCH   7  12
HETATM   12  C   UNL     1       5.228   6.934   0.763  1.00  0.00    -0.028 A 
HETATM   13  C   UNL     1       4.939   7.193   2.122  1.00  0.00     0.049 A 
HETATM   14  C   UNL     1       5.890   6.959   3.117  1.00  0.00     0.101 A 
HETATM   15  C   UNL     1       7.143   6.462   2.746  1.00  0.00     0.099 A 
HETATM   16  C   UNL     1       7.456   6.198   1.421  1.00  0.00     0.040 A 
HETATM   17  C   UNL     1       6.502   6.437   0.432  1.00  0.00     0.012 A 
BRANCH  14  18
HETATM   18  O   UNL     1       5.730   7.179   4.461  1.00  0.00    -0.353 OA
HETATM   19  C   UNL     1       4.463   7.675   4.880  1.00  0.00     0.210 C 
ENDBRANCH  14  18
BRANCH  15  20
HETATM   20  O   UNL     1       8.101   6.229   3.695  1.00  0.00    -0.358 OA
HETATM   21  H   UNL     1       7.678   6.469   4.542  1.00  0.00     0.218 HD
ENDBRANCH  15  20
ENDBRANCH   7  12
BRANCH   1  22
HETATM   22  C   UNL     1       3.172   3.807  -0.314  1.00  0.00    -0.002 A 
HETATM   23  C   UNL     1       2.577   2.619   0.152  1.00  0.00     0.050 A 
HETATM   24  C   UNL     1       3.186   1.379  -0.057  1.00  0.00     0.069 A 
HETATM   25  C   UNL     1       4.410   1.323  -0.724  1.00  0.00     0.037 A 
HETATM   26  C   UNL     1       5.010   2.487  -1.199  1.00  0.00     0.004 A 
HETATM   27  C   UNL     1       4.389   3.722  -1.003  1.00  0.00     0.014 A 
BRANCH  24  28
HETATM   28  O   UNL     1       2.695   0.165   0.339  1.00  0.00    -0.356 OA
HETATM   29  C   UNL     1       1.371   0.152   0.862  1.00  0.00     0.210 C 
ENDBRANCH  24  28
ENDBRANCH   1  22
TORSDOF 5
