REMARK  5 active torsions:
REMARK  status: ('A' for Active; 'I' for Inactive)
REMARK    1  A    between atoms: C_2  and  N_3 
REMARK    2  A    between atoms: N_3  and  C_6 
REMARK    3  A    between atoms: C_6  and  C_7 
REMARK    4  A    between atoms: C_8  and  N_9 
REMARK       I    between atoms: N_9  and  C_10 
REMARK    5  A    between atoms: C_10  and  C_11 
ROOT
HETATM    1  N   UNL     1       3.431   6.034   3.966  1.00  0.00    -0.326 N 
HETATM    2  C   UNL     1       4.356   5.136   4.457  1.00  0.00     0.231 C 
HETATM    3  O   UNL     1       4.546   4.926   5.652  1.00  0.00    -0.272 OA
HETATM    4  H   UNL     1       3.469   6.154   2.957  1.00  0.00     0.169 HD
ENDROOT
BRANCH   1   5
HETATM    5  C   UNL     1       2.550   6.937   4.621  1.00  0.00     0.042 A 
HETATM    6  C   UNL     1       2.192   7.012   5.986  1.00  0.00    -0.006 A 
HETATM    7  C   UNL     1       1.326   8.061   6.398  1.00  0.00     0.011 A 
HETATM    8  C   UNL     1       0.803   8.988   5.501  1.00  0.00     0.001 A 
HETATM    9  C   UNL     1       1.129   8.893   4.162  1.00  0.00     0.002 A 
HETATM   10  C   UNL     1       1.987   7.881   3.732  1.00  0.00     0.030 A 
BRANCH   6  11
HETATM   11  C   UNL     1       2.601   6.069   7.089  1.00  0.00     0.273 C 
BRANCH  11  12
HETATM   12  N   UNL     1       3.977   6.334   7.588  1.00  0.00    -0.072 N 
HETATM   13  H   UNL     1       4.158   7.341   7.650  1.00  0.00     0.277 HD
HETATM   14  H   UNL     1       4.579   5.974   6.822  1.00  0.00     0.277 HD
BRANCH  12  15
HETATM   15  C   UNL     1       4.371   5.610   8.820  1.00  0.00     0.228 C 
HETATM   16  C   UNL     1       5.858   5.800   9.043  1.00  0.00     0.034 C 
ENDBRANCH  12  15
ENDBRANCH  11  12
ENDBRANCH   6  11
ENDBRANCH   1   5
BRANCH   2  17
HETATM   17  C   UNL     1       5.233   4.493   3.371  1.00  0.00     0.122 C 
HETATM   18  C   UNL     1       6.391   5.406   3.030  1.00  0.00    -0.028 A 
HETATM   19  C   UNL     1       7.575   5.107   3.716  1.00  0.00     0.007 A 
HETATM   20  C   UNL     1       6.339   6.506   2.177  1.00  0.00     0.009 A 
HETATM   21  C   UNL     1       8.702   5.903   3.590  1.00  0.00     0.019 A 
HETATM   22  S   UNL     1       7.437   3.642   4.695  1.00  0.00    -0.128 SA
HETATM   23  C   UNL     1       8.647   7.012   2.745  1.00  0.00     0.001 A 
HETATM   24  C   UNL     1       7.474   7.306   2.037  1.00  0.00     0.001 A 
HETATM   25  C   UNL     1       5.869   3.187   3.884  1.00  0.00     0.098 C 
ENDBRANCH   2  17
TORSDOF 5
