REMARK  2 active torsions:
REMARK  status: ('A' for Active; 'I' for Inactive)
REMARK    1  A    between atoms: N_8  and  C_9 
REMARK    2  A    between atoms: C_11  and  C_12 
ROOT
HETATM    1  C   UNL     1       0.502   0.073  -0.177  1.00  0.00     0.269 C 
HETATM    2  N   UNL     1       1.999  -0.030  -0.062  1.00  0.00    -0.075 N 
HETATM    3  H   UNL     1       2.334   0.942  -0.123  1.00  0.00     0.279 HD
HETATM    4  C   UNL     1       2.468  -0.518   1.287  1.00  0.00     0.235 C 
HETATM    5  C   UNL     1       2.269  -2.023   1.410  1.00  0.00     0.039 C 
HETATM    6  C   UNL     1       2.974  -2.821   0.281  1.00  0.00    -0.021 C 
HETATM    7  C   UNL     1       4.516  -2.702   0.392  1.00  0.00     0.151 C 
HETATM    8  N   UNL     1       4.916  -3.283   1.658  1.00  0.00    -0.213 N 
HETATM    9  C   UNL     1       4.718  -4.719   1.798  1.00  0.00     0.141 C 
HETATM   10  C   UNL     1       3.223  -5.016   1.618  1.00  0.00     0.021 C 
HETATM   11  C   UNL     1       2.622  -4.333   0.380  1.00  0.00     0.013 C 
HETATM   12  C   UNL     1       2.487  -2.267  -1.078  1.00  0.00     0.039 C 
HETATM   13  C   UNL     1       2.647  -0.754  -1.212  1.00  0.00     0.235 C 
ENDROOT
BRANCH   8  14
HETATM   14  C   UNL     1       5.841  -2.629   2.435  1.00  0.00     0.724 A 
HETATM   15  N   UNL     1       5.876  -1.289   2.358  1.00  0.00    -0.058 NA
HETATM   16  C   UNL     1       6.717  -0.610   3.185  1.00  0.00     0.160 A 
HETATM   17  C   UNL     1       7.543  -1.262   4.076  1.00  0.00     0.057 A 
HETATM   18  C   UNL     1       7.442  -2.628   4.087  1.00  0.00     0.139 A 
HETATM   19  N   UNL     1       6.600  -3.316   3.295  1.00  0.00    -0.075 NA
BRANCH  16  20
HETATM   20  C   UNL     1       6.732   0.905   3.116  1.00  0.00     0.435 C 
HETATM   21  F   UNL     1       5.683   1.419   2.402  1.00  0.00    -0.165 F 
HETATM   22  F   UNL     1       6.658   1.491   4.344  1.00  0.00    -0.165 F 
HETATM   23  F   UNL     1       7.857   1.398   2.530  1.00  0.00    -0.165 F 
ENDBRANCH  16  20
ENDBRANCH   8  14
TORSDOF 2
