REMARK  8 active torsions:
REMARK  status: ('A' for Active; 'I' for Inactive)
REMARK    1  A    between atoms: C_2  and  N_3 
REMARK       I    between atoms: N_3  and  C_4 
REMARK       I    between atoms: C_4  and  N_5 
REMARK    2  A    between atoms: N_5  and  C_6 
REMARK    3  A    between atoms: N_5  and  C_21 
REMARK    4  A    between atoms: C_6  and  C_7 
REMARK    5  A    between atoms: C_8  and  O_9 
REMARK    6  A    between atoms: C_21  and  C_22 
REMARK    7  A    between atoms: C_22  and  C_23 
REMARK    8  A    between atoms: C_23  and  N_24 
ROOT
HETATM    1  N   UNL     1       1.203   4.375   1.264  1.00  0.00    -0.309 N 
HETATM    2  C   UNL     1       0.383   3.378   0.794  1.00  0.00     0.323 C 
HETATM    3  N   UNL     1      -0.849   3.809   0.278  1.00  0.00    -0.330 N 
HETATM    4  O   UNL     1       0.659   2.180   0.797  1.00  0.00    -0.247 OA
HETATM    5  H   UNL     1       0.746   5.213   1.592  1.00  0.00     0.170 HD
ENDROOT
BRANCH   3   6
HETATM    6  C   UNL     1      -1.181   5.229   0.088  1.00  0.00     0.170 C 
BRANCH   6   7
HETATM    7  C   UNL     1      -2.072   5.555  -1.077  1.00  0.00     0.013 A 
HETATM    8  C   UNL     1      -1.845   5.122  -2.378  1.00  0.00     0.170 A 
HETATM    9  N   UNL     1      -2.625   5.424  -3.432  1.00  0.00    -0.224 NA
HETATM   10  C   UNL     1      -3.642   6.284  -3.247  1.00  0.00     0.072 A 
HETATM   11  C   UNL     1      -3.944   6.823  -1.968  1.00  0.00    -0.004 A 
HETATM   12  C   UNL     1      -4.413   6.683  -4.334  1.00  0.00     0.072 A 
HETATM   13  C   UNL     1      -3.149   6.427  -0.887  1.00  0.00     0.027 A 
HETATM   14  C   UNL     1      -4.996   7.740  -1.793  1.00  0.00     0.053 A 
HETATM   15  C   UNL     1      -5.714   8.111  -2.904  1.00  0.00     0.106 A 
HETATM   16  C   UNL     1      -5.431   7.596  -4.142  1.00  0.00     0.107 A 
HETATM   17  O   UNL     1      -6.740   9.000  -2.928  1.00  0.00    -0.323 OA
HETATM   18  O   UNL     1      -6.247   8.097  -5.107  1.00  0.00    -0.323 OA
HETATM   19  C   UNL     1      -7.053   9.016  -4.338  1.00  0.00     0.352 A 
BRANCH   8  20
HETATM   20  O   UNL     1      -0.800   4.300  -2.694  1.00  0.00    -0.344 OA
HETATM   21  H   UNL     1      -0.075   4.520  -2.086  1.00  0.00     0.219 HD
ENDBRANCH   8  20
ENDBRANCH   6   7
ENDBRANCH   3   6
BRANCH   3  22
HETATM   22  C   UNL     1      -1.954   2.837   0.347  1.00  0.00     0.129 C 
BRANCH  22  23
HETATM   23  C   UNL     1      -2.161   1.952  -0.893  1.00  0.00     0.048 C 
BRANCH  23  24
HETATM   24  C   UNL     1      -0.939   1.118  -1.261  1.00  0.00     0.236 C 
BRANCH  24  25
HETATM   25  N   UNL     1      -1.247   0.138  -2.377  1.00  0.00    -0.067 N 
HETATM   26  H   UNL     1      -2.102  -0.372  -2.126  1.00  0.00     0.280 HD
HETATM   27  C   UNL     1      -1.476   0.805  -3.734  1.00  0.00     0.261 C 
HETATM   28  C   UNL     1      -1.734  -0.276  -4.793  1.00  0.00     0.195 C 
HETATM   29  O   UNL     1      -0.648  -1.207  -4.863  1.00  0.00    -0.388 OA
HETATM   30  C   UNL     1      -0.449  -1.885  -3.619  1.00  0.00     0.195 C 
HETATM   31  C   UNL     1      -0.121  -0.893  -2.501  1.00  0.00     0.261 C 
ENDBRANCH  24  25
ENDBRANCH  23  24
ENDBRANCH  22  23
ENDBRANCH   3  22
BRANCH   1  32
HETATM   32  C   UNL     1       2.542   4.247   1.698  1.00  0.00     0.036 A 
HETATM   33  C   UNL     1       3.338   3.126   1.446  1.00  0.00     0.032 A 
HETATM   34  C   UNL     1       4.656   3.079   1.911  1.00  0.00     0.044 A 
HETATM   35  C   UNL     1       5.178   4.155   2.618  1.00  0.00     0.116 A 
HETATM   36  C   UNL     1       4.407   5.282   2.866  1.00  0.00     0.044 A 
HETATM   37  F   UNL     1       6.439   4.105   3.064  1.00  0.00    -0.206 F 
HETATM   38  C   UNL     1       3.090   5.330   2.402  1.00  0.00     0.032 A 
ENDBRANCH   1  32
TORSDOF 8
