REMARK  7 active torsions:
REMARK  status: ('A' for Active; 'I' for Inactive)
REMARK    1  A    between atoms: C_2  and  O_3 
REMARK    2  A    between atoms: O_3  and  C_4 
REMARK    3  A    between atoms: C_4  and  C_5 
REMARK    4  A    between atoms: C_6  and  C_7 
REMARK    5  A    between atoms: C_18  and  S_19 
REMARK    6  A    between atoms: S_19  and  C_20 
REMARK    7  A    between atoms: C_20  and  C_21 
ROOT
HETATM    1  C   UNL     1       5.540   0.242  -0.366  1.00  0.00     0.070 A 
HETATM    2  C   UNL     1       6.624   0.790   0.551  1.00  0.00     0.204 A 
HETATM    3  N   UNL     1       7.323  -0.286   1.264  1.00  0.00    -0.082 N 
HETATM    4  C   UNL     1       7.055  -1.617   1.098  1.00  0.00     0.726 A 
HETATM    5  N   UNL     1       6.088  -1.991   0.239  1.00  0.00    -0.192 N 
HETATM    6  N   UNL     1       8.356  -0.095   2.106  1.00  0.00    -0.128 NA
HETATM    7  C   UNL     1       8.605  -1.354   2.485  1.00  0.00     0.226 A 
HETATM    8  N   UNL     1       7.850  -2.319   1.864  1.00  0.00    -0.035 NA
HETATM    9  C   UNL     1       5.325  -1.090  -0.499  1.00  0.00     0.037 A 
HETATM   10  C   UNL     1       4.324  -1.705  -1.445  1.00  0.00     0.070 C 
HETATM   11  H   UNL     1       5.875  -2.980   0.141  1.00  0.00     0.184 HD
ENDROOT
BRANCH   7  12
HETATM   12  S   UNL     1       9.817  -1.692   3.686  1.00  0.00    -0.083 SA
BRANCH  12  13
HETATM   13  C   UNL     1       9.606  -3.484   3.863  1.00  0.00     0.123 C 
BRANCH  13  14
HETATM   14  C   UNL     1      10.431  -4.023   5.009  1.00  0.00    -0.027 A 
HETATM   15  C   UNL     1       9.919  -4.186   6.306  1.00  0.00     0.041 A 
HETATM   16 CL   UNL     1       8.281  -3.804   6.703  1.00  0.00    -0.084 Cl
HETATM   17  C   UNL     1      10.733  -4.668   7.337  1.00  0.00     0.024 A 
HETATM   18  C   UNL     1      12.068  -4.984   7.091  1.00  0.00     0.002 A 
HETATM   19  C   UNL     1      12.594  -4.818   5.814  1.00  0.00     0.001 A 
HETATM   20  C   UNL     1      11.784  -4.341   4.781  1.00  0.00     0.009 A 
ENDBRANCH  13  14
ENDBRANCH  12  13
ENDBRANCH   7  12
BRANCH   2  21
HETATM   21  C   UNL     1       6.155   1.869   1.526  1.00  0.00    -0.006 A 
HETATM   22  C   UNL     1       5.205   1.663   2.542  1.00  0.00     0.042 A 
HETATM   23 CL   UNL     1       4.414   0.148   2.789  1.00  0.00    -0.084 Cl
HETATM   24  C   UNL     1       4.847   2.706   3.405  1.00  0.00     0.024 A 
HETATM   25  C   UNL     1       5.424   3.967   3.270  1.00  0.00     0.002 A 
HETATM   26  C   UNL     1       6.360   4.193   2.267  1.00  0.00     0.001 A 
HETATM   27  C   UNL     1       6.721   3.157   1.404  1.00  0.00     0.011 A 
ENDBRANCH   2  21
BRANCH   1  28
HETATM   28  C   UNL     1       4.809   1.284  -1.112  1.00  0.00     0.293 C 
HETATM   29  O   UNL     1       5.365   2.235  -1.636  1.00  0.00    -0.259 OA
BRANCH  28  30
HETATM   30  O   UNL     1       3.473   1.071  -1.031  1.00  0.00    -0.318 OA
BRANCH  30  31
HETATM   31  C   UNL     1       2.642   2.093  -1.601  1.00  0.00     0.174 C 
HETATM   32  C   UNL     1       2.512   1.904  -3.101  1.00  0.00     0.034 C 
ENDBRANCH  30  31
ENDBRANCH  28  30
ENDBRANCH   1  28
TORSDOF 7
