REMARK  8 active torsions:
REMARK  status: ('A' for Active; 'I' for Inactive)
REMARK    1  A    between atoms: C_4  and  S_5 
REMARK    2  A    between atoms: S_5  and  C_6 
REMARK    3  A    between atoms: C_6  and  C_7 
REMARK       I    between atoms: C_7  and  N_8 
REMARK    4  A    between atoms: N_8  and  C_9 
REMARK    5  A    between atoms: C_20  and  C_21 
REMARK    6  A    between atoms: C_27  and  C_28 
REMARK       I    between atoms: C_28  and  N_29 
REMARK    7  A    between atoms: N_29  and  C_30 
REMARK    8  A    between atoms: C_31  and  O_32 
ROOT
HETATM    1  C   UNL     1       0.907  -0.070  -0.137  1.00  0.00     0.069 C 
HETATM    2  C   UNL     1       2.414  -0.167  -0.187  1.00  0.00     0.019 C 
HETATM    3  N   UNL     1       3.093   1.032  -0.041  1.00  0.00    -0.353 N 
HETATM    4  C   UNL     1       4.446   1.209  -0.249  1.00  0.00     0.087 C 
HETATM    5  C   UNL     1       5.221   0.115  -0.442  1.00  0.00     0.055 C 
HETATM    6  C   UNL     1       6.684   0.234  -0.837  1.00  0.00     0.019 C 
HETATM    7  N   UNL     1       7.898   0.333  -1.165  1.00  0.00    -0.096 N 
HETATM    8  C   UNL     1       4.643  -1.285  -0.246  1.00  0.00     0.104 C 
HETATM    9  C   UNL     1       3.115  -1.323  -0.315  1.00  0.00     0.046 C 
HETATM   10  H   UNL     1       2.546   1.883   0.056  1.00  0.00     0.166 HD
ENDROOT
BRANCH   4  11
HETATM   11  S   UNL     1       5.133   2.808  -0.087  1.00  0.00    -0.102 SA
BRANCH  11  12
HETATM   12  C   UNL     1       5.376   3.329  -1.815  1.00  0.00     0.184 C 
BRANCH  12  13
HETATM   13  C   UNL     1       6.099   4.679  -1.933  1.00  0.00     0.231 C 
HETATM   14  N   UNL     1       6.262   5.362  -0.743  1.00  0.00    -0.327 N 
HETATM   15  H   UNL     1       5.887   4.889   0.074  1.00  0.00     0.169 HD
HETATM   16  O   UNL     1       6.449   5.083  -3.040  1.00  0.00    -0.272 OA
BRANCH  14  17
HETATM   17  C   UNL     1       6.905   6.590  -0.506  1.00  0.00     0.034 A 
HETATM   18  C   UNL     1       7.552   7.339  -1.490  1.00  0.00     0.031 A 
HETATM   19  C   UNL     1       8.181   8.546  -1.161  1.00  0.00     0.026 A 
HETATM   20  C   UNL     1       8.160   9.009   0.152  1.00  0.00     0.034 A 
HETATM   21 CL   UNL     1       8.931  10.492   0.554  1.00  0.00    -0.084 Cl
HETATM   22  C   UNL     1       7.517   8.273   1.144  1.00  0.00     0.026 A 
HETATM   23  C   UNL     1       6.894   7.066   0.814  1.00  0.00     0.031 A 
ENDBRANCH  14  17
ENDBRANCH  12  13
ENDBRANCH  11  12
ENDBRANCH   4  11
BRANCH   8  24
HETATM   24  C   UNL     1       5.180  -1.836   1.086  1.00  0.00    -0.044 A 
HETATM   25  C   UNL     1       4.579  -1.495   2.314  1.00  0.00     0.008 A 
HETATM   26  C   UNL     1       5.108  -1.950   3.522  1.00  0.00     0.001 A 
HETATM   27  C   UNL     1       6.253  -2.741   3.525  1.00  0.00     0.000 A 
HETATM   28  C   UNL     1       6.868  -3.078   2.321  1.00  0.00     0.001 A 
HETATM   29  C   UNL     1       6.339  -2.629   1.108  1.00  0.00     0.008 A 
ENDBRANCH   8  24
BRANCH   9  30
HETATM   30  C   UNL     1       2.394  -2.618  -0.567  1.00  0.00     0.255 C 
HETATM   31  N   UNL     1       3.068  -3.764  -0.201  1.00  0.00    -0.321 N 
HETATM   32  H   UNL     1       4.068  -3.742  -0.085  1.00  0.00     0.169 HD
HETATM   33  O   UNL     1       1.325  -2.613  -1.174  1.00  0.00    -0.268 OA
BRANCH  31  34
HETATM   34  C   UNL     1       2.481  -5.051  -0.170  1.00  0.00     0.068 A 
HETATM   35  C   UNL     1       1.176  -5.294   0.306  1.00  0.00     0.095 A 
HETATM   36  C   UNL     1       0.669  -6.599   0.259  1.00  0.00     0.039 A 
HETATM   37  C   UNL     1       1.457  -7.651  -0.216  1.00  0.00     0.003 A 
HETATM   38  C   UNL     1       2.767  -7.416  -0.623  1.00  0.00     0.002 A 
HETATM   39  C   UNL     1       3.284  -6.122  -0.584  1.00  0.00     0.032 A 
BRANCH  35  40
HETATM   40  O   UNL     1       0.526  -4.241   0.898  1.00  0.00    -0.354 OA
HETATM   41  C   UNL     1      -0.797  -4.454   1.363  1.00  0.00     0.210 C 
ENDBRANCH  35  40
ENDBRANCH  31  34
ENDBRANCH   9  30
TORSDOF 8
