REMARK  7 active torsions:
REMARK  status: ('A' for Active; 'I' for Inactive)
REMARK    1  A    between atoms: C_2  and  C_3 
REMARK    2  A    between atoms: C_3  and  N_4 
REMARK    3  A    between atoms: C_7  and  C_8 
REMARK    4  A    between atoms: C_8  and  N_9 
REMARK       I    between atoms: N_9  and  C_10 
REMARK       I    between atoms: C_10  and  N_11 
REMARK    5  A    between atoms: N_11  and  C_12 
REMARK    6  A    between atoms: C_15  and  N_16 
REMARK       I    between atoms: N_16  and  C_17 
REMARK    7  A    between atoms: C_17  and  C_18 
ROOT
HETATM    1  N   UNL     1       5.809   4.867  -3.875  1.00  0.00    -0.342 N 
HETATM    2  C   UNL     1       6.962   5.474  -4.275  1.00  0.00     0.320 C 
HETATM    3  N   UNL     1       6.932   6.830  -4.422  1.00  0.00    -0.309 N 
HETATM    4  O   UNL     1       7.964   4.833  -4.582  1.00  0.00    -0.247 OA
HETATM    5  H   UNL     1       4.961   5.403  -3.998  1.00  0.00     0.164 HD
HETATM    6  H   UNL     1       7.730   7.170  -4.948  1.00  0.00     0.170 HD
ENDROOT
BRANCH   3   7
HETATM    7  C   UNL     1       5.989   7.791  -4.013  1.00  0.00     0.036 A 
HETATM    8  C   UNL     1       5.088   7.595  -2.966  1.00  0.00     0.032 A 
HETATM    9  C   UNL     1       4.100   8.547  -2.685  1.00  0.00     0.032 A 
HETATM   10  C   UNL     1       4.016   9.721  -3.430  1.00  0.00     0.035 A 
HETATM   11  C   UNL     1       4.987   9.967  -4.406  1.00  0.00     0.032 A 
HETATM   12  C   UNL     1       5.972   9.013  -4.690  1.00  0.00     0.032 A 
BRANCH  10  13
HETATM   13  N   UNL     1       2.990  10.671  -3.281  1.00  0.00    -0.321 N 
HETATM   14  C   UNL     1       1.844  10.574  -2.508  1.00  0.00     0.279 C 
HETATM   15  O   UNL     1       1.583   9.653  -1.740  1.00  0.00    -0.265 OA
HETATM   16  H   UNL     1       3.026  11.495  -3.873  1.00  0.00     0.169 HD
BRANCH  14  17
HETATM   17  C   UNL     1       0.925  11.676  -2.730  1.00  0.00     0.142 A 
HETATM   18  O   UNL     1       1.251  12.653  -3.638  1.00  0.00    -0.317 OA
HETATM   19  C   UNL     1       0.214  13.529  -3.672  1.00  0.00     0.143 A 
HETATM   20  C   UNL     1      -0.777  13.138  -2.803  1.00  0.00     0.027 A 
HETATM   21  C   UNL     1      -0.319  11.946  -2.193  1.00  0.00     0.045 A 
ENDBRANCH  14  17
ENDBRANCH  10  13
ENDBRANCH   3   7
BRANCH   1  22
HETATM   22  C   UNL     1       5.697   3.438  -3.694  1.00  0.00     0.130 C 
BRANCH  22  23
HETATM   23  C   UNL     1       5.196   2.745  -4.955  1.00  0.00     0.031 C 
HETATM   24  C   UNL     1       4.890   1.278  -4.714  1.00  0.00     0.241 C 
HETATM   25  N   UNL     1       4.844   0.675  -6.110  1.00  0.00    -0.071 N 
HETATM   26  H   UNL     1       5.374  -0.208  -6.076  1.00  0.00     0.279 HD
HETATM   27  C   UNL     1       5.593   1.638  -7.025  1.00  0.00     0.235 C 
HETATM   28  C   UNL     1       6.205   2.666  -6.092  1.00  0.00     0.035 C 
BRANCH  25  29
HETATM   29  C   UNL     1       3.442   0.350  -6.568  1.00  0.00     0.234 C 
BRANCH  29  30
HETATM   30  C   UNL     1       3.477  -0.482  -7.845  1.00  0.00     0.023 C 
HETATM   31  C   UNL     1       2.068  -0.796  -8.324  1.00  0.00     0.007 C 
ENDBRANCH  29  30
ENDBRANCH  25  29
ENDBRANCH  22  23
ENDBRANCH   1  22
TORSDOF 7
