REMARK  8 active torsions:
REMARK  status: ('A' for Active; 'I' for Inactive)
REMARK    1  A    between atoms: O_2  and  C_3 
REMARK    2  A    between atoms: C_3  and  C_4 
REMARK    3  A    between atoms: C_5  and  C_6 
REMARK    4  A    between atoms: C_6  and  C_7 
REMARK    5  A    between atoms: C_7  and  N_8 
REMARK    6  A    between atoms: N_13  and  C_14 
REMARK    7  A    between atoms: C_14  and  C_15 
REMARK    8  A    between atoms: C_15  and  N_16 
ROOT
HETATM    1  N   UNL     1       2.512   0.138  -0.988  1.00  0.00    -0.174 N 
HETATM    2  C   UNL     1       3.010   1.367  -0.629  1.00  0.00     0.681 C 
HETATM    3  N   UNL     1       2.825   2.484  -1.347  1.00  0.00    -0.234 N 
HETATM    4  H   UNL     1       3.281   3.358  -1.131  1.00  0.00     0.174 HD
HETATM    5  H   UNL     1       2.489   2.415  -2.307  1.00  0.00     0.174 HD
HETATM    6  N   UNL     1       3.732   1.334   0.572  1.00  0.00    -0.180 N 
HETATM    7  C   UNL     1       3.886  -0.065   0.838  1.00  0.00     0.079 A 
HETATM    8  C   UNL     1       3.125  -0.787  -0.097  1.00  0.00     0.079 A 
HETATM    9  C   UNL     1       4.670  -0.705   1.774  1.00  0.00     0.032 A 
HETATM   10  C   UNL     1       4.673  -2.104   1.758  1.00  0.00     0.002 A 
HETATM   11  C   UNL     1       3.902  -2.825   0.825  1.00  0.00     0.002 A 
HETATM   12  C   UNL     1       3.113  -2.164  -0.120  1.00  0.00     0.032 A 
ENDROOT
BRANCH   1  13
HETATM   13  C   UNL     1       1.722  -0.207  -2.173  1.00  0.00     0.231 C 
BRANCH  13  14
HETATM   14  C   UNL     1       2.670  -0.503  -3.313  1.00  0.00     0.179 C 
HETATM   15  O   UNL     1       3.880  -0.629  -3.143  1.00  0.00    -0.290 OA
BRANCH  14  16
HETATM   16  C   UNL     1       2.098  -0.600  -4.673  1.00  0.00     0.028 A 
HETATM   17  C   UNL     1       2.662   0.134  -5.725  1.00  0.00     0.053 A 
HETATM   18  C   UNL     1       2.162  -0.013  -7.025  1.00  0.00     0.018 A 
HETATM   19  C   UNL     1       1.096  -0.881  -7.264  1.00  0.00     0.001 A 
HETATM   20  C   UNL     1       0.525  -1.599  -6.212  1.00  0.00     0.001 A 
HETATM   21  C   UNL     1       1.024  -1.465  -4.915  1.00  0.00     0.016 A 
BRANCH  17  22
HETATM   22  C   UNL     1       3.713   1.135  -5.447  1.00  0.00     0.293 C 
HETATM   23  O   UNL     1       3.638   1.923  -4.511  1.00  0.00    -0.259 OA
BRANCH  22  24
HETATM   24  O   UNL     1       4.699   0.983  -6.352  1.00  0.00    -0.322 OA
HETATM   25  C   UNL     1       5.855   1.806  -6.188  1.00  0.00     0.213 C 
ENDBRANCH  22  24
ENDBRANCH  17  22
ENDBRANCH  14  16
ENDBRANCH  13  14
ENDBRANCH   1  13
BRANCH   6  26
HETATM   26  C   UNL     1       4.446   2.438   1.227  1.00  0.00     0.175 C 
BRANCH  26  27
HETATM   27  C   UNL     1       3.561   3.294   2.164  1.00  0.00     0.255 C 
BRANCH  27  28
HETATM   28  N   UNL     1       2.994   2.526   3.353  1.00  0.00    -0.070 N 
HETATM   29  H   UNL     1       2.584   1.648   3.008  1.00  0.00     0.279 HD
HETATM   30  C   UNL     1       4.043   2.177   4.397  1.00  0.00     0.235 C 
HETATM   31  C   UNL     1       3.411   1.332   5.494  1.00  0.00     0.028 C 
HETATM   32  C   UNL     1       2.245   2.056   6.154  1.00  0.00     0.003 C 
HETATM   33  C   UNL     1       1.221   2.497   5.115  1.00  0.00     0.028 C 
HETATM   34  C   UNL     1       1.858   3.316   4.002  1.00  0.00     0.235 C 
ENDBRANCH  27  28
ENDBRANCH  26  27
ENDBRANCH   6  26
TORSDOF 8
