REMARK  2 active torsions:
REMARK  status: ('A' for Active; 'I' for Inactive)
REMARK    1  A    between atoms: C_8  and  S_9 
REMARK    2  A    between atoms: S_9  and  C_10 
ROOT
HETATM    1  C   UNL     1       5.116   2.931   5.860  1.00  0.00     0.002 A 
HETATM    2  C   UNL     1       5.069   2.188   4.680  1.00  0.00     0.034 A 
HETATM    3  C   UNL     1       4.586   2.739   3.500  1.00  0.00     0.087 A 
HETATM    4  C   UNL     1       4.133   4.086   3.502  1.00  0.00     0.087 A 
HETATM    5  N   UNL     1       3.650   4.667   2.386  1.00  0.00    -0.232 NA
HETATM    6  C   UNL     1       3.645   3.912   1.270  1.00  0.00     0.164 A 
HETATM    7 CL   UNL     1       3.005   4.705  -0.110  1.00  0.00    -0.059 Cl
HETATM    8  C   UNL     1       4.083   2.599   1.266  1.00  0.00     0.165 A 
HETATM    9  N   UNL     1       4.549   1.987   2.380  1.00  0.00    -0.234 NA
HETATM   10  C   UNL     1       4.185   4.814   4.683  1.00  0.00     0.034 A 
HETATM   11  C   UNL     1       4.673   4.248   5.862  1.00  0.00     0.002 A 
ENDROOT
BRANCH   8  12
HETATM   12  S   UNL     1       4.077   1.549  -0.176  1.00  0.00     0.078 S 
HETATM   13  O   UNL     1       4.988   0.375   0.061  1.00  0.00    -0.251 OA
BRANCH  12  14
HETATM   14  C   UNL     1       2.367   0.865  -0.099  1.00  0.00     0.112 C 
HETATM   15  C   UNL     1       2.320  -0.321  -1.078  1.00  0.00     0.250 C 
HETATM   16  N   UNL     1       3.114  -1.473  -0.529  1.00  0.00    -0.074 N 
HETATM   17  H   UNL     1       4.095  -1.144  -0.382  1.00  0.00     0.277 HD
HETATM   18  H   UNL     1       3.183  -2.234  -1.217  1.00  0.00     0.277 HD
HETATM   19  C   UNL     1       2.612  -1.991   0.773  1.00  0.00     0.232 C 
HETATM   20  C   UNL     1       2.611  -0.866   1.797  1.00  0.00     0.029 C 
HETATM   21  C   UNL     1       1.903   0.395   1.288  1.00  0.00     0.021 C 
ENDBRANCH  12  14
ENDBRANCH   8  12
TORSDOF 2
