REMARK  3 active torsions:
REMARK  status: ('A' for Active; 'I' for Inactive)
REMARK    1  A    between atoms: N_7  and  O_8 
REMARK    2  A    between atoms: O_8  and  C_9 
REMARK    3  A    between atoms: C_9  and  C_10 
ROOT
HETATM    1  O   UNL     1       5.410   1.246   3.873  1.00  0.00    -0.170 OA
ENDROOT
BRANCH   1   2
HETATM    2  N   UNL     1       5.317   0.014   3.202  1.00  0.00    -0.134 NA
HETATM    3  C   UNL     1       4.908   0.124   1.982  1.00  0.00     0.043 C 
HETATM    4  C   UNL     1       4.509   1.394   1.282  1.00  0.00     0.084 C 
HETATM    5  C   UNL     1       4.646  -1.142   1.211  1.00  0.00     0.084 C 
HETATM    6  C   UNL     1       3.002   1.315   1.093  1.00  0.00     0.240 C 
HETATM    7  N   UNL     1       2.626   0.035   0.356  1.00  0.00    -0.074 N 
HETATM    8  C   UNL     1       1.136  -0.042   0.131  1.00  0.00     0.269 C 
HETATM    9  H   UNL     1       3.054   0.066  -0.580  1.00  0.00     0.279 HD
HETATM   10  C   UNL     1       3.137  -1.221   1.057  1.00  0.00     0.240 C 
ENDBRANCH   1   2
BRANCH   1  11
HETATM   11  C   UNL     1       5.429   1.016   5.226  1.00  0.00     0.317 C 
HETATM   12  O   UNL     1       5.299  -0.065   5.782  1.00  0.00    -0.257 OA
BRANCH  11  13
HETATM   13  C   UNL     1       5.536   2.297   5.978  1.00  0.00     0.041 A 
HETATM   14  C   UNL     1       5.367   2.249   7.371  1.00  0.00     0.019 A 
HETATM   15  C   UNL     1       5.428   3.418   8.133  1.00  0.00     0.020 A 
HETATM   16  C   UNL     1       5.661   4.638   7.505  1.00  0.00     0.011 A 
HETATM   17 BR   UNL     1       5.730   6.223   8.532  1.00  0.00    -0.051 Br
HETATM   18  C   UNL     1       5.842   4.700   6.123  1.00  0.00     0.020 A 
HETATM   19  C   UNL     1       5.782   3.530   5.357  1.00  0.00     0.019 A 
ENDBRANCH  11  13
ENDBRANCH   1  11
TORSDOF 3
