REMARK  6 active torsions:
REMARK  status: ('A' for Active; 'I' for Inactive)
REMARK    1  A    between atoms: C_4  and  O_5 
REMARK    2  A    between atoms: O_5  and  C_6 
REMARK    3  A    between atoms: C_6  and  C_7 
REMARK       I    between atoms: C_7  and  N_8 
REMARK    4  A    between atoms: N_8  and  C_9 
REMARK    5  A    between atoms: C_16  and  C_17 
REMARK       I    between atoms: C_17  and  N_18 
REMARK    6  A    between atoms: C_23  and  C_24 
ROOT
HETATM    1  C   UNL     1       5.621   4.595  -0.845  1.00  0.00     0.246 C 
HETATM    2  N   UNL     1       6.078   5.250   0.287  1.00  0.00    -0.325 N 
HETATM    3  O   UNL     1       5.858   4.899  -2.010  1.00  0.00    -0.271 OA
HETATM    4  H   UNL     1       5.897   4.775   1.166  1.00  0.00     0.169 HD
ENDROOT
BRANCH   2   5
HETATM    5  C   UNL     1       6.772   6.478   0.344  1.00  0.00     0.035 A 
HETATM    6  C   UNL     1       7.041   7.266  -0.785  1.00  0.00     0.046 A 
HETATM    7  C   UNL     1       7.694   8.509  -0.636  1.00  0.00     0.030 A 
HETATM    8  C   UNL     1       8.062   8.923   0.638  1.00  0.00     0.063 A 
HETATM    9  C   UNL     1       8.114   9.561  -1.505  1.00  0.00     0.156 A 
HETATM   10  N   UNL     1       8.657  10.141   0.464  1.00  0.00    -0.277 N 
HETATM   11  C   UNL     1       7.816   8.164   1.785  1.00  0.00     0.034 A 
HETATM   12  H   UNL     1       9.048  10.742   1.181  1.00  0.00     0.189 HD
HETATM   13  N   UNL     1       8.709  10.560  -0.812  1.00  0.00    -0.168 NA
HETATM   14  C   UNL     1       7.162   6.936   1.609  1.00  0.00     0.032 A 
BRANCH   9  15
HETATM   15  C   UNL     1       7.956   9.633  -2.965  1.00  0.00     0.270 C 
HETATM   16  N   UNL     1       8.474  10.769  -3.527  1.00  0.00    -0.365 N 
HETATM   17  H   UNL     1       8.911  11.455  -2.923  1.00  0.00     0.159 HD
HETATM   18  H   UNL     1       8.410  10.905  -4.524  1.00  0.00     0.159 HD
HETATM   19  O   UNL     1       7.413   8.778  -3.655  1.00  0.00    -0.266 OA
ENDBRANCH   9  15
ENDBRANCH   2   5
BRANCH   1  20
HETATM   20  C   UNL     1       4.644   3.465  -0.526  1.00  0.00     0.278 C 
BRANCH  20  21
HETATM   21  O   UNL     1       5.066   2.680   0.590  1.00  0.00    -0.342 OA
BRANCH  21  22
HETATM   22  C   UNL     1       4.368   1.498   0.690  1.00  0.00     0.076 A 
HETATM   23  C   UNL     1       2.965   1.485   0.646  1.00  0.00     0.044 A 
HETATM   24  C   UNL     1       2.251   0.285   0.728  1.00  0.00    -0.059 A 
HETATM   25  C   UNL     1       0.753   0.270   0.650  1.00  0.00     0.048 C 
HETATM   26  C   UNL     1       2.955  -0.907   0.896  1.00  0.00     0.007 A 
HETATM   27  C   UNL     1       4.349  -0.897   0.979  1.00  0.00     0.011 A 
HETATM   28  C   UNL     1       5.082   0.303   0.884  1.00  0.00    -0.021 A 
BRANCH  28  29
HETATM   29  C   UNL     1       6.599   0.215   0.964  1.00  0.00     0.013 C 
HETATM   30  C   UNL     1       7.268   0.574  -0.364  1.00  0.00     0.015 C 
HETATM   31  C   UNL     1       7.182   1.022   2.125  1.00  0.00     0.015 C 
ENDBRANCH  28  29
ENDBRANCH  21  22
ENDBRANCH  20  21
ENDBRANCH   1  20
TORSDOF 6
