REMARK  7 active torsions:
REMARK  status: ('A' for Active; 'I' for Inactive)
REMARK    1  A    between atoms: C_7  and  C_8 
REMARK       I    between atoms: C_8  and  N_9 
REMARK    2  A    between atoms: N_9  and  C_10 
REMARK    3  A    between atoms: C_10  and  C_11 
REMARK    4  A    between atoms: C_11  and  O_12 
REMARK    5  A    between atoms: C_11  and  C_13 
REMARK    6  A    between atoms: C_15  and  O_16 
REMARK    7  A    between atoms: O_16  and  C_17 
ROOT
HETATM    1  C   UNL     1       3.014   5.920   1.027  1.00  0.00     0.253 C 
HETATM    2  N   UNL     1       2.580   5.256  -0.094  1.00  0.00    -0.354 N 
HETATM    3  O   UNL     1       2.404   5.913   2.090  1.00  0.00    -0.268 OA
HETATM    4  H   UNL     1       3.040   5.385  -0.985  1.00  0.00     0.162 HD
ENDROOT
BRANCH   2   5
HETATM    5  C   UNL     1       1.388   4.415  -0.055  1.00  0.00     0.159 C 
BRANCH   5   6
HETATM    6  C   UNL     1       0.080   5.228   0.014  1.00  0.00     0.169 C 
BRANCH   6   7
HETATM    7  O   UNL     1      -0.017   6.063  -1.148  1.00  0.00    -0.389 OA
HETATM    8  H   UNL     1       0.672   6.740  -1.037  1.00  0.00     0.210 HD
ENDBRANCH   6   7
BRANCH   6   9
HETATM    9  C   UNL     1      -1.127   4.317   0.097  1.00  0.00    -0.025 A 
HETATM   10  C   UNL     1      -1.795   3.869  -1.057  1.00  0.00     0.046 A 
HETATM   11  C   UNL     1      -2.895   3.014  -0.958  1.00  0.00     0.075 A 
HETATM   12  C   UNL     1      -3.308   2.571   0.300  1.00  0.00     0.037 A 
HETATM   13  C   UNL     1      -2.651   2.999   1.453  1.00  0.00     0.003 A 
HETATM   14  C   UNL     1      -1.568   3.870   1.352  1.00  0.00     0.010 A 
BRANCH  11  15
HETATM   15  O   UNL     1      -3.623   2.524  -2.006  1.00  0.00    -0.290 OA
BRANCH  15  16
HETATM   16  C   UNL     1      -3.520   3.244  -3.223  1.00  0.00     0.505 C 
HETATM   17  F   UNL     1      -2.346   2.930  -3.826  1.00  0.00    -0.184 F 
HETATM   18  F   UNL     1      -4.505   2.793  -4.042  1.00  0.00    -0.184 F 
ENDBRANCH  15  16
ENDBRANCH  11  15
ENDBRANCH   6   9
ENDBRANCH   5   6
ENDBRANCH   2   5
BRANCH   1  19
HETATM   19  C   UNL     1       4.258   6.728   0.852  1.00  0.00     0.048 A 
HETATM   20  C   UNL     1       4.399   8.000   1.562  1.00  0.00     0.022 A 
HETATM   21  C   UNL     1       5.516   8.747   1.464  1.00  0.00     0.054 A 
HETATM   22  C   UNL     1       6.594   8.288   0.662  1.00  0.00     0.157 A 
HETATM   23  N   UNL     1       6.447   7.066   0.023  1.00  0.00    -0.291 N 
HETATM   24  N   UNL     1       7.774   8.793   0.381  1.00  0.00    -0.130 NA
HETATM   25  C   UNL     1       7.636   6.870  -0.647  1.00  0.00     0.130 A 
HETATM   26  C   UNL     1       5.295   6.284   0.112  1.00  0.00     0.117 A 
HETATM   27  C   UNL     1       7.948   5.683  -1.473  1.00  0.00     0.094 C 
HETATM   28  N   UNL     1       8.426   7.904  -0.441  1.00  0.00    -0.135 NA
ENDBRANCH   1  19
TORSDOF 7
