REMARK  6 active torsions:
REMARK  status: ('A' for Active; 'I' for Inactive)
REMARK    1  A    between atoms: N_2  and  C_4 
REMARK    2  A    between atoms: C_4  and  C_5 
REMARK    3  A    between atoms: C_5  and  C_6 
REMARK    4  A    between atoms: C_6  and  N_7 
REMARK    5  A    between atoms: C_17  and  C_18 
REMARK    6  A    between atoms: C_26  and  O_27 
ROOT
HETATM    1  N   UNL     1       2.735   1.419   4.848  1.00  0.00    -0.327 N 
HETATM    2  C   UNL     1       2.967   2.635   4.343  1.00  0.00     0.113 C 
HETATM    3  N   UNL     1       3.430   2.858   3.127  1.00  0.00    -0.385 N 
HETATM    4  H   UNL     1       3.583   3.796   2.773  1.00  0.00     0.157 HD
HETATM    5  H   UNL     1       3.741   2.139   2.491  1.00  0.00     0.157 HD
HETATM    6  C   UNL     1       2.636   3.808   5.218  1.00  0.00     0.052 C 
HETATM    7  C   UNL     1       2.228   3.567   6.479  1.00  0.00     0.182 C 
HETATM    8  O   UNL     1       1.886   4.573   7.367  1.00  0.00    -0.291 OA
HETATM    9  C   UNL     1       2.163   5.879   7.058  1.00  0.00     0.087 A 
HETATM   10  C   UNL     1       2.610   6.266   5.793  1.00  0.00    -0.011 A 
HETATM   11  C   UNL     1       2.764   5.230   4.704  1.00  0.00     0.095 C 
HETATM   12  C   UNL     1       1.982   6.815   8.078  1.00  0.00     0.074 A 
HETATM   13  C   UNL     1       2.267   8.151   7.829  1.00  0.00     0.068 A 
HETATM   14  C   UNL     1       2.727   8.559   6.583  1.00  0.00     0.037 A 
HETATM   15  C   UNL     1       2.900   7.621   5.565  1.00  0.00     0.014 A 
HETATM   16  N   UNL     1       2.134   2.308   6.998  1.00  0.00    -0.219 NA
HETATM   17  C   UNL     1       2.402   1.309   6.245  1.00  0.00     0.214 C 
ENDROOT
BRANCH   1  18
HETATM   18  C   UNL     1       2.923   0.147   4.110  1.00  0.00     0.133 C 
BRANCH  18  19
HETATM   19  C   UNL     1       1.666  -0.743   4.107  1.00  0.00     0.048 C 
BRANCH  19  20
HETATM   20  C   UNL     1       0.478  -0.137   3.357  1.00  0.00     0.235 C 
BRANCH  20  21
HETATM   21  N   UNL     1      -0.734  -1.050   3.420  1.00  0.00    -0.079 N 
HETATM   22  C   UNL     1      -0.631  -2.279   2.542  1.00  0.00     0.269 C 
HETATM   23  H   UNL     1      -0.856  -1.392   4.384  1.00  0.00     0.278 HD
HETATM   24  C   UNL     1      -2.016  -0.303   3.104  1.00  0.00     0.269 C 
ENDBRANCH  20  21
ENDBRANCH  19  20
ENDBRANCH  18  19
ENDBRANCH   1  18
BRANCH  11  25
HETATM   25  C   UNL     1       1.808   5.496   3.539  1.00  0.00    -0.045 A 
HETATM   26  C   UNL     1       2.298   6.006   2.323  1.00  0.00     0.010 A 
HETATM   27  C   UNL     1       1.434   6.242   1.251  1.00  0.00     0.024 A 
HETATM   28  C   UNL     1       0.071   5.990   1.390  1.00  0.00     0.034 A 
HETATM   29 CL   UNL     1      -0.989   6.260   0.065  1.00  0.00    -0.084 Cl
HETATM   30  C   UNL     1      -0.438   5.520   2.597  1.00  0.00     0.024 A 
HETATM   31  C   UNL     1       0.424   5.277   3.669  1.00  0.00     0.010 A 
ENDBRANCH  11  25
BRANCH  13  32
HETATM   32  O   UNL     1       2.113   9.107   8.786  1.00  0.00    -0.361 OA
HETATM   33  H   UNL     1       1.795   8.704   9.611  1.00  0.00     0.217 HD
ENDBRANCH  13  32
TORSDOF 6
