REMARK  7 active torsions:
REMARK  status: ('A' for Active; 'I' for Inactive)
REMARK    1  A    between atoms: C_2  and  C_3 
REMARK       I    between atoms: C_3  and  N_4 
REMARK    2  A    between atoms: N_7  and  C_8 
REMARK    3  A    between atoms: C_11  and  N_12 
REMARK    4  A    between atoms: N_12  and  C_13 
REMARK    5  A    between atoms: C_13  and  N_14 
REMARK       I    between atoms: N_14  and  C_15 
REMARK    6  A    between atoms: C_15  and  C_16 
REMARK    7  A    between atoms: C_18  and  C_19 
ROOT
HETATM    1  C   UNL     1      -3.646  -9.245  -2.149  1.00  0.00     0.179 C 
HETATM    2  S   UNL     1      -2.948  -9.505  -0.648  1.00  0.00    -0.040 SA
ENDROOT
BRANCH   1   3
HETATM    3  N   UNL     1      -3.321  -8.300  -3.092  1.00  0.00    -0.333 N 
HETATM    4  H   UNL     1      -4.085  -8.033  -3.710  1.00  0.00     0.168 HD
BRANCH   3   5
HETATM    5  C   UNL     1      -2.134  -7.546  -3.209  1.00  0.00     0.034 A 
HETATM    6  C   UNL     1      -0.893  -8.036  -2.819  1.00  0.00     0.032 A 
HETATM    7  C   UNL     1       0.254  -7.250  -2.951  1.00  0.00     0.031 A 
HETATM    8  C   UNL     1       0.210  -5.941  -3.454  1.00  0.00     0.030 A 
HETATM    9  C   UNL     1      -1.036  -5.492  -3.911  1.00  0.00     0.031 A 
HETATM   10  C   UNL     1      -2.192  -6.288  -3.806  1.00  0.00     0.032 A 
BRANCH   8  11
HETATM   11  N   UNL     1       1.390  -5.188  -3.520  1.00  0.00    -0.378 N 
HETATM   12  C   UNL     1       2.139  -5.102  -2.240  1.00  0.00     0.143 C 
HETATM   13  C   UNL     1       3.590  -4.680  -2.502  1.00  0.00     0.145 C 
HETATM   14  N   UNL     1       3.706  -3.463  -3.313  1.00  0.00    -0.349 N 
HETATM   15  C   UNL     1       4.914  -2.775  -3.227  1.00  0.00     0.219 C 
HETATM   16  C   UNL     1       2.837  -3.422  -4.500  1.00  0.00     0.145 C 
HETATM   17  O   UNL     1       5.760  -3.047  -2.374  1.00  0.00    -0.273 OA
HETATM   18  C   UNL     1       1.392  -3.901  -4.240  1.00  0.00     0.143 C 
BRANCH  15  19
HETATM   19  C   UNL     1       5.134  -1.648  -4.223  1.00  0.00     0.098 C 
HETATM   20  C   UNL     1       6.496  -0.992  -4.059  1.00  0.00     0.014 C 
ENDBRANCH  15  19
ENDBRANCH   8  11
ENDBRANCH   3   5
ENDBRANCH   1   3
BRANCH   1  21
HETATM   21  N   UNL     1      -4.690 -10.080  -2.471  1.00  0.00    -0.298 N 
HETATM   22  C   UNL     1      -5.411 -10.209  -3.650  1.00  0.00     0.281 C 
HETATM   23  O   UNL     1      -5.470  -9.331  -4.508  1.00  0.00    -0.265 OA
HETATM   24  H   UNL     1      -4.819 -10.834  -1.806  1.00  0.00     0.171 HD
BRANCH  22  25
HETATM   25  C   UNL     1      -6.118 -11.472  -3.716  1.00  0.00     0.144 A 
HETATM   26  O   UNL     1      -5.957 -12.348  -2.675  1.00  0.00    -0.304 OA
HETATM   27  C   UNL     1      -6.663 -13.481  -2.955  1.00  0.00     0.086 A 
HETATM   28  C   UNL     1      -7.297 -13.327  -4.173  1.00  0.00     0.041 A 
HETATM   29  C   UNL     1      -6.950 -12.037  -4.660  1.00  0.00     0.046 A 
BRANCH  27  30
HETATM   30  C   UNL     1      -6.567 -14.545  -1.958  1.00  0.00    -0.001 A 
HETATM   31  C   UNL     1      -5.968 -14.312  -0.711  1.00  0.00     0.038 A 
HETATM   32  C   UNL     1      -5.853 -15.333   0.238  1.00  0.00     0.040 A 
HETATM   33 CL   UNL     1      -5.091 -14.952   1.743  1.00  0.00    -0.084 Cl
HETATM   34  C   UNL     1      -6.338 -16.618  -0.033  1.00  0.00    -0.040 A 
HETATM   35  C   UNL     1      -6.214 -17.739   0.960  1.00  0.00     0.050 C 
HETATM   36  C   UNL     1      -6.939 -16.854  -1.277  1.00  0.00     0.009 A 
HETATM   37  C   UNL     1      -7.054 -15.830  -2.226  1.00  0.00     0.015 A 
ENDBRANCH  27  30
ENDBRANCH  22  25
ENDBRANCH   1  21
TORSDOF 7
