REMARK  7 active torsions:
REMARK  status: ('A' for Active; 'I' for Inactive)
REMARK    1  A    between atoms: C_3  and  O_4 
REMARK    2  A    between atoms: O_4  and  C_5 
REMARK    3  A    between atoms: C_5  and  C_6 
REMARK       I    between atoms: C_6  and  N_7 
REMARK    4  A    between atoms: N_7  and  C_8 
REMARK    5  A    between atoms: C_9  and  C_10 
REMARK       I    between atoms: C_10  and  N_11 
REMARK    6  A    between atoms: N_11  and  C_12 
REMARK    7  A    between atoms: C_12  and  C_13 
ROOT
HETATM    1  C   UNL     1       0.108   3.341   0.180  1.00  0.00     0.050 A 
HETATM    2  C   UNL     1       0.931   2.539   1.004  1.00  0.00     0.058 A 
HETATM    3  C   UNL     1       0.449   1.309   1.491  1.00  0.00     0.019 A 
HETATM    4  C   UNL     1      -0.850   0.894   1.206  1.00  0.00     0.001 A 
HETATM    5  C   UNL     1      -1.674   1.697   0.427  1.00  0.00     0.002 A 
HETATM    6  C   UNL     1      -1.197   2.906  -0.086  1.00  0.00     0.030 A 
ENDROOT
BRANCH   1   7
HETATM    7  N   UNL     1       0.634   4.526  -0.398  1.00  0.00    -0.324 N 
HETATM    8  C   UNL     1      -0.057   5.504  -1.091  1.00  0.00     0.246 C 
HETATM    9  O   UNL     1      -1.281   5.611  -1.133  1.00  0.00    -0.271 OA
HETATM   10  H   UNL     1       1.642   4.646  -0.275  1.00  0.00     0.169 HD
BRANCH   8  11
HETATM   11  C   UNL     1       0.853   6.486  -1.831  1.00  0.00     0.278 C 
BRANCH  11  12
HETATM   12  O   UNL     1       0.360   6.575  -3.163  1.00  0.00    -0.342 OA
BRANCH  12  13
HETATM   13  C   UNL     1       0.865   7.546  -3.981  1.00  0.00     0.075 A 
HETATM   14  C   UNL     1       0.175   7.739  -5.192  1.00  0.00    -0.029 A 
HETATM   15  C   UNL     1      -1.066   6.952  -5.516  1.00  0.00     0.051 C 
HETATM   16  C   UNL     1       0.611   8.730  -6.084  1.00  0.00     0.009 A 
HETATM   17  C   UNL     1       1.735   9.499  -5.793  1.00  0.00     0.001 A 
HETATM   18  C   UNL     1       2.430   9.288  -4.605  1.00  0.00     0.003 A 
HETATM   19  C   UNL     1       1.998   8.315  -3.700  1.00  0.00     0.037 A 
ENDBRANCH  12  13
ENDBRANCH  11  12
ENDBRANCH   8  11
ENDBRANCH   1   7
BRANCH   2  20
HETATM   20  C   UNL     1       2.311   2.989   1.367  1.00  0.00     0.254 C 
HETATM   21  N   UNL     1       2.800   2.553   2.575  1.00  0.00    -0.351 N 
HETATM   22  H   UNL     1       2.239   1.989   3.200  1.00  0.00     0.163 HD
HETATM   23  O   UNL     1       2.936   3.746   0.627  1.00  0.00    -0.268 OA
BRANCH  21  24
HETATM   24  C   UNL     1       4.137   2.869   3.022  1.00  0.00     0.187 C 
BRANCH  24  25
HETATM   25  C   UNL     1       4.278   2.449   4.439  1.00  0.00     0.070 A 
HETATM   26  O   UNL     1       3.792   1.213   4.769  1.00  0.00    -0.325 OA
HETATM   27  C   UNL     1       4.011   1.042   6.098  1.00  0.00     0.142 A 
HETATM   28  C   UNL     1       4.629   2.148   6.631  1.00  0.00     0.027 A 
HETATM   29  C   UNL     1       4.803   3.058   5.561  1.00  0.00     0.036 A 
ENDBRANCH  24  25
ENDBRANCH  21  24
ENDBRANCH   2  20
TORSDOF 7
