REMARK  8 active torsions:
REMARK  status: ('A' for Active; 'I' for Inactive)
REMARK    1  A    between atoms: C_4  and  S_5 
REMARK    2  A    between atoms: S_5  and  C_6 
REMARK    3  A    between atoms: C_6  and  C_7 
REMARK       I    between atoms: C_7  and  N_8 
REMARK    4  A    between atoms: N_8  and  C_9 
REMARK    5  A    between atoms: C_11  and  C_12 
REMARK    6  A    between atoms: C_23  and  C_24 
REMARK    7  A    between atoms: C_30  and  C_31 
REMARK       I    between atoms: C_31  and  N_32 
REMARK    8  A    between atoms: N_32  and  C_33 
ROOT
HETATM    1  C   UNL     1       1.070  -0.002   0.722  1.00  0.00     0.069 C 
HETATM    2  C   UNL     1       2.502  -0.076   0.249  1.00  0.00     0.019 C 
HETATM    3  N   UNL     1       3.150   1.145   0.134  1.00  0.00    -0.353 N 
HETATM    4  C   UNL     1       4.511   1.296  -0.059  1.00  0.00     0.087 C 
HETATM    5  C   UNL     1       5.241   0.220  -0.432  1.00  0.00     0.055 C 
HETATM    6  C   UNL     1       6.704   0.339  -0.827  1.00  0.00     0.019 C 
HETATM    7  N   UNL     1       7.917   0.437  -1.155  1.00  0.00    -0.096 N 
HETATM    8  C   UNL     1       4.601  -1.164  -0.564  1.00  0.00     0.104 C 
HETATM    9  C   UNL     1       3.167  -1.223  -0.034  1.00  0.00     0.046 C 
HETATM   10  H   UNL     1       2.699   1.941   0.583  1.00  0.00     0.166 HD
ENDROOT
BRANCH   4  11
HETATM   11  S   UNL     1       5.262   2.826   0.339  1.00  0.00    -0.102 SA
BRANCH  11  12
HETATM   12  C   UNL     1       5.518   3.586  -1.296  1.00  0.00     0.184 C 
BRANCH  12  13
HETATM   13  C   UNL     1       6.202   4.958  -1.219  1.00  0.00     0.231 C 
HETATM   14  N   UNL     1       6.693   5.301   0.026  1.00  0.00    -0.327 N 
HETATM   15  H   UNL     1       6.493   4.633   0.763  1.00  0.00     0.169 HD
HETATM   16  O   UNL     1       6.285   5.650  -2.232  1.00  0.00    -0.272 OA
BRANCH  14  17
HETATM   17  C   UNL     1       7.395   6.458   0.416  1.00  0.00     0.035 A 
HETATM   18  C   UNL     1       7.813   7.455  -0.467  1.00  0.00     0.045 A 
HETATM   19  C   UNL     1       8.527   8.574   0.001  1.00  0.00     0.050 A 
HETATM   20  C   UNL     1       8.795   8.693   1.373  1.00  0.00     0.016 A 
HETATM   21  C   UNL     1       8.380   7.702   2.258  1.00  0.00     0.003 A 
HETATM   22  C   UNL     1       7.690   6.588   1.779  1.00  0.00     0.029 A 
BRANCH  19  23
HETATM   23  C   UNL     1       8.973   9.657  -0.951  1.00  0.00     0.417 C 
HETATM   24  F   UNL     1       9.074   9.244  -2.244  1.00  0.00    -0.166 F 
HETATM   25  F   UNL     1       8.124  10.721  -0.959  1.00  0.00    -0.166 F 
HETATM   26  F   UNL     1      10.198  10.164  -0.630  1.00  0.00    -0.166 F 
ENDBRANCH  19  23
ENDBRANCH  14  17
ENDBRANCH  12  13
ENDBRANCH  11  12
ENDBRANCH   4  11
BRANCH   8  27
HETATM   27  C   UNL     1       4.729  -1.668  -2.001  1.00  0.00    -0.042 A 
HETATM   28  C   UNL     1       5.749  -2.571  -2.338  1.00  0.00     0.027 A 
HETATM   29  C   UNL     1       5.846  -3.010  -3.648  1.00  0.00     0.116 A 
HETATM   30  N   UNL     1       5.005  -2.624  -4.628  1.00  0.00    -0.273 NA
HETATM   31  C   UNL     1       4.043  -1.737  -4.297  1.00  0.00     0.116 A 
HETATM   32  C   UNL     1       3.870  -1.232  -3.018  1.00  0.00     0.027 A 
ENDBRANCH   8  27
BRANCH   9  33
HETATM   33  C   UNL     1       2.598  -2.536   0.429  1.00  0.00     0.255 C 
HETATM   34  N   UNL     1       2.934  -3.631  -0.335  1.00  0.00    -0.323 N 
HETATM   35  H   UNL     1       3.465  -3.486  -1.181  1.00  0.00     0.169 HD
HETATM   36  O   UNL     1       1.951  -2.570   1.472  1.00  0.00    -0.268 OA
BRANCH  34  37
HETATM   37  C   UNL     1       2.641  -4.985  -0.057  1.00  0.00     0.035 A 
HETATM   38  C   UNL     1       1.793  -5.411   0.968  1.00  0.00     0.029 A 
HETATM   39  C   UNL     1       1.571  -6.774   1.187  1.00  0.00     0.002 A 
HETATM   40  C   UNL     1       2.203  -7.725   0.390  1.00  0.00     0.000 A 
HETATM   41  C   UNL     1       3.048  -7.313  -0.636  1.00  0.00     0.002 A 
HETATM   42  C   UNL     1       3.258  -5.950  -0.865  1.00  0.00     0.029 A 
ENDBRANCH  34  37
ENDBRANCH   9  33
TORSDOF 8
