REMARK  6 active torsions:
REMARK  status: ('A' for Active; 'I' for Inactive)
REMARK    1  A    between atoms: C_4  and  C_5 
REMARK    2  A    between atoms: C_5  and  N_6 
REMARK    3  A    between atoms: C_5  and  C_10 
REMARK    4  A    between atoms: C_10  and  N_11 
REMARK       I    between atoms: N_11  and  C_12 
REMARK       I    between atoms: C_12  and  N_13 
REMARK    5  A    between atoms: N_13  and  C_14 
REMARK    6  A    between atoms: C_17  and  N_18 
ROOT
HETATM    1  N   UNL     1       8.576   1.764  -0.154  1.00  0.00    -0.340 N 
HETATM    2  C   UNL     1       9.663   1.013   0.143  1.00  0.00     0.320 C 
HETATM    3  N   UNL     1      10.889   1.505  -0.157  1.00  0.00    -0.309 N 
HETATM    4  O   UNL     1       9.542  -0.129   0.588  1.00  0.00    -0.247 OA
HETATM    5  H   UNL     1       8.724   2.520  -0.813  1.00  0.00     0.164 HD
HETATM    6  H   UNL     1      11.606   0.787  -0.140  1.00  0.00     0.170 HD
ENDROOT
BRANCH   1   7
HETATM    7  C   UNL     1       7.198   1.432   0.219  1.00  0.00     0.164 C 
BRANCH   7   8
HETATM    8  C   UNL     1       6.647   0.065  -0.305  1.00  0.00     0.261 C 
BRANCH   8   9
HETATM    9  C   UNL     1       5.152   0.072  -0.370  1.00  0.00     0.085 A 
HETATM   10  O   UNL     1       4.482   0.230   0.808  1.00  0.00    -0.318 OA
HETATM   11  C   UNL     1       3.150   0.172   0.525  1.00  0.00     0.049 A 
HETATM   12  C   UNL     1       2.218   0.295   1.666  1.00  0.00     0.076 C 
HETATM   13  C   UNL     1       2.962   0.002  -0.829  1.00  0.00     0.035 A 
HETATM   14  C   UNL     1       4.252  -0.062  -1.408  1.00  0.00     0.037 A 
ENDBRANCH   8   9
BRANCH   8  15
HETATM   15  N   UNL     1       7.215  -1.128   0.469  1.00  0.00    -0.067 N 
HETATM   16  H   UNL     1       8.233  -0.925   0.537  1.00  0.00     0.280 HD
HETATM   17  C   UNL     1       6.762  -1.278   1.890  1.00  0.00     0.270 C 
HETATM   18  C   UNL     1       7.102  -2.417  -0.281  1.00  0.00     0.270 C 
ENDBRANCH   8  15
ENDBRANCH   7   8
ENDBRANCH   1   7
BRANCH   3  19
HETATM   19  C   UNL     1      11.366   2.819  -0.335  1.00  0.00     0.036 A 
HETATM   20  C   UNL     1      10.668   3.970   0.026  1.00  0.00     0.032 A 
HETATM   21  C   UNL     1      11.247   5.240  -0.136  1.00  0.00     0.032 A 
HETATM   22  C   UNL     1      12.543   5.378  -0.644  1.00  0.00     0.040 A 
HETATM   23  C   UNL     1      13.242   4.219  -1.006  1.00  0.00     0.032 A 
HETATM   24  C   UNL     1      12.662   2.955  -0.840  1.00  0.00     0.032 A 
BRANCH  22  25
HETATM   25  N   UNL     1      13.159   6.659  -0.808  1.00  0.00    -0.309 N 
HETATM   26  C   UNL     1      12.891   7.873  -0.172  1.00  0.00     0.106 A 
HETATM   27  C   UNL     1      11.987   8.077   0.989  1.00  0.00     0.091 C 
HETATM   28  N   UNL     1      13.637   8.846  -0.664  1.00  0.00    -0.246 NA
HETATM   29  C   UNL     1      14.453   8.271  -1.587  1.00  0.00     0.136 A 
HETATM   30  C   UNL     1      14.200   6.927  -1.679  1.00  0.00     0.118 A 
ENDBRANCH  22  25
ENDBRANCH   3  19
TORSDOF 6
