REMARK  5 active torsions:
REMARK  status: ('A' for Active; 'I' for Inactive)
REMARK    1  A    between atoms: C_8  and  C_9 
REMARK    2  A    between atoms: C_9  and  N_10 
REMARK       I    between atoms: N_10  and  C_11 
REMARK    3  A    between atoms: C_11  and  C_12 
REMARK    4  A    between atoms: C_13  and  O_14 
REMARK    5  A    between atoms: O_14  and  C_15 
ROOT
HETATM    1  C   UNL     1       1.106  -4.922   0.115  1.00  0.00     0.066 A 
HETATM    2  C   UNL     1       2.469  -5.242   0.165  1.00  0.00     0.091 A 
HETATM    3  C   UNL     1       2.895  -6.564   0.000  1.00  0.00     0.050 A 
HETATM    4  C   UNL     1       1.962  -7.598  -0.169  1.00  0.00    -0.023 A 
HETATM    5  C   UNL     1       0.582  -7.290  -0.185  1.00  0.00    -0.025 A 
HETATM    6  C   UNL     1       0.170  -5.954  -0.041  1.00  0.00     0.032 A 
HETATM    7  C   UNL     1       2.372  -8.932  -0.317  1.00  0.00     0.012 A 
HETATM    8  C   UNL     1       1.433  -9.952  -0.478  1.00  0.00     0.001 A 
HETATM    9  C   UNL     1       0.074  -9.650  -0.494  1.00  0.00     0.001 A 
HETATM   10  C   UNL     1      -0.349  -8.328  -0.349  1.00  0.00     0.012 A 
ENDROOT
BRANCH   1  11
HETATM   11  C   UNL     1       0.584  -3.534   0.267  1.00  0.00     0.254 C 
HETATM   12  N   UNL     1       1.412  -2.521  -0.153  1.00  0.00    -0.352 N 
HETATM   13  H   UNL     1       2.263  -2.756  -0.651  1.00  0.00     0.163 HD
HETATM   14  O   UNL     1      -0.527  -3.352   0.750  1.00  0.00    -0.268 OA
BRANCH  12  15
HETATM   15  C   UNL     1       1.023  -1.131  -0.118  1.00  0.00     0.165 C 
BRANCH  15  16
HETATM   16  C   UNL     1       0.649  -0.708  -1.493  1.00  0.00     0.009 A 
HETATM   17  C   UNL     1      -0.601  -0.745  -2.087  1.00  0.00     0.034 A 
HETATM   18  C   UNL     1      -1.916  -1.206  -1.584  1.00  0.00     0.070 C 
HETATM   19  N   UNL     1      -0.434  -0.250  -3.348  1.00  0.00    -0.282 N 
HETATM   20  H   UNL     1      -1.135  -0.129  -4.071  1.00  0.00     0.189 HD
HETATM   21  N   UNL     1       0.827   0.111  -3.623  1.00  0.00    -0.179 NA
HETATM   22  C   UNL     1       1.498  -0.166  -2.500  1.00  0.00     0.060 A 
HETATM   23  C   UNL     1       2.957   0.097  -2.422  1.00  0.00     0.073 C 
ENDBRANCH  15  16
ENDBRANCH  12  15
ENDBRANCH   1  11
BRANCH   2  24
HETATM   24  O   UNL     1       3.432  -4.281   0.328  1.00  0.00    -0.289 OA
BRANCH  24  25
HETATM   25  C   UNL     1       3.724  -4.116   1.715  1.00  0.00     0.505 C 
HETATM   26  F   UNL     1       4.601  -5.080   2.087  1.00  0.00    -0.184 F 
HETATM   27  F   UNL     1       4.370  -2.929   1.843  1.00  0.00    -0.184 F 
ENDBRANCH  24  25
ENDBRANCH   2  24
TORSDOF 5
