REMARK  6 active torsions:
REMARK  status: ('A' for Active; 'I' for Inactive)
REMARK    1  A    between atoms: N_9  and  C_10 
REMARK    2  A    between atoms: C_10  and  C_11 
REMARK       I    between atoms: C_11  and  N_12 
REMARK    3  A    between atoms: N_12  and  C_13 
REMARK    4  A    between atoms: C_14  and  C_15 
REMARK       I    between atoms: C_15  and  N_16 
REMARK    5  A    between atoms: N_16  and  C_17 
REMARK    6  A    between atoms: C_17  and  C_18 
ROOT
HETATM    1  C   UNL     1      -4.260  -2.483   0.288  1.00  0.00     0.240 C 
HETATM    2  N   UNL     1      -5.563  -2.656   0.726  1.00  0.00    -0.325 N 
HETATM    3  O   UNL     1      -3.302  -3.162   0.655  1.00  0.00    -0.271 OA
HETATM    4  H   UNL     1      -6.269  -2.387   0.049  1.00  0.00     0.169 HD
ENDROOT
BRANCH   1   5
HETATM    5  C   UNL     1      -4.137  -1.391  -0.779  1.00  0.00     0.240 C 
BRANCH   5   6
HETATM    6  N   UNL     1      -2.966  -0.603  -0.502  1.00  0.00    -0.259 N 
HETATM    7  C   UNL     1      -2.909   0.289   0.521  1.00  0.00     0.326 C 
HETATM    8  N   UNL     1      -1.640   0.796   0.585  1.00  0.00    -0.320 N 
HETATM    9  O   UNL     1      -3.832   0.605   1.252  1.00  0.00    -0.247 OA
HETATM   10  C   UNL     1      -0.824   0.395  -0.540  1.00  0.00     0.144 C 
HETATM   11  H   UNL     1      -1.360   1.422   1.327  1.00  0.00     0.165 HD
HETATM   12  C   UNL     1       0.512  -0.163  -0.086  1.00  0.00    -0.014 A 
HETATM   13  C   UNL     1      -1.781  -0.638  -1.184  1.00  0.00     0.261 C 
HETATM   14  C   UNL     1      -0.674   1.579  -1.513  1.00  0.00     0.047 C 
HETATM   15  C   UNL     1       1.686   0.617  -0.184  1.00  0.00    -0.049 A 
HETATM   16  C   UNL     1       0.605  -1.454   0.467  1.00  0.00     0.011 A 
HETATM   17  C   UNL     1       2.916   0.077   0.226  1.00  0.00     0.007 A 
HETATM   18  C   UNL     1       1.687   2.001  -0.790  1.00  0.00     0.039 C 
HETATM   19  C   UNL     1       2.990  -1.213   0.746  1.00  0.00     0.001 A 
HETATM   20  C   UNL     1       1.835  -1.976   0.870  1.00  0.00     0.001 A 
HETATM   21  C   UNL     1       0.298   2.609  -0.948  1.00  0.00     0.008 C 
HETATM   22  O   UNL     1      -1.556  -1.314  -2.180  1.00  0.00    -0.270 OA
ENDBRANCH   5   6
ENDBRANCH   1   5
BRANCH   2  23
HETATM   23  C   UNL     1      -5.978  -3.625   1.669  1.00  0.00     0.050 A 
HETATM   24  C   UNL     1      -5.479  -3.810   2.972  1.00  0.00     0.058 A 
HETATM   25  C   UNL     1      -6.063  -4.801   3.792  1.00  0.00     0.019 A 
HETATM   26  C   UNL     1      -7.120  -5.592   3.346  1.00  0.00     0.001 A 
HETATM   27  C   UNL     1      -7.632  -5.388   2.074  1.00  0.00     0.002 A 
HETATM   28  C   UNL     1      -7.076  -4.405   1.252  1.00  0.00     0.030 A 
BRANCH  24  29
HETATM   29  C   UNL     1      -4.522  -2.943   3.715  1.00  0.00     0.254 C 
HETATM   30  N   UNL     1      -3.253  -2.817   3.218  1.00  0.00    -0.351 N 
HETATM   31  H   UNL     1      -3.038  -3.218   2.307  1.00  0.00     0.163 HD
HETATM   32  O   UNL     1      -4.863  -2.498   4.809  1.00  0.00    -0.268 OA
BRANCH  30  33
HETATM   33  C   UNL     1      -2.146  -2.381   4.040  1.00  0.00     0.187 C 
BRANCH  33  34
HETATM   34  C   UNL     1      -2.002  -0.904   4.065  1.00  0.00     0.070 A 
HETATM   35  O   UNL     1      -0.738  -0.418   3.876  1.00  0.00    -0.325 OA
HETATM   36  C   UNL     1      -0.800   0.930   4.028  1.00  0.00     0.142 A 
HETATM   37  C   UNL     1      -2.089   1.325   4.298  1.00  0.00     0.027 A 
HETATM   38  C   UNL     1      -2.864   0.141   4.326  1.00  0.00     0.036 A 
ENDBRANCH  33  34
ENDBRANCH  30  33
ENDBRANCH  24  29
ENDBRANCH   2  23
TORSDOF 6
