REMARK  7 active torsions:
REMARK  status: ('A' for Active; 'I' for Inactive)
REMARK    1  A    between atoms: O_2  and  C_3 
REMARK    2  A    between atoms: C_3  and  C_4 
REMARK    3  A    between atoms: C_5  and  N_6 
REMARK       I    between atoms: N_6  and  C_7 
REMARK    4  A    between atoms: C_7  and  C_8 
REMARK    5  A    between atoms: C_8  and  N_9 
REMARK    6  A    between atoms: C_11  and  C_12 
REMARK    7  A    between atoms: C_20  and  O_21 
ROOT
HETATM    1  N   UNL     1      -0.796   4.542   2.511  1.00  0.00    -0.054 N 
HETATM    2  H   UNL     1      -0.714   5.307   1.816  1.00  0.00     0.281 HD
HETATM    3  C   UNL     1       0.248   3.478   2.162  1.00  0.00     0.228 C 
HETATM    4  C   UNL     1       0.456   2.513   3.367  1.00  0.00     0.055 C 
HETATM    5  C   UNL     1       0.688   3.222   4.714  1.00  0.00     0.065 C 
HETATM    6  C   UNL     1      -0.445   4.220   4.972  1.00  0.00     0.066 C 
HETATM    7  C   UNL     1      -0.571   5.222   3.838  1.00  0.00     0.239 C 
HETATM    8  C   UNL     1       1.519   1.429   3.114  1.00  0.00     0.010 C 
HETATM    9  C   UNL     1       1.538   0.408   4.252  1.00  0.00     0.001 C 
HETATM   10  C   UNL     1       1.756   1.068   5.609  1.00  0.00     0.003 C 
HETATM   11  C   UNL     1       0.758   2.200   5.868  1.00  0.00     0.038 C 
ENDROOT
BRANCH   1  12
HETATM   12  C   UNL     1      -2.230   4.020   2.252  1.00  0.00     0.338 C 
BRANCH  12  13
HETATM   13  C   UNL     1      -3.402   4.715   2.955  1.00  0.00     0.248 C 
HETATM   14  N   UNL     1      -4.538   5.029   2.274  1.00  0.00    -0.319 N 
HETATM   15  H   UNL     1      -5.383   5.011   2.839  1.00  0.00     0.169 HD
HETATM   16  O   UNL     1      -3.412   4.823   4.185  1.00  0.00    -0.271 OA
BRANCH  14  17
HETATM   17  C   UNL     1      -4.716   5.237   0.930  1.00  0.00     0.094 A 
HETATM   18  C   UNL     1      -4.056   5.976  -0.038  1.00  0.00     0.080 A 
HETATM   19  C   UNL     1      -4.779   5.887  -1.300  1.00  0.00    -0.026 A 
HETATM   20  C   UNL     1      -5.904   5.088  -1.194  1.00  0.00    -0.008 A 
HETATM   21  C   UNL     1      -4.416   6.535  -2.614  1.00  0.00     0.041 C 
HETATM   22  S   UNL     1      -6.183   4.567   0.393  1.00  0.00    -0.075 SA
HETATM   23  C   UNL     1      -6.863   4.767  -2.301  1.00  0.00     0.047 C 
HETATM   24  C   UNL     1      -6.253   5.125  -3.662  1.00  0.00     0.005 C 
HETATM   25  C   UNL     1      -5.577   6.499  -3.622  1.00  0.00     0.005 C 
BRANCH  18  26
HETATM   26  C   UNL     1      -2.887   6.816   0.228  1.00  0.00     0.296 C 
HETATM   27  O   UNL     1      -1.963   6.469   0.959  1.00  0.00    -0.259 OA
BRANCH  26  28
HETATM   28  O   UNL     1      -2.971   8.026  -0.384  1.00  0.00    -0.322 OA
HETATM   29  C   UNL     1      -1.934   8.954  -0.061  1.00  0.00     0.213 C 
ENDBRANCH  26  28
ENDBRANCH  18  26
ENDBRANCH  14  17
ENDBRANCH  12  13
ENDBRANCH   1  12
BRANCH   3  30
HETATM   30  C   UNL     1       1.492   3.970   1.427  1.00  0.00    -0.027 A 
HETATM   31  C   UNL     1       2.313   5.016   1.873  1.00  0.00     0.012 A 
HETATM   32  C   UNL     1       3.482   5.363   1.185  1.00  0.00     0.043 A 
HETATM   33  C   UNL     1       3.846   4.668   0.042  1.00  0.00     0.116 A 
HETATM   34  F   UNL     1       4.974   4.991  -0.601  1.00  0.00    -0.206 F 
HETATM   35  C   UNL     1       3.058   3.632  -0.432  1.00  0.00     0.043 A 
HETATM   36  C   UNL     1       1.889   3.288   0.253  1.00  0.00     0.012 A 
ENDBRANCH   3  30
BRANCH   5  37
HETATM   37  O   UNL     1       1.897   3.975   4.677  1.00  0.00    -0.389 OA
HETATM   38  H   UNL     1       2.652   3.412   4.931  1.00  0.00     0.210 HD
ENDBRANCH   5  37
TORSDOF 7
