REMARK  4 active torsions:
REMARK  status: ('A' for Active; 'I' for Inactive)
REMARK    1  A    between atoms: N_2  and  C_4 
REMARK    2  A    between atoms: N_2  and  C_16 
REMARK    3  A    between atoms: C_4  and  C_5 
REMARK    4  A    between atoms: C_16  and  C_17 
ROOT
HETATM    1  C   UNL     1       0.920   0.195  -0.589  1.00  0.00     0.270 C 
HETATM    2  N   UNL     1       2.390   0.017  -0.323  1.00  0.00    -0.064 N 
HETATM    3  H   UNL     1       2.472  -0.169   0.691  1.00  0.00     0.280 HD
ENDROOT
BRANCH   2   4
HETATM    4  C   UNL     1       2.948  -1.238  -0.985  1.00  0.00     0.312 C 
BRANCH   4   5
HETATM    5  C   UNL     1       2.508  -2.501  -0.256  1.00  0.00     0.133 A 
HETATM    6  N   UNL     1       2.221  -2.429   1.005  1.00  0.00    -0.233 NA
HETATM    7  C   UNL     1       1.826  -3.622   1.649  1.00  0.00     0.074 A 
HETATM    8  C   UNL     1       1.740  -4.847   0.978  1.00  0.00     0.061 A 
HETATM    9  C   UNL     1       1.507  -3.586   3.008  1.00  0.00     0.032 A 
HETATM   10  C   UNL     1       2.080  -4.860  -0.453  1.00  0.00     0.259 A 
HETATM   11  C   UNL     1       1.347  -6.018   1.633  1.00  0.00     0.019 A 
HETATM   12  O   UNL     1       2.038  -5.870  -1.141  1.00  0.00    -0.267 OA
HETATM   13  N   UNL     1       2.451  -3.652  -0.988  1.00  0.00    -0.309 N 
HETATM   14  H   UNL     1       2.691  -3.702  -1.971  1.00  0.00     0.170 HD
HETATM   15  C   UNL     1       1.033  -5.965   2.989  1.00  0.00     0.001 A 
HETATM   16  C   UNL     1       1.112  -4.751   3.675  1.00  0.00     0.002 A 
ENDBRANCH   4   5
ENDBRANCH   2   4
BRANCH   2  17
HETATM   17  C   UNL     1       3.221   1.227  -0.655  1.00  0.00     0.273 C 
BRANCH  17  18
HETATM   18  C   UNL     1       2.798   2.495   0.034  1.00  0.00    -0.028 A 
HETATM   19  C   UNL     1       3.015   2.680   1.407  1.00  0.00     0.035 A 
HETATM   20  C   UNL     1       2.639   3.876   2.034  1.00  0.00     0.070 A 
HETATM   21 CL   UNL     1       2.952   4.038   3.723  1.00  0.00    -0.081 Cl
HETATM   22  C   UNL     1       2.043   4.905   1.298  1.00  0.00     0.123 A 
HETATM   23  C   UNL     1       1.795   4.709  -0.063  1.00  0.00     0.104 A 
HETATM   24  O   UNL     1       1.715   6.072   1.940  1.00  0.00    -0.344 OA
HETATM   25  O   UNL     1       1.188   5.641  -0.866  1.00  0.00    -0.346 OA
HETATM   26  C   UNL     1       2.180   3.523  -0.693  1.00  0.00     0.048 A 
HETATM   27  C   UNL     1       0.577   6.692  -0.104  1.00  0.00     0.202 C 
HETATM   28  C   UNL     1       1.494   7.145   1.018  1.00  0.00     0.202 C 
ENDBRANCH  17  18
ENDBRANCH   2  17
TORSDOF 4
