REMARK  6 active torsions:
REMARK  status: ('A' for Active; 'I' for Inactive)
REMARK    1  A    between atoms: C_2  and  N_3 
REMARK    2  A    between atoms: C_2  and  C_24 
REMARK       I    between atoms: N_3  and  C_4 
REMARK    3  A    between atoms: C_4  and  C_5 
REMARK    4  A    between atoms: C_5  and  N_6 
REMARK    5  A    between atoms: C_10  and  N_11 
REMARK       I    between atoms: N_11  and  C_12 
REMARK       I    between atoms: C_12  and  N_13 
REMARK    6  A    between atoms: N_13  and  C_14 
ROOT
HETATM    1  N   UNL     1       1.421   2.302   1.030  1.00  0.00    -0.063 N 
HETATM    2  H   UNL     1       1.816   3.113   0.527  1.00  0.00     0.280 HD
HETATM    3  C   UNL     1       1.948   1.032   0.429  1.00  0.00     0.237 C 
HETATM    4  C   UNL     1       1.301   0.720  -0.904  1.00  0.00     0.053 C 
HETATM    5  C   UNL     1      -0.222   0.736  -0.860  1.00  0.00     0.089 C 
HETATM    6  C   UNL     1      -0.733   2.049  -0.273  1.00  0.00     0.053 C 
HETATM    7  C   UNL     1      -0.080   2.478   1.030  1.00  0.00     0.237 C 
ENDROOT
BRANCH   1   8
HETATM    8  C   UNL     1       1.962   2.433   2.473  1.00  0.00     0.337 C 
BRANCH   8   9
HETATM    9  C   UNL     1       1.834   3.863   2.986  1.00  0.00     0.244 C 
HETATM   10  N   UNL     1       1.680   4.137   4.306  1.00  0.00    -0.351 N 
HETATM   11  H   UNL     1       1.610   5.133   4.491  1.00  0.00     0.163 HD
HETATM   12  O   UNL     1       1.872   4.793   2.173  1.00  0.00    -0.272 OA
BRANCH  10  13
HETATM   13  C   UNL     1       1.428   3.266   5.458  1.00  0.00     0.120 C 
HETATM   14  C   UNL     1       0.043   2.629   5.411  1.00  0.00     0.038 C 
BRANCH  13  15
HETATM   15  C   UNL     1       2.604   2.345   5.685  1.00  0.00     0.005 A 
HETATM   16  S   UNL     1       2.499   0.636   5.540  1.00  0.00    -0.104 SA
HETATM   17  C   UNL     1       4.129   0.417   5.991  1.00  0.00     0.050 A 
HETATM   18  C   UNL     1       4.751   1.611   6.267  1.00  0.00     0.008 A 
HETATM   19  C   UNL     1       3.875   2.720   6.090  1.00  0.00     0.017 A 
ENDBRANCH  13  15
ENDBRANCH  10  13
ENDBRANCH   8   9
ENDBRANCH   1   8
BRANCH   5  20
HETATM   20  N   UNL     1      -0.812  -0.482  -0.303  1.00  0.00    -0.338 N 
HETATM   21  C   UNL     1      -0.795  -0.897   0.987  1.00  0.00     0.316 C 
HETATM   22  N   UNL     1      -1.318  -2.111   1.255  1.00  0.00    -0.339 N 
HETATM   23  O   UNL     1      -0.308  -0.247   1.905  1.00  0.00    -0.247 OA
HETATM   24  H   UNL     1      -1.312  -2.314   2.248  1.00  0.00     0.164 HD
HETATM   25  H   UNL     1      -1.346  -1.052  -0.943  1.00  0.00     0.164 HD
BRANCH  22  26
HETATM   26  C   UNL     1      -1.901  -3.125   0.376  1.00  0.00     0.086 C 
HETATM   27  C   UNL     1      -1.764  -4.518   1.008  1.00  0.00     0.025 C 
HETATM   28  C   UNL     1      -2.703  -4.729   2.197  1.00  0.00     0.002 C 
HETATM   29  C   UNL     1      -4.150  -4.415   1.834  1.00  0.00     0.000 C 
HETATM   30  C   UNL     1      -4.294  -3.015   1.244  1.00  0.00     0.002 C 
HETATM   31  C   UNL     1      -3.366  -2.808   0.048  1.00  0.00     0.025 C 
ENDBRANCH  22  26
ENDBRANCH   5  20
TORSDOF 6
