REMARK  2 active torsions:
REMARK  status: ('A' for Active; 'I' for Inactive)
REMARK    1  A    between atoms: N_6  and  C_7 
REMARK    2  A    between atoms: C_11  and  N_12 
ROOT
HETATM    1  C   UNL     1       5.507   0.106   3.165  1.00  0.00     0.070 A 
HETATM    2  C   UNL     1       5.112  -0.890   4.085  1.00  0.00     0.145 A 
HETATM    3  F   UNL     1       4.297  -1.884   3.698  1.00  0.00    -0.204 F 
HETATM    4  C   UNL     1       5.495  -0.872   5.424  1.00  0.00     0.082 A 
HETATM    5  C   UNL     1       6.301   0.171   5.875  1.00  0.00     0.123 A 
HETATM    6  C   UNL     1       6.731   1.177   5.017  1.00  0.00     0.046 A 
HETATM    7 BR   UNL     1       7.860   2.602   5.555  1.00  0.00    -0.048 Br
HETATM    8  C   UNL     1       6.335   1.131   3.671  1.00  0.00     0.054 A 
ENDROOT
BRANCH   1   9
HETATM    9  N   UNL     1       5.173   0.098   1.808  1.00  0.00    -0.375 N 
HETATM   10  C   UNL     1       4.649   1.339   1.198  1.00  0.00     0.150 C 
HETATM   11  C   UNL     1       3.107   1.297   1.098  1.00  0.00     0.254 C 
HETATM   12  N   UNL     1       2.647   0.035   0.366  1.00  0.00    -0.072 N 
HETATM   13  C   UNL     1       1.158  -0.014   0.211  1.00  0.00     0.269 C 
HETATM   14  H   UNL     1       3.056   0.064  -0.577  1.00  0.00     0.279 HD
HETATM   15  C   UNL     1       3.195  -1.223   1.050  1.00  0.00     0.254 C 
HETATM   16  C   UNL     1       4.733  -1.146   1.143  1.00  0.00     0.150 C 
ENDBRANCH   1   9
BRANCH   5  17
HETATM   17  N   UNL     1       6.665   0.176   7.271  1.00  0.00    -0.114 N 
HETATM   18  O   UNL     1       7.503  -0.658   7.629  1.00  0.00    -0.532 OA
HETATM   19  O   UNL     1       6.063   0.975   7.999  1.00  0.00    -0.532 OA
ENDBRANCH   5  17
TORSDOF 2
