REMARK  4 active torsions:
REMARK  status: ('A' for Active; 'I' for Inactive)
REMARK    1  A    between atoms: N_5  and  C_6 
REMARK    2  A    between atoms: C_6  and  C_7 
REMARK    3  A    between atoms: C_7  and  C_8 
REMARK    4  A    between atoms: C_8  and  N_9 
ROOT
HETATM    1  C   UNL     1       2.276  -1.451  -4.912  1.00  0.00     0.236 C 
ENDROOT
BRANCH   1   2
HETATM    2  C   UNL     1       1.787  -0.733  -3.655  1.00  0.00     0.048 C 
BRANCH   2   3
HETATM    3  C   UNL     1       2.699   0.476  -3.376  1.00  0.00     0.131 C 
BRANCH   3   4
HETATM    4  N   UNL     1       2.456   1.038  -2.035  1.00  0.00    -0.346 N 
HETATM    5  C   UNL     1       1.616   2.178  -1.938  1.00  0.00     0.041 A 
HETATM    6  C   UNL     1       0.739   2.431  -0.861  1.00  0.00    -0.031 A 
HETATM    7  C   UNL     1       1.700   3.184  -2.931  1.00  0.00     0.030 A 
HETATM    8  C   UNL     1      -0.026   3.625  -0.843  1.00  0.00     0.009 A 
HETATM    9  C   UNL     1       0.545   1.548   0.353  1.00  0.00     0.045 C 
HETATM   10  C   UNL     1       0.052   4.566  -1.862  1.00  0.00     0.001 A 
HETATM   11  C   UNL     1       0.926   4.349  -2.909  1.00  0.00     0.002 A 
HETATM   12  C   UNL     1       0.820   0.065   0.166  1.00  0.00     0.045 C 
HETATM   13  C   UNL     1       2.299  -0.195   0.094  1.00  0.00    -0.031 A 
HETATM   14  C   UNL     1       3.051   0.310  -0.978  1.00  0.00     0.042 A 
HETATM   15  C   UNL     1       2.923  -0.935   1.116  1.00  0.00     0.011 A 
HETATM   16  C   UNL     1       4.435   0.056  -0.988  1.00  0.00     0.054 A 
HETATM   17  C   UNL     1       5.041  -0.702   0.014  1.00  0.00     0.036 A 
HETATM   18 CL   UNL     1       6.717  -1.069  -0.096  1.00  0.00    -0.084 Cl
HETATM   19  C   UNL     1       4.291  -1.195   1.072  1.00  0.00     0.024 A 
ENDBRANCH   3   4
ENDBRANCH   2   3
ENDBRANCH   1   2
BRANCH   1  20
HETATM   20  N   UNL     1       2.867  -2.855  -4.660  1.00  0.00    -0.071 N 
HETATM   21  H   UNL     1       2.014  -3.435  -4.616  1.00  0.00     0.279 HD
HETATM   22  C   UNL     1       3.594  -3.059  -3.354  1.00  0.00     0.238 C 
HETATM   23  C   UNL     1       4.833  -3.945  -3.442  1.00  0.00     0.077 C 
HETATM   24  C   UNL     1       4.853  -5.030  -4.527  1.00  0.00     0.212 C 
HETATM   25  N   UNL     1       4.614  -6.444  -3.993  1.00  0.00    -0.032 N 
HETATM   26  C   UNL     1       6.310  -5.162  -5.017  1.00  0.00     0.256 C 
HETATM   27  C   UNL     1       3.941  -4.776  -5.726  1.00  0.00     0.077 C 
HETATM   28  H   UNL     1       4.448  -7.024  -4.830  1.00  0.00     0.283 HD
HETATM   29  C   UNL     1       5.959  -6.934  -3.545  1.00  0.00     0.290 C 
HETATM   30  C   UNL     1       3.524  -6.767  -3.029  1.00  0.00     0.239 C 
HETATM   31  C   UNL     1       5.925  -8.451  -3.475  1.00  0.00     0.055 C 
HETATM   32  N   UNL     1       6.796  -6.365  -4.535  1.00  0.00    -0.331 N 
HETATM   33  C   UNL     1       4.792  -8.917  -2.551  1.00  0.00     0.005 C 
HETATM   34  C   UNL     1       3.442  -8.287  -2.912  1.00  0.00     0.028 C 
HETATM   35  H   UNL     1       7.796  -6.552  -4.605  1.00  0.00     0.164 HD
HETATM   36  O   UNL     1       6.907  -4.352  -5.697  1.00  0.00    -0.271 OA
HETATM   37  C   UNL     1       3.650  -3.296  -5.879  1.00  0.00     0.238 C 
ENDBRANCH   1  20
TORSDOF 4
