REMARK  9 active torsions:
REMARK  status: ('A' for Active; 'I' for Inactive)
REMARK    1  A    between atoms: O_2  and  C_3 
REMARK    2  A    between atoms: C_4  and  O_5 
REMARK    3  A    between atoms: C_6  and  C_7 
REMARK    4  A    between atoms: N_8  and  N_9 
REMARK       I    between atoms: N_9  and  C_10 
REMARK    5  A    between atoms: C_10  and  C_11 
REMARK    6  A    between atoms: C_11  and  N_12 
REMARK       I    between atoms: N_12  and  C_13 
REMARK    7  A    between atoms: C_13  and  C_14 
REMARK    8  A    between atoms: C_15  and  C_16 
REMARK    9  A    between atoms: C_15  and  C_22 
ROOT
HETATM    1  N   UNL     1       6.650  -1.513  -1.573  1.00  0.00    -0.352 N 
HETATM    2  C   UNL     1       5.920  -2.649  -1.325  1.00  0.00     0.223 C 
HETATM    3  O   UNL     1       4.707  -2.638  -1.151  1.00  0.00    -0.273 OA
HETATM    4  H   UNL     1       7.619  -1.585  -1.854  1.00  0.00     0.162 HD
ENDROOT
BRANCH   1   5
HETATM    5  C   UNL     1       6.032  -0.202  -1.564  1.00  0.00     0.227 C 
BRANCH   5   6
HETATM    6  C   UNL     1       5.257   0.101  -2.847  1.00  0.00     0.255 C 
HETATM    7  N   UNL     1       4.034  -0.553  -2.890  1.00  0.00    -0.246 N 
HETATM    8  H   UNL     1       3.830  -1.278  -2.196  1.00  0.00     0.192 HD
HETATM    9  O   UNL     1       5.708   0.854  -3.708  1.00  0.00    -0.270 OA
BRANCH   7  10
HETATM   10  N   UNL     1       3.143  -0.289  -3.885  1.00  0.00    -0.184 NA
HETATM   11  C   UNL     1       2.015  -0.922  -3.785  1.00  0.00     0.153 C 
BRANCH  11  12
HETATM   12  C   UNL     1       0.925  -0.717  -4.761  1.00  0.00     0.019 A 
HETATM   13  C   UNL     1      -0.314  -1.331  -4.571  1.00  0.00     0.110 A 
HETATM   14  C   UNL     1      -1.366  -1.127  -5.478  1.00  0.00     0.102 A 
HETATM   15  C   UNL     1      -1.163  -0.301  -6.585  1.00  0.00     0.040 A 
HETATM   16  C   UNL     1       0.078   0.314  -6.780  1.00  0.00     0.004 A 
HETATM   17  C   UNL     1       1.119   0.109  -5.872  1.00  0.00     0.016 A 
BRANCH  13  18
HETATM   18  O   UNL     1      -0.531  -2.141  -3.484  1.00  0.00    -0.357 OA
HETATM   19  H   UNL     1      -1.459  -2.438  -3.567  1.00  0.00     0.218 HD
ENDBRANCH  13  18
BRANCH  14  20
HETATM   20  O   UNL     1      -2.531  -1.783  -5.165  1.00  0.00    -0.353 OA
HETATM   21  C   UNL     1      -3.631  -1.586  -6.046  1.00  0.00     0.210 C 
ENDBRANCH  14  20
ENDBRANCH  11  12
ENDBRANCH   7  10
ENDBRANCH   5   6
ENDBRANCH   1   5
BRANCH   2  22
HETATM   22  C   UNL     1       6.725  -3.893  -1.317  1.00  0.00     0.097 A 
HETATM   23  C   UNL     1       6.831  -4.794  -0.078  1.00  0.00     0.027 A 
HETATM   24  C   UNL     1       6.072  -5.242  -1.328  1.00  0.00     0.035 A 
BRANCH  23  25
HETATM   25  C   UNL     1       8.224  -5.377   0.197  1.00  0.00    -0.044 A 
HETATM   26  C   UNL     1       9.274  -4.553   0.643  1.00  0.00     0.008 A 
HETATM   27  C   UNL     1      10.544  -5.068   0.916  1.00  0.00     0.001 A 
HETATM   28  C   UNL     1      10.794  -6.426   0.746  1.00  0.00     0.000 A 
HETATM   29  C   UNL     1       9.774  -7.267   0.310  1.00  0.00     0.001 A 
HETATM   30  C   UNL     1       8.503  -6.747   0.045  1.00  0.00     0.008 A 
ENDBRANCH  23  25
BRANCH  23  31
HETATM   31  C   UNL     1       5.981  -4.570   1.178  1.00  0.00    -0.044 A 
HETATM   32  C   UNL     1       5.218  -5.621   1.723  1.00  0.00     0.008 A 
HETATM   33  C   UNL     1       4.462  -5.454   2.886  1.00  0.00     0.001 A 
HETATM   34  C   UNL     1       4.453  -4.225   3.537  1.00  0.00     0.000 A 
HETATM   35  C   UNL     1       5.204  -3.170   3.028  1.00  0.00     0.001 A 
HETATM   36  C   UNL     1       5.964  -3.345   1.868  1.00  0.00     0.008 A 
ENDBRANCH  23  31
ENDBRANCH   2  22
TORSDOF 9
