REMARK  9 active torsions:
REMARK  status: ('A' for Active; 'I' for Inactive)
REMARK       I    between atoms: N_2  and  C_3 
REMARK    1  A    between atoms: C_3  and  C_4 
REMARK    2  A    between atoms: C_7  and  N_8 
REMARK       I    between atoms: N_8  and  C_9 
REMARK    3  A    between atoms: C_9  and  C_10 
REMARK    4  A    between atoms: C_10  and  O_11 
REMARK    5  A    between atoms: O_11  and  C_12 
REMARK    6  A    between atoms: C_12  and  C_13 
REMARK    7  A    between atoms: C_14  and  N_15 
REMARK    8  A    between atoms: N_15  and  C_16 
REMARK    9  A    between atoms: C_16  and  C_17 
ROOT
HETATM    1  O   UNL     1       7.482  -2.275  -1.229  1.00  0.00    -0.308 OA
ENDROOT
BRANCH   1   2
HETATM    2  C   UNL     1       8.881  -2.579  -1.261  1.00  0.00     0.282 C 
BRANCH   2   3
HETATM    3  C   UNL     1       9.686  -1.593  -0.409  1.00  0.00     0.246 C 
HETATM    4  N   UNL     1       9.622  -0.294  -0.884  1.00  0.00    -0.325 N 
HETATM    5  H   UNL     1       9.164  -0.168  -1.787  1.00  0.00     0.169 HD
HETATM    6  O   UNL     1      10.299  -1.974   0.584  1.00  0.00    -0.271 OA
BRANCH   4   7
HETATM    7  C   UNL     1      10.060   0.881  -0.245  1.00  0.00     0.034 A 
HETATM    8  C   UNL     1      10.686   0.904   1.005  1.00  0.00     0.030 A 
HETATM    9  C   UNL     1      11.055   2.119   1.591  1.00  0.00     0.019 A 
HETATM   10  C   UNL     1      10.808   3.320   0.919  1.00  0.00     0.032 A 
HETATM   11  C   UNL     1      10.162   3.311  -0.317  1.00  0.00     0.019 A 
HETATM   12  C   UNL     1       9.800   2.093  -0.900  1.00  0.00     0.030 A 
BRANCH  10  13
HETATM   13  C   UNL     1      11.158   4.618   1.536  1.00  0.00     0.253 C 
HETATM   14  N   UNL     1      12.476   4.845   1.925  1.00  0.00    -0.357 N 
HETATM   15  C   UNL     1      12.781   6.051   2.676  1.00  0.00     0.152 C 
HETATM   16  C   UNL     1      13.618   4.044   1.506  1.00  0.00     0.152 C 
HETATM   17  O   UNL     1      10.252   5.436   1.682  1.00  0.00    -0.267 OA
ENDBRANCH  10  13
ENDBRANCH   4   7
ENDBRANCH   2   3
ENDBRANCH   1   2
BRANCH   1  18
HETATM   18  C   UNL     1       7.064  -1.367  -2.143  1.00  0.00     0.295 C 
HETATM   19  O   UNL     1       7.761  -0.840  -2.998  1.00  0.00    -0.259 OA
BRANCH  18  20
HETATM   20  C   UNL     1       5.647  -1.024  -1.910  1.00  0.00     0.060 A 
HETATM   21  C   UNL     1       4.744  -0.936  -2.992  1.00  0.00     0.025 A 
HETATM   22  C   UNL     1       3.419  -0.592  -2.678  1.00  0.00     0.024 A 
HETATM   23  C   UNL     1       3.029  -0.276  -1.370  1.00  0.00     0.002 A 
HETATM   24  C   UNL     1       3.949  -0.328  -0.329  1.00  0.00     0.001 A 
HETATM   25  C   UNL     1       5.258  -0.709  -0.595  1.00  0.00     0.019 A 
BRANCH  21  26
HETATM   26  N   UNL     1       5.132  -1.332  -4.283  1.00  0.00    -0.286 NA
HETATM   27  H   UNL     1       6.115  -1.112  -4.461  1.00  0.00     0.128 HD
BRANCH  26  28
HETATM   28  C   UNL     1       4.298  -1.017  -5.443  1.00  0.00     0.157 C 
BRANCH  28  29
HETATM   29  C   UNL     1       4.846  -1.520  -6.737  1.00  0.00     0.065 A 
HETATM   30  O   UNL     1       4.596  -0.761  -7.844  1.00  0.00    -0.326 OA
HETATM   31  C   UNL     1       5.150  -1.407  -8.902  1.00  0.00     0.142 A 
HETATM   32  C   UNL     1       5.752  -2.573  -8.493  1.00  0.00     0.027 A 
HETATM   33  C   UNL     1       5.556  -2.649  -7.094  1.00  0.00     0.036 A 
ENDBRANCH  28  29
ENDBRANCH  26  28
ENDBRANCH  21  26
ENDBRANCH  18  20
ENDBRANCH   1  18
TORSDOF 9
