REMARK  9 active torsions:
REMARK  status: ('A' for Active; 'I' for Inactive)
REMARK    1  A    between atoms: C_4  and  C_5 
REMARK    2  A    between atoms: C_6  and  N_7 
REMARK    3  A    between atoms: N_7  and  S_8 
REMARK    4  A    between atoms: C_17  and  C_18 
REMARK    5  A    between atoms: C_18  and  N_19 
REMARK    6  A    between atoms: N_19  and  C_21 
REMARK    7  A    between atoms: C_21  and  C_22 
REMARK    8  A    between atoms: C_24  and  C_25 
REMARK    9  A    between atoms: C_25  and  N_26 
ROOT
HETATM    1  C   UNL     1       6.412  -1.341   0.008  1.00  0.00     0.079 C 
HETATM    2  C   UNL     1       5.107  -0.659   0.089  1.00  0.00     0.078 A 
HETATM    3  O   UNL     1       5.120   0.684   0.357  1.00  0.00    -0.294 OA
HETATM    4  C   UNL     1       3.796   1.048   0.407  1.00  0.00     0.182 A 
HETATM    5  N   UNL     1       2.980   0.049   0.142  1.00  0.00    -0.224 NA
HETATM    6  C   UNL     1       3.792  -1.049  -0.007  1.00  0.00     0.092 A 
ENDROOT
BRANCH   6   7
HETATM    7  C   UNL     1       3.161  -2.383  -0.169  1.00  0.00     0.296 C 
BRANCH   7   8
HETATM    8  N   UNL     1       1.648  -2.278  -0.238  1.00  0.00    -0.065 N 
HETATM    9  H   UNL     1       1.445  -1.541   0.467  1.00  0.00     0.280 HD
HETATM   10  C   UNL     1       0.948  -3.511   0.211  1.00  0.00     0.270 C 
BRANCH   8  11
HETATM   11  C   UNL     1       1.085  -1.671  -1.501  1.00  0.00     0.280 C 
BRANCH  11  12
HETATM   12  C   UNL     1       1.489  -2.319  -2.798  1.00  0.00     0.009 A 
HETATM   13  S   UNL     1       0.509  -3.518  -3.533  1.00  0.00    -0.096 SA
HETATM   14  C   UNL     1       1.501  -3.584  -4.933  1.00  0.00     0.009 A 
HETATM   15  C   UNL     1       2.597  -2.755  -4.807  1.00  0.00     0.017 A 
HETATM   16  C   UNL     1       2.581  -2.015  -3.589  1.00  0.00     0.017 A 
BRANCH  14  17
HETATM   17  C   UNL     1       1.129  -4.457  -6.097  1.00  0.00     0.280 C 
BRANCH  17  18
HETATM   18  N   UNL     1      -0.205  -4.092  -6.718  1.00  0.00    -0.067 N 
HETATM   19  H   UNL     1      -0.881  -4.088  -5.943  1.00  0.00     0.280 HD
HETATM   20  C   UNL     1      -0.216  -2.711  -7.336  1.00  0.00     0.235 C 
HETATM   21  C   UNL     1      -1.630  -2.377  -7.792  1.00  0.00     0.028 C 
HETATM   22  C   UNL     1      -2.171  -3.422  -8.760  1.00  0.00     0.003 C 
HETATM   23  C   UNL     1      -2.072  -4.825  -8.171  1.00  0.00     0.028 C 
HETATM   24  C   UNL     1      -0.659  -5.145  -7.705  1.00  0.00     0.235 C 
ENDBRANCH  17  18
ENDBRANCH  14  17
ENDBRANCH  11  12
ENDBRANCH   8  11
ENDBRANCH   7   8
ENDBRANCH   6   7
BRANCH   4  25
HETATM   25  C   UNL     1       3.490   2.434   0.758  1.00  0.00     0.044 A 
HETATM   26  C   UNL     1       2.257   3.045   0.436  1.00  0.00     0.057 A 
HETATM   27  C   UNL     1       2.023   4.386   0.778  1.00  0.00     0.031 A 
HETATM   28  C   UNL     1       2.997   5.127   1.444  1.00  0.00     0.002 A 
HETATM   29  C   UNL     1       4.213   4.538   1.771  1.00  0.00     0.001 A 
HETATM   30  C   UNL     1       4.457   3.206   1.430  1.00  0.00     0.018 A 
BRANCH  26  31
HETATM   31  N   UNL     1       1.212   2.364  -0.276  1.00  0.00    -0.284 N 
HETATM   32  H   UNL     1       0.782   2.911  -1.023  1.00  0.00     0.178 HD
BRANCH  31  33
HETATM   33  S   UNL     1       0.086   1.447   0.580  1.00  0.00     0.227 S 
HETATM   34  C   UNL     1      -0.977   2.682   1.304  1.00  0.00     0.186 C 
HETATM   35  O   UNL     1      -0.669   0.739  -0.439  1.00  0.00    -0.206 OA
HETATM   36  O   UNL     1       0.723   0.681   1.627  1.00  0.00    -0.206 OA
ENDBRANCH  31  33
ENDBRANCH  26  31
ENDBRANCH   4  25
TORSDOF 9
