REMARK  7 active torsions:
REMARK  status: ('A' for Active; 'I' for Inactive)
REMARK    1  A    between atoms: O_2  and  C_3 
REMARK    2  A    between atoms: C_6  and  C_7 
REMARK    3  A    between atoms: C_7  and  N_8 
REMARK    4  A    between atoms: N_8  and  C_11 
REMARK    5  A    between atoms: C_11  and  C_12 
REMARK    6  A    between atoms: C_11  and  C_20 
REMARK       I    between atoms: C_12  and  N_13 
REMARK    7  A    between atoms: N_13  and  C_14 
ROOT
HETATM    1  C   UNL     1       7.211   5.900   2.003  1.00  0.00     0.310 C 
ENDROOT
BRANCH   1   2
HETATM    2  N   UNL     1       6.426   4.619   1.788  1.00  0.00    -0.054 N 
HETATM    3  H   UNL     1       6.678   4.175   0.901  1.00  0.00     0.278 HD
HETATM    4  H   UNL     1       5.438   4.908   1.716  1.00  0.00     0.278 HD
BRANCH   2   5
HETATM    5  C   UNL     1       6.471   3.605   2.880  1.00  0.00     0.272 C 
BRANCH   5   6
HETATM    6  C   UNL     1       5.526   2.472   2.593  1.00  0.00    -0.033 A 
HETATM    7  C   UNL     1       6.005   1.250   2.100  1.00  0.00     0.011 A 
HETATM    8  C   UNL     1       5.123   0.201   1.818  1.00  0.00     0.037 A 
HETATM    9  C   UNL     1       3.753   0.363   2.015  1.00  0.00     0.068 A 
HETATM   10  C   UNL     1       3.272   1.584   2.491  1.00  0.00     0.037 A 
HETATM   11  C   UNL     1       4.147   2.633   2.783  1.00  0.00     0.011 A 
BRANCH   9  12
HETATM   12  O   UNL     1       2.790  -0.577   1.779  1.00  0.00    -0.356 OA
HETATM   13  C   UNL     1       3.232  -1.894   1.469  1.00  0.00     0.210 C 
ENDBRANCH   9  12
ENDBRANCH   5   6
ENDBRANCH   2   5
ENDBRANCH   1   2
BRANCH   1  14
HETATM   14  C   UNL     1       6.525   6.776   3.076  1.00  0.00     0.259 C 
HETATM   15  N   UNL     1       7.249   7.857   3.521  1.00  0.00    -0.304 N 
HETATM   16  H   UNL     1       8.175   8.083   3.178  1.00  0.00     0.171 HD
HETATM   17  O   UNL     1       5.378   6.462   3.404  1.00  0.00    -0.270 OA
BRANCH  15  18
HETATM   18  C   UNL     1       6.790   8.656   4.533  1.00  0.00     0.172 A 
HETATM   19  S   UNL     1       7.861   9.905   4.983  1.00  0.00    -0.062 SA
HETATM   20  C   UNL     1       6.738  10.399   6.185  1.00  0.00     0.072 A 
HETATM   21  C   UNL     1       5.633   9.573   6.149  1.00  0.00     0.126 A 
HETATM   22  N   UNL     1       5.673   8.567   5.201  1.00  0.00    -0.236 NA
ENDBRANCH  15  18
ENDBRANCH   1  14
BRANCH   1  23
HETATM   23  C   UNL     1       8.693   5.647   2.188  1.00  0.00    -0.019 A 
HETATM   24  C   UNL     1       9.534   5.626   1.061  1.00  0.00     0.010 A 
HETATM   25  C   UNL     1      10.898   5.368   1.197  1.00  0.00     0.001 A 
HETATM   26  C   UNL     1      11.440   5.119   2.455  1.00  0.00     0.000 A 
HETATM   27  C   UNL     1      10.620   5.127   3.580  1.00  0.00     0.001 A 
HETATM   28  C   UNL     1       9.254   5.384   3.450  1.00  0.00     0.010 A 
ENDBRANCH   1  23
TORSDOF 7
