REMARK  9 active torsions:
REMARK  status: ('A' for Active; 'I' for Inactive)
REMARK    1  A    between atoms: C_2  and  C_3 
REMARK    2  A    between atoms: C_3  and  O_4 
REMARK    3  A    between atoms: O_4  and  C_5 
REMARK    4  A    between atoms: C_8  and  C_9 
REMARK       I    between atoms: C_9  and  N_10 
REMARK    5  A    between atoms: N_10  and  C_11 
REMARK    6  A    between atoms: C_11  and  N_12 
REMARK    7  A    between atoms: N_12  and  C_13 
REMARK    8  A    between atoms: C_15  and  C_16 
REMARK    9  A    between atoms: C_25  and  O_26 
ROOT
HETATM    1  C   UNL     1       7.636   2.263   4.219  1.00  0.00     0.035 A 
HETATM    2  C   UNL     1       7.009   3.080   3.271  1.00  0.00     0.046 A 
HETATM    3  C   UNL     1       7.030   2.766   1.897  1.00  0.00     0.036 A 
HETATM    4  C   UNL     1       7.719   1.608   1.493  1.00  0.00     0.084 A 
HETATM    5  C   UNL     1       8.392   0.803   2.426  1.00  0.00    -0.026 A 
HETATM    6  C   UNL     1       9.176  -0.406   1.993  1.00  0.00     0.051 C 
HETATM    7  C   UNL     1       8.363   1.155   3.783  1.00  0.00     0.039 A 
ENDROOT
BRANCH   1   8
HETATM    8  N   UNL     1       7.505   2.621   5.577  1.00  0.00    -0.333 N 
HETATM    9  H   UNL     1       7.256   3.589   5.763  1.00  0.00     0.168 HD
BRANCH   8  10
HETATM   10  C   UNL     1       7.511   1.850   6.721  1.00  0.00     0.179 C 
HETATM   11  S   UNL     1       7.468   2.664   8.178  1.00  0.00    -0.040 SA
BRANCH  10  12
HETATM   12  N   UNL     1       7.438   0.479   6.526  1.00  0.00    -0.299 N 
HETATM   13  C   UNL     1       7.154  -0.599   7.354  1.00  0.00     0.257 C 
HETATM   14  O   UNL     1       6.451  -1.508   6.910  1.00  0.00    -0.267 OA
HETATM   15  H   UNL     1       7.028   0.262   5.626  1.00  0.00     0.171 HD
BRANCH  13  16
HETATM   16  C   UNL     1       7.635  -0.689   8.748  1.00  0.00     0.032 A 
HETATM   17  C   UNL     1       6.745  -1.209   9.696  1.00  0.00     0.020 A 
HETATM   18  C   UNL     1       7.160  -1.432  11.010  1.00  0.00     0.038 A 
HETATM   19  C   UNL     1       8.477  -1.162  11.381  1.00  0.00     0.068 A 
HETATM   20  C   UNL     1       9.361  -0.629  10.435  1.00  0.00     0.038 A 
HETATM   21  C   UNL     1       8.950  -0.400   9.114  1.00  0.00     0.020 A 
BRANCH  19  22
HETATM   22  O   UNL     1       9.010  -1.387  12.623  1.00  0.00    -0.351 OA
BRANCH  22  23
HETATM   23  C   UNL     1       8.215  -2.165  13.522  1.00  0.00     0.175 C 
BRANCH  23  24
HETATM   24  C   UNL     1       9.040  -2.524  14.755  1.00  0.00     0.022 C 
HETATM   25  C   UNL     1      10.221  -3.423  14.416  1.00  0.00     0.007 C 
ENDBRANCH  23  24
ENDBRANCH  22  23
ENDBRANCH  19  22
ENDBRANCH  13  16
ENDBRANCH  10  12
ENDBRANCH   8  10
ENDBRANCH   1   8
BRANCH   3  26
HETATM   26  C   UNL     1       6.269   3.639   0.987  1.00  0.00     0.112 A 
HETATM   27  S   UNL     1       6.895   4.092  -0.551  1.00  0.00    -0.067 SA
HETATM   28  C   UNL     1       5.452   4.962  -0.895  1.00  0.00     0.035 A 
HETATM   29  C   UNL     1       4.606   4.889   0.211  1.00  0.00     0.075 A 
HETATM   30  C   UNL     1       5.093   5.659  -2.061  1.00  0.00     0.021 A 
HETATM   31  N   UNL     1       5.093   4.155   1.280  1.00  0.00    -0.239 NA
HETATM   32  C   UNL     1       3.357   5.539   0.153  1.00  0.00     0.033 A 
HETATM   33  C   UNL     1       2.986   6.233  -1.004  1.00  0.00     0.002 A 
HETATM   34  C   UNL     1       3.845   6.289  -2.097  1.00  0.00     0.002 A 
ENDBRANCH   3  26
BRANCH   4  35
HETATM   35  O   UNL     1       7.757   1.176   0.192  1.00  0.00    -0.359 OA
HETATM   36  H   UNL     1       7.173   1.725  -0.357  1.00  0.00     0.218 HD
ENDBRANCH   4  35
TORSDOF 9
