REMARK  14 active torsions:
REMARK  status: ('A' for Active; 'I' for Inactive)
REMARK    1  A    between atoms: C_2  and  N_3 
REMARK    2  A    between atoms: N_3  and  C_5 
REMARK    3  A    between atoms: N_3  and  C_37 
REMARK    4  A    between atoms: C_5  and  C_6 
REMARK    5  A    between atoms: C_6  and  N_7 
REMARK    6  A    between atoms: C_10  and  O_11 
REMARK    7  A    between atoms: C_12  and  C_13 
REMARK    8  A    between atoms: C_13  and  C_14 
REMARK    9  A    between atoms: C_18  and  O_19 
REMARK   10  A    between atoms: O_19  and  C_20 
REMARK   11  A    between atoms: C_26  and  C_27 
REMARK   12  A    between atoms: C_29  and  O_30 
REMARK   13  A    between atoms: O_30  and  C_31 
REMARK   14  A    between atoms: C_33  and  O_34 
ROOT
HETATM    1  N   UNL     1       0.279   3.746   0.804  1.00  0.00    -0.332 N 
HETATM    2  C   UNL     1       0.729   4.863   0.142  1.00  0.00     0.278 C 
HETATM    3  O   UNL     1       1.614   4.915  -0.693  1.00  0.00    -0.265 OA
HETATM    4  C   UNL     1      -0.033   6.023   0.654  1.00  0.00     0.146 C 
HETATM    5  C   UNL     1      -0.903   5.557   1.560  1.00  0.00     0.059 C 
HETATM    6  C   UNL     1      -0.856   4.055   1.660  1.00  0.00     0.161 C 
ENDROOT
BRANCH   5   7
HETATM    7  C   UNL     1      -1.851   6.244   2.465  1.00  0.00     0.193 C 
HETATM    8  O   UNL     1      -2.448   5.588   3.318  1.00  0.00    -0.287 OA
BRANCH   7   9
HETATM    9  C   UNL     1      -2.122   7.691   2.380  1.00  0.00     0.015 A 
HETATM   10  C   UNL     1      -1.110   8.644   2.514  1.00  0.00     0.025 A 
HETATM   11  C   UNL     1      -1.423  10.013   2.511  1.00  0.00    -0.028 A 
HETATM   12  C   UNL     1      -0.327  11.035   2.640  1.00  0.00     0.051 C 
HETATM   13  C   UNL     1      -2.770  10.411   2.447  1.00  0.00     0.075 A 
HETATM   14  C   UNL     1      -3.778   9.456   2.305  1.00  0.00     0.038 A 
HETATM   15  C   UNL     1      -3.456   8.097   2.284  1.00  0.00     0.018 A 
BRANCH  13  16
HETATM   16  O   UNL     1      -3.017  11.757   2.495  1.00  0.00    -0.346 OA
BRANCH  16  17
HETATM   17  C   UNL     1      -4.107  12.184   3.328  1.00  0.00     0.121 C 
HETATM   18  C   UNL     1      -3.812  11.924   4.806  1.00  0.00     0.040 C 
HETATM   19  C   UNL     1      -4.268  13.685   3.093  1.00  0.00     0.040 C 
ENDBRANCH  16  17
ENDBRANCH  13  16
ENDBRANCH   7   9
ENDBRANCH   5   7
BRANCH   4  20
HETATM   20  O   UNL     1       0.209   7.298   0.249  1.00  0.00    -0.355 OA
HETATM   21  H   UNL     1       0.891   7.250  -0.453  1.00  0.00     0.218 HD
ENDBRANCH   4  20
BRANCH   6  22
HETATM   22  C   UNL     1      -2.113   3.337   1.192  1.00  0.00    -0.028 A 
HETATM   23  C   UNL     1      -2.795   2.487   2.088  1.00  0.00     0.049 A 
HETATM   24  C   UNL     1      -3.907   1.755   1.669  1.00  0.00     0.102 A 
HETATM   25  C   UNL     1      -4.342   1.890   0.348  1.00  0.00     0.099 A 
HETATM   26  C   UNL     1      -3.705   2.739  -0.546  1.00  0.00     0.040 A 
HETATM   27  C   UNL     1      -2.592   3.464  -0.126  1.00  0.00     0.012 A 
BRANCH  24  28
HETATM   28  O   UNL     1      -4.630   0.874   2.429  1.00  0.00    -0.349 OA
BRANCH  28  29
HETATM   29  C   UNL     1      -4.294   0.783   3.814  1.00  0.00     0.171 C 
HETATM   30  C   UNL     1      -5.226  -0.230   4.455  1.00  0.00     0.034 C 
ENDBRANCH  28  29
ENDBRANCH  24  28
BRANCH  25  31
HETATM   31  O   UNL     1      -5.421   1.179  -0.100  1.00  0.00    -0.358 OA
HETATM   32  H   UNL     1      -5.763   0.704   0.683  1.00  0.00     0.218 HD
ENDBRANCH  25  31
ENDBRANCH   6  22
BRANCH   1  33
HETATM   33  C   UNL     1       0.695   2.395   0.465  1.00  0.00     0.155 C 
BRANCH  33  34
HETATM   34  C   UNL     1       2.152   2.110   0.863  1.00  0.00     0.254 C 
BRANCH  34  35
HETATM   35  N   UNL     1       2.684   0.780   0.335  1.00  0.00    -0.070 N 
HETATM   36  H   UNL     1       3.604   0.657   0.781  1.00  0.00     0.279 HD
BRANCH  35  37
HETATM   37  C   UNL     1       2.963   0.777  -1.163  1.00  0.00     0.230 C 
HETATM   38  C   UNL     1       4.088   1.732  -1.520  1.00  0.00     0.034 C 
ENDBRANCH  35  37
BRANCH  35  39
HETATM   39  C   UNL     1       1.872  -0.444   0.729  1.00  0.00     0.230 C 
HETATM   40  C   UNL     1       1.781  -0.589   2.237  1.00  0.00     0.034 C 
ENDBRANCH  35  39
ENDBRANCH  34  35
ENDBRANCH  33  34
ENDBRANCH   1  33
TORSDOF 14
