REMARK  1 active torsions:
REMARK  status: ('A' for Active; 'I' for Inactive)
REMARK    1  A    between atoms: C_8  and  C_9 
ROOT
HETATM    1  C   UNL     1       1.218  -0.728  -0.406  1.00  0.00     0.073 C 
HETATM    2  C   UNL     1       2.649  -0.402  -0.150  1.00  0.00     0.062 A 
HETATM    3  N   UNL     1       3.505  -1.404   0.063  1.00  0.00    -0.178 NA
HETATM    4  N   UNL     1       4.687  -0.798   0.160  1.00  0.00    -0.262 N 
HETATM    5  H   UNL     1       5.505  -1.379   0.297  1.00  0.00     0.191 HD
HETATM    6  C   UNL     1       4.635   0.568   0.071  1.00  0.00     0.134 A 
HETATM    7  C   UNL     1       3.298   0.888  -0.121  1.00  0.00     0.032 A 
HETATM    8  C   UNL     1       2.624   2.188  -0.436  1.00  0.00     0.119 C 
HETATM    9  S   UNL     1       3.602   3.695  -0.595  1.00  0.00    -0.141 SA
HETATM   10  C   UNL     1       4.883   3.546   0.681  1.00  0.00     0.136 C 
HETATM   11  C   UNL     1       4.440   3.297   2.113  1.00  0.00     0.031 C 
HETATM   12  C   UNL     1       6.002   2.613   0.260  1.00  0.00     0.236 C 
HETATM   13  O   UNL     1       7.159   3.033   0.140  1.00  0.00    -0.272 OA
HETATM   14  N   UNL     1       5.813   1.271   0.127  1.00  0.00    -0.311 N 
HETATM   15  H   UNL     1       6.690   0.774   0.018  1.00  0.00     0.170 HD
ENDROOT
BRANCH   8  16
HETATM   16  C   UNL     1       1.374   2.375   0.419  1.00  0.00    -0.039 A 
HETATM   17  C   UNL     1       0.215   2.889  -0.204  1.00  0.00     0.021 A 
HETATM   18  C   UNL     1      -0.999   3.046   0.487  1.00  0.00    -0.025 A 
HETATM   19  C   UNL     1      -1.060   2.711   1.855  1.00  0.00    -0.026 A 
HETATM   20  C   UNL     1      -2.155   3.517  -0.158  1.00  0.00     0.012 A 
HETATM   21  C   UNL     1       0.092   2.228   2.489  1.00  0.00     0.013 A 
HETATM   22  C   UNL     1      -2.274   2.858   2.546  1.00  0.00     0.012 A 
HETATM   23  C   UNL     1       1.288   2.057   1.781  1.00  0.00     0.009 A 
HETATM   24  C   UNL     1      -3.416   3.323   1.891  1.00  0.00     0.001 A 
HETATM   25  C   UNL     1      -3.357   3.651   0.540  1.00  0.00     0.001 A 
ENDBRANCH   8  16
TORSDOF 1
