REMARK  6 active torsions:
REMARK  status: ('A' for Active; 'I' for Inactive)
REMARK    1  A    between atoms: C_2  and  C_3 
REMARK    2  A    between atoms: C_3  and  N_4 
REMARK    3  A    between atoms: C_3  and  C_15 
REMARK       I    between atoms: N_4  and  C_5 
REMARK       I    between atoms: C_5  and  N_6 
REMARK    4  A    between atoms: N_6  and  C_7 
REMARK    5  A    between atoms: C_16  and  O_17 
REMARK    6  A    between atoms: O_17  and  C_18 
ROOT
HETATM    1  N   UNL     1       2.316   1.468   2.029  1.00  0.00    -0.334 N 
HETATM    2  C   UNL     1       0.986   1.808   1.974  1.00  0.00     0.321 C 
HETATM    3  N   UNL     1       0.615   2.490   3.110  1.00  0.00    -0.307 N 
HETATM    4  O   UNL     1       0.276   1.571   1.007  1.00  0.00    -0.247 OA
HETATM    5  H   UNL     1       2.724   1.303   2.938  1.00  0.00     0.165 HD
HETATM    6  H   UNL     1       1.388   2.852   3.646  1.00  0.00     0.170 HD
ENDROOT
BRANCH   1   7
HETATM    7  C   UNL     1       3.008   0.835   0.919  1.00  0.00     0.122 C 
BRANCH   7   8
HETATM    8  C   UNL     1       2.598  -0.634   0.683  1.00  0.00     0.026 C 
HETATM    9  C   UNL     1       2.838  -1.586   1.846  1.00  0.00     0.007 C 
ENDBRANCH   7   8
BRANCH   7  10
HETATM   10  C   UNL     1       4.518   1.032   1.018  1.00  0.00    -0.002 A 
HETATM   11  C   UNL     1       5.252   0.899   2.216  1.00  0.00     0.077 A 
HETATM   12  C   UNL     1       6.636   1.121   2.213  1.00  0.00     0.037 A 
HETATM   13  C   UNL     1       7.301   1.448   1.031  1.00  0.00     0.003 A 
HETATM   14  C   UNL     1       6.592   1.561  -0.159  1.00  0.00     0.001 A 
HETATM   15  C   UNL     1       5.213   1.354  -0.165  1.00  0.00     0.012 A 
BRANCH  11  16
HETATM   16  O   UNL     1       4.542   0.591   3.352  1.00  0.00    -0.351 OA
BRANCH  16  17
HETATM   17  C   UNL     1       5.280   0.012   4.431  1.00  0.00     0.171 C 
HETATM   18  C   UNL     1       4.287  -0.563   5.424  1.00  0.00     0.034 C 
ENDBRANCH  16  17
ENDBRANCH  11  16
ENDBRANCH   7  10
ENDBRANCH   1   7
BRANCH   3  19
HETATM   19  C   UNL     1      -0.680   2.952   3.436  1.00  0.00     0.059 A 
HETATM   20  C   UNL     1      -0.841   3.886   4.476  1.00  0.00    -0.032 A 
HETATM   21  C   UNL     1       0.322   4.453   5.241  1.00  0.00     0.050 C 
HETATM   22  C   UNL     1      -2.135   4.323   4.795  1.00  0.00     0.028 A 
HETATM   23  C   UNL     1      -3.212   3.817   4.086  1.00  0.00     0.117 A 
HETATM   24  N   UNL     1      -3.094   2.918   3.093  1.00  0.00    -0.271 NA
HETATM   25  C   UNL     1      -1.835   2.510   2.788  1.00  0.00     0.146 A 
ENDBRANCH   3  19
TORSDOF 6
