REMARK  4 active torsions:
REMARK  status: ('A' for Active; 'I' for Inactive)
REMARK    1  A    between atoms: C_2  and  C_3 
REMARK       I    between atoms: N_10  and  C_11 
REMARK    2  A    between atoms: C_11  and  C_12 
REMARK    3  A    between atoms: C_16  and  C_17 
REMARK    4  A    between atoms: C_18  and  O_19 
ROOT
HETATM    1  C   UNL     1       3.135  -0.268  -1.656  1.00  0.00     0.068 A 
HETATM    2  N   UNL     1       3.287   0.408  -2.806  1.00  0.00    -0.178 NA
HETATM    3  N   UNL     1       3.381  -0.545  -3.751  1.00  0.00    -0.281 N 
HETATM    4  H   UNL     1       3.483  -0.256  -4.718  1.00  0.00     0.189 HD
HETATM    5  C   UNL     1       3.279  -1.799  -3.240  1.00  0.00     0.039 A 
HETATM    6  C   UNL     1       3.155  -1.667  -1.878  1.00  0.00     0.011 A 
HETATM    7  C   UNL     1       3.015  -2.815  -0.949  1.00  0.00     0.169 C 
HETATM    8  N   UNL     1       2.604  -4.022  -1.700  1.00  0.00    -0.342 N 
HETATM    9  C   UNL     1       2.137  -5.167  -1.037  1.00  0.00     0.272 C 
HETATM   10  O   UNL     1       2.302  -6.290  -1.513  1.00  0.00    -0.266 OA
HETATM   11  C   UNL     1       3.313  -4.251  -2.983  1.00  0.00     0.132 C 
HETATM   12  C   UNL     1       3.211  -3.075  -3.983  1.00  0.00     0.079 C 
ENDROOT
BRANCH   9  13
HETATM   13  C   UNL     1       1.497  -5.032   0.249  1.00  0.00     0.120 C 
HETATM   14  N   UNL     1       1.559  -6.031   1.181  1.00  0.00    -0.272 N 
HETATM   15  H   UNL     1       2.004  -6.938   1.069  1.00  0.00     0.189 HD
HETATM   16  N   UNL     1       1.023  -5.707   2.370  1.00  0.00    -0.174 NA
HETATM   17  C   UNL     1       0.505  -4.479   2.181  1.00  0.00     0.092 C 
HETATM   18  C   UNL     1       0.689  -4.077   0.830  1.00  0.00     0.071 C 
BRANCH  17  19
HETATM   19  C   UNL     1      -0.114  -3.731   3.284  1.00  0.00     0.028 A 
HETATM   20  C   UNL     1      -0.397  -4.333   4.524  1.00  0.00     0.078 A 
HETATM   21  C   UNL     1      -0.947  -3.603   5.578  1.00  0.00     0.037 A 
HETATM   22  C   UNL     1      -1.216  -2.246   5.416  1.00  0.00     0.003 A 
HETATM   23  C   UNL     1      -0.941  -1.625   4.200  1.00  0.00     0.001 A 
HETATM   24  C   UNL     1      -0.397  -2.361   3.142  1.00  0.00     0.017 A 
BRANCH  20  25
HETATM   25  O   UNL     1      -0.139  -5.656   4.780  1.00  0.00    -0.360 OA
HETATM   26  H   UNL     1       0.328  -6.002   3.984  1.00  0.00     0.217 HD
ENDBRANCH  20  25
ENDBRANCH  17  19
ENDBRANCH   9  13
BRANCH   1  27
HETATM   27  C   UNL     1       2.902   0.451  -0.354  1.00  0.00     0.032 C 
HETATM   28  C   UNL     1       1.433   0.862  -0.217  1.00  0.00     0.016 C 
HETATM   29  C   UNL     1       3.818   1.661  -0.167  1.00  0.00     0.016 C 
ENDBRANCH   1  27
TORSDOF 4
