REMARK  6 active torsions:
REMARK  status: ('A' for Active; 'I' for Inactive)
REMARK       I    between atoms: N_1  and  C_2 
REMARK    1  A    between atoms: C_2  and  C_4 
REMARK    2  A    between atoms: C_9  and  C_13 
REMARK       I    between atoms: C_13  and  N_15 
REMARK    3  A    between atoms: C_19  and  C_20 
REMARK    4  A    between atoms: C_24  and  C_26 
REMARK       I    between atoms: C_26  and  N_28 
REMARK    5  A    between atoms: N_28  and  C_29 
REMARK    6  A    between atoms: C_34  and  N_38 
ROOT
HETATM    1  C   UNL     1       4.363  -8.807  -5.220  1.00  0.00    -0.034 A 
HETATM    2  C   UNL     1       4.493 -10.206  -5.157  1.00  0.00     0.009 A 
HETATM    3  C   UNL     1       3.377 -11.038  -5.265  1.00  0.00     0.002 A 
HETATM    4  C   UNL     1       2.108 -10.486  -5.429  1.00  0.00     0.017 A 
HETATM    5  C   UNL     1       1.961  -9.095  -5.486  1.00  0.00     0.033 A 
HETATM    6  C   UNL     1       3.082  -8.263  -5.405  1.00  0.00     0.026 A 
ENDROOT
BRANCH   1   7
HETATM    7  C   UNL     1       5.608  -7.942  -5.096  1.00  0.00     0.120 C 
HETATM    8  N   UNL     1       5.350  -6.619  -4.539  1.00  0.00    -0.338 N 
HETATM    9  C   UNL     1       5.094  -6.456  -3.185  1.00  0.00     0.274 C 
HETATM   10  C   UNL     1       5.522  -5.575  -5.539  1.00  0.00     0.127 C 
HETATM   11  O   UNL     1       5.003  -7.426  -2.430  1.00  0.00    -0.266 OA
HETATM   12  C   UNL     1       5.638  -6.316  -6.865  1.00  0.00     0.022 C 
HETATM   13  C   UNL     1       6.247  -7.652  -6.460  1.00  0.00     0.032 C 
BRANCH   9  14
HETATM   14  C   UNL     1       4.914  -5.093  -2.658  1.00  0.00     0.142 A 
HETATM   15  N   UNL     1       5.243  -3.914  -3.309  1.00  0.00    -0.224 NA
HETATM   16  C   UNL     1       4.937  -2.943  -2.476  1.00  0.00     0.134 A 
HETATM   17  C   UNL     1       5.067  -1.531  -2.586  1.00  0.00     0.052 A 
HETATM   18  N   UNL     1       4.405  -3.439  -1.293  1.00  0.00    -0.314 N 
HETATM   19  C   UNL     1       4.658  -0.744  -1.571  1.00  0.00     0.022 A 
HETATM   20  C   UNL     1       4.066  -1.299  -0.353  1.00  0.00     0.047 A 
HETATM   21  C   UNL     1       3.973  -2.639  -0.239  1.00  0.00     0.115 A 
HETATM   22  C   UNL     1       4.405  -4.802  -1.402  1.00  0.00     0.135 A 
BRANCH  20  23
HETATM   23  C   UNL     1       3.641  -0.383   0.745  1.00  0.00     0.250 C 
HETATM   24  N   UNL     1       2.573  -0.786   1.487  1.00  0.00    -0.366 N 
HETATM   25  H   UNL     1       2.223  -0.128   2.172  1.00  0.00     0.159 HD
HETATM   26  H   UNL     1       1.984  -1.565   1.232  1.00  0.00     0.159 HD
HETATM   27  O   UNL     1       4.180   0.698   0.942  1.00  0.00    -0.268 OA
ENDBRANCH  20  23
ENDBRANCH   9  14
ENDBRANCH   1   7
BRANCH   5  28
HETATM   28  C   UNL     1       0.621  -8.468  -5.638  1.00  0.00     0.257 C 
HETATM   29  O   UNL     1       0.505  -7.520  -6.402  1.00  0.00    -0.267 OA
HETATM   30  N   UNL     1      -0.343  -9.035  -4.841  1.00  0.00    -0.301 N 
HETATM   31  H   UNL     1      -0.103  -9.741  -4.162  1.00  0.00     0.171 HD
BRANCH  30  32
HETATM   32  C   UNL     1      -1.658  -8.675  -4.901  1.00  0.00     0.174 A 
HETATM   33  N   UNL     1      -2.262  -7.818  -5.685  1.00  0.00    -0.228 NA
HETATM   34  C   UNL     1      -3.616  -7.854  -5.435  1.00  0.00     0.050 A 
HETATM   35  C   UNL     1      -4.571  -7.041  -6.237  1.00  0.00     0.062 C 
HETATM   36  C   UNL     1      -4.006  -8.758  -4.471  1.00  0.00     0.013 A 
HETATM   37  C   UNL     1      -6.042  -7.294  -5.843  1.00  0.00     0.031 C 
HETATM   38  C   UNL     1      -6.373  -8.707  -5.266  1.00  0.00     0.084 C 
HETATM   39  C   UNL     1      -5.412  -9.026  -4.081  1.00  0.00     0.073 C 
HETATM   40  S   UNL     1      -2.651  -9.538  -3.804  1.00  0.00    -0.055 SA
BRANCH  38  41
HETATM   41  N   UNL     1      -6.639  -9.761  -6.264  1.00  0.00    -0.404 N 
HETATM   42  C   UNL     1      -5.868  -9.847  -7.508  1.00  0.00     0.143 C 
HETATM   43  C   UNL     1      -4.655 -10.786  -7.447  1.00  0.00     0.187 C 
HETATM   44  O   UNL     1      -5.044 -12.099  -7.020  1.00  0.00    -0.388 OA
HETATM   45  C   UNL     1      -5.670 -12.040  -5.734  1.00  0.00     0.187 C 
HETATM   46  C   UNL     1      -6.900 -11.112  -5.738  1.00  0.00     0.143 C 
ENDBRANCH  38  41
ENDBRANCH  30  32
ENDBRANCH   5  28
TORSDOF 6
