REMARK  11 active torsions:
REMARK  status: ('A' for Active; 'I' for Inactive)
REMARK    1  A    between atoms: O_2  and  C_3 
REMARK    2  A    between atoms: C_6  and  C_7 
REMARK    3  A    between atoms: C_7  and  N_8 
REMARK    4  A    between atoms: N_8  and  C_9 
REMARK    5  A    between atoms: N_8  and  C_22 
REMARK    6  A    between atoms: C_9  and  N_10 
REMARK    7  A    between atoms: N_10  and  C_11 
REMARK    8  A    between atoms: C_11  and  C_12 
REMARK    9  A    between atoms: C_12  and  C_13 
REMARK   10  A    between atoms: C_13  and  N_14 
REMARK   11  A    between atoms: C_22  and  C_23 
ROOT
HETATM    1  N   UNL     1       6.033   4.256  -2.322  1.00  0.00    -0.350 N 
ENDROOT
BRANCH   1   2
HETATM    2  C   UNL     1       4.660   4.083  -1.794  1.00  0.00     0.164 C 
BRANCH   2   3
HETATM    3  C   UNL     1       4.523   3.321  -0.498  1.00  0.00    -0.040 A 
HETATM    4  C   UNL     1       5.257   3.659   0.646  1.00  0.00     0.011 A 
HETATM    5  C   UNL     1       5.035   2.981   1.851  1.00  0.00     0.037 A 
HETATM    6  C   UNL     1       4.073   1.972   1.919  1.00  0.00     0.068 A 
HETATM    7  C   UNL     1       3.356   1.613   0.783  1.00  0.00     0.037 A 
HETATM    8  C   UNL     1       3.566   2.295  -0.413  1.00  0.00     0.011 A 
BRANCH   6   9
HETATM    9  O   UNL     1       3.807   1.254   3.051  1.00  0.00    -0.356 OA
HETATM   10  C   UNL     1       3.607   2.070   4.204  1.00  0.00     0.210 C 
ENDBRANCH   6   9
ENDBRANCH   2   3
ENDBRANCH   1   2
BRANCH   1  11
HETATM   11  C   UNL     1       6.841   3.136  -2.610  1.00  0.00     0.170 C 
HETATM   12  S   UNL     1       6.289   1.566  -2.852  1.00  0.00    -0.041 SA
BRANCH  11  13
HETATM   13  N   UNL     1       8.189   3.462  -2.630  1.00  0.00    -0.367 N 
HETATM   14  H   UNL     1       8.400   4.427  -2.408  1.00  0.00     0.161 HD
BRANCH  13  15
HETATM   15  C   UNL     1       9.249   2.734  -3.314  1.00  0.00     0.123 C 
BRANCH  15  16
HETATM   16  C   UNL     1      10.336   2.250  -2.360  1.00  0.00     0.047 C 
BRANCH  16  17
HETATM   17  C   UNL     1       9.858   1.430  -1.164  1.00  0.00     0.236 C 
BRANCH  17  18
HETATM   18  N   UNL     1       9.035   0.223  -1.530  1.00  0.00    -0.067 N 
HETATM   19  H   UNL     1       8.217   0.558  -2.071  1.00  0.00     0.280 HD
HETATM   20  C   UNL     1       9.766  -0.814  -2.369  1.00  0.00     0.261 C 
HETATM   21  C   UNL     1       8.849  -2.012  -2.640  1.00  0.00     0.195 C 
HETATM   22  O   UNL     1       8.386  -2.590  -1.415  1.00  0.00    -0.388 OA
HETATM   23  C   UNL     1       7.607  -1.654  -0.662  1.00  0.00     0.195 C 
HETATM   24  C   UNL     1       8.447  -0.432  -0.277  1.00  0.00     0.261 C 
ENDBRANCH  17  18
ENDBRANCH  16  17
ENDBRANCH  15  16
ENDBRANCH  13  15
ENDBRANCH  11  13
ENDBRANCH   1  11
BRANCH   1  25
HETATM   25  C   UNL     1       6.163   5.415  -3.253  1.00  0.00     0.169 C 
BRANCH  25  26
HETATM   26  C   UNL     1       5.389   5.129  -4.515  1.00  0.00     0.029 C 
HETATM   27  C   UNL     1       6.109   4.407  -5.609  1.00  0.00     0.253 C 
HETATM   28  O   UNL     1       7.329   4.262  -5.592  1.00  0.00    -0.268 OA
HETATM   29  N   UNL     1       5.342   3.875  -6.610  1.00  0.00    -0.322 N 
HETATM   30  C   UNL     1       3.948   3.996  -6.667  1.00  0.00     0.048 A 
HETATM   31  H   UNL     1       5.833   3.340  -7.314  1.00  0.00     0.169 HD
HETATM   32  C   UNL     1       3.292   4.799  -5.709  1.00  0.00    -0.006 A 
HETATM   33  C   UNL     1       3.229   3.282  -7.626  1.00  0.00     0.070 A 
HETATM   34  C   UNL     1       1.895   4.884  -5.700  1.00  0.00     0.053 A 
HETATM   35  C   UNL     1       4.081   5.418  -4.645  1.00  0.00     0.028 C 
HETATM   36  C   UNL     1       1.207   4.136  -6.630  1.00  0.00     0.106 A 
HETATM   37  C   UNL     1       1.854   3.357  -7.562  1.00  0.00     0.107 A 
HETATM   38  O   UNL     1      -0.145   4.033  -6.715  1.00  0.00    -0.323 OA
HETATM   39  O   UNL     1       0.985   2.669  -8.350  1.00  0.00    -0.323 OA
HETATM   40  C   UNL     1      -0.279   3.053  -7.766  1.00  0.00     0.352 A 
ENDBRANCH  25  26
ENDBRANCH   1  25
TORSDOF 11
