REMARK  5 active torsions:
REMARK  status: ('A' for Active; 'I' for Inactive)
REMARK    1  A    between atoms: C_4  and  C_5 
REMARK       I    between atoms: C_5  and  N_6 
REMARK    2  A    between atoms: N_6  and  C_7 
REMARK    3  A    between atoms: C_10  and  C_11 
REMARK    4  A    between atoms: C_18  and  N_19 
REMARK       I    between atoms: N_19  and  C_20 
REMARK    5  A    between atoms: C_20  and  C_21 
ROOT
HETATM    1  C   UNL     1       3.778   4.836  -0.475  1.00  0.00     0.139 A 
HETATM    2  N   UNL     1       4.247   5.705   0.405  1.00  0.00    -0.228 NA
HETATM    3  C   UNL     1       3.946   6.956  -0.085  1.00  0.00     0.088 A 
HETATM    4  C   UNL     1       3.282   6.856  -1.298  1.00  0.00     0.063 A 
HETATM    5  N   UNL     1       3.187   5.509  -1.521  1.00  0.00    -0.338 N 
HETATM    6  H   UNL     1       2.779   5.081  -2.337  1.00  0.00     0.167 HD
HETATM    7  C   UNL     1       4.216   8.228   0.450  1.00  0.00     0.063 A 
HETATM    8  C   UNL     1       3.808   9.363  -0.264  1.00  0.00     0.037 A 
HETATM    9  C   UNL     1       3.140   9.215  -1.491  1.00  0.00     0.032 A 
HETATM   10  C   UNL     1       2.860   7.957  -2.038  1.00  0.00     0.034 A 
ENDROOT
BRANCH   1  11
HETATM   11  C   UNL     1       3.893   3.375  -0.410  1.00  0.00     0.010 A 
HETATM   12  C   UNL     1       3.137   2.530  -1.232  1.00  0.00     0.017 A 
HETATM   13  C   UNL     1       3.307   1.140  -1.191  1.00  0.00     0.030 A 
HETATM   14  C   UNL     1       4.232   0.562  -0.324  1.00  0.00     0.035 A 
HETATM   15  C   UNL     1       4.963   1.396   0.528  1.00  0.00     0.030 A 
HETATM   16  C   UNL     1       4.795   2.787   0.485  1.00  0.00     0.017 A 
BRANCH  14  17
HETATM   17  N   UNL     1       4.486  -0.821  -0.259  1.00  0.00    -0.321 N 
HETATM   18  C   UNL     1       3.963  -1.825  -1.057  1.00  0.00     0.279 C 
HETATM   19  O   UNL     1       3.148  -1.665  -1.960  1.00  0.00    -0.265 OA
HETATM   20  H   UNL     1       5.169  -1.135   0.423  1.00  0.00     0.169 HD
BRANCH  18  21
HETATM   21  C   UNL     1       4.497  -3.137  -0.735  1.00  0.00     0.142 A 
HETATM   22  O   UNL     1       5.384  -3.273   0.303  1.00  0.00    -0.317 OA
HETATM   23  C   UNL     1       5.716  -4.589   0.373  1.00  0.00     0.143 A 
HETATM   24  C   UNL     1       5.065  -5.305  -0.603  1.00  0.00     0.027 A 
HETATM   25  C   UNL     1       4.278  -4.371  -1.317  1.00  0.00     0.045 A 
ENDBRANCH  18  21
ENDBRANCH  14  17
ENDBRANCH   1  11
BRANCH   8  26
HETATM   26  N   UNL     1       4.026  10.686   0.167  1.00  0.00    -0.321 N 
HETATM   27  C   UNL     1       4.651  11.131   1.317  1.00  0.00     0.279 C 
HETATM   28  O   UNL     1       5.136  10.420   2.190  1.00  0.00    -0.265 OA
HETATM   29  H   UNL     1       3.688  11.429  -0.435  1.00  0.00     0.169 HD
BRANCH  27  30
HETATM   30  C   UNL     1       4.679  12.583   1.397  1.00  0.00     0.142 A 
HETATM   31  O   UNL     1       4.119  13.324   0.384  1.00  0.00    -0.317 OA
HETATM   32  C   UNL     1       4.283  14.633   0.707  1.00  0.00     0.143 A 
HETATM   33  C   UNL     1       4.938  14.755   1.909  1.00  0.00     0.027 A 
HETATM   34  C   UNL     1       5.194  13.436   2.355  1.00  0.00     0.045 A 
ENDBRANCH  27  30
ENDBRANCH   8  26
TORSDOF 5
