REMARK  10 active torsions:
REMARK  status: ('A' for Active; 'I' for Inactive)
REMARK    1  A    between atoms: C_4  and  N_5 
REMARK    2  A    between atoms: N_5  and  C_6 
REMARK    3  A    between atoms: C_6  and  N_7 
REMARK    4  A    between atoms: N_7  and  N_8 
REMARK       I    between atoms: N_8  and  C_9 
REMARK    5  A    between atoms: C_9  and  C_10 
REMARK    6  A    between atoms: C_10  and  O_11 
REMARK    7  A    between atoms: O_11  and  C_12 
REMARK    8  A    between atoms: C_23  and  C_24 
REMARK    9  A    between atoms: C_24  and  O_25 
REMARK   10  A    between atoms: C_28  and  C_29 
ROOT
HETATM    1  C   UNL     1       7.673   0.301   0.232  1.00  0.00     0.191 C 
HETATM    2  S   UNL     1       8.995   1.327   0.053  1.00  0.00    -0.039 SA
ENDROOT
BRANCH   1   3
HETATM    3  N   UNL     1       6.474   0.740  -0.258  1.00  0.00    -0.325 N 
HETATM    4  H   UNL     1       6.468   1.746  -0.396  1.00  0.00     0.169 HD
BRANCH   3   5
HETATM    5  C   UNL     1       5.224   0.173  -0.108  1.00  0.00     0.094 C 
HETATM    6  S   UNL     1       4.064   1.359   0.280  1.00  0.00    -0.075 SA
HETATM    7  C   UNL     1       2.834   0.196   0.496  1.00  0.00    -0.007 C 
HETATM    8  C   UNL     1       1.493   0.633   0.994  1.00  0.00     0.057 C 
HETATM    9  C   UNL     1       3.271  -1.069   0.137  1.00  0.00     0.006 C 
HETATM   10  C   UNL     1       4.659  -1.076  -0.299  1.00  0.00     0.085 C 
BRANCH   9  11
HETATM   11  C   UNL     1       2.390  -2.231   0.234  1.00  0.00    -0.024 A 
HETATM   12  C   UNL     1       2.679  -3.241   1.161  1.00  0.00     0.012 A 
HETATM   13  C   UNL     1       1.855  -4.365   1.253  1.00  0.00     0.001 A 
HETATM   14  C   UNL     1       0.742  -4.484   0.422  1.00  0.00     0.000 A 
HETATM   15  C   UNL     1       0.451  -3.482  -0.503  1.00  0.00     0.001 A 
HETATM   16  C   UNL     1       1.274  -2.358  -0.600  1.00  0.00     0.012 A 
ENDBRANCH   9  11
BRANCH  10  17
HETATM   17  C   UNL     1       5.330  -2.218  -0.913  1.00  0.00     0.296 C 
HETATM   18  O   UNL     1       6.509  -2.490  -0.730  1.00  0.00    -0.259 OA
BRANCH  17  19
HETATM   19  O   UNL     1       4.505  -2.924  -1.739  1.00  0.00    -0.322 OA
HETATM   20  C   UNL     1       5.116  -4.045  -2.374  1.00  0.00     0.213 C 
ENDBRANCH  17  19
ENDBRANCH  10  17
ENDBRANCH   3   5
ENDBRANCH   1   3
BRANCH   1  21
HETATM   21  N   UNL     1       7.708  -0.851   0.963  1.00  0.00    -0.273 N 
HETATM   22  H   UNL     1       7.029  -1.591   0.787  1.00  0.00     0.189 HD
BRANCH  21  23
HETATM   23  N   UNL     1       8.877  -1.291   1.605  1.00  0.00    -0.266 N 
HETATM   24  C   UNL     1       8.738  -2.132   2.697  1.00  0.00     0.265 C 
HETATM   25  O   UNL     1       7.631  -2.509   3.088  1.00  0.00    -0.269 OA
HETATM   26  H   UNL     1       9.746  -0.840   1.335  1.00  0.00     0.190 HD
BRANCH  24  27
HETATM   27  C   UNL     1      10.056  -2.510   3.403  1.00  0.00     0.218 C 
HETATM   28  C   UNL     1      11.129  -2.957   2.413  1.00  0.00     0.050 C 
BRANCH  27  29
HETATM   29  O   UNL     1       9.761  -3.614   4.271  1.00  0.00    -0.335 OA
BRANCH  29  30
HETATM   30  C   UNL     1      10.495  -3.704   5.421  1.00  0.00     0.091 A 
HETATM   31  C   UNL     1      11.096  -4.933   5.734  1.00  0.00     0.068 A 
HETATM   32 CL   UNL     1      11.014  -6.272   4.645  1.00  0.00    -0.081 Cl
HETATM   33  C   UNL     1      11.785  -5.100   6.936  1.00  0.00     0.046 A 
HETATM   34  C   UNL     1      11.860  -4.039   7.834  1.00  0.00     0.012 A 
HETATM   35 BR   UNL     1      12.778  -4.262   9.471  1.00  0.00    -0.051 Br
HETATM   36  C   UNL     1      11.249  -2.819   7.544  1.00  0.00     0.022 A 
HETATM   37  C   UNL     1      10.556  -2.654   6.341  1.00  0.00     0.040 A 
ENDBRANCH  29  30
ENDBRANCH  27  29
ENDBRANCH  24  27
ENDBRANCH  21  23
ENDBRANCH   1  21
TORSDOF 10
