REMARK  4 active torsions:
REMARK  status: ('A' for Active; 'I' for Inactive)
REMARK    1  A    between atoms: N_2  and  C_3 
REMARK    2  A    between atoms: C_5  and  C_6 
REMARK    3  A    between atoms: C_6  and  C_7 
REMARK    4  A    between atoms: C_13  and  O_14 
ROOT
HETATM    1  C   UNL     1       3.082  -0.365   2.942  1.00  0.00     0.113 A 
HETATM    2  N   UNL     1       2.798  -1.670   3.122  1.00  0.00    -0.223 NA
HETATM    3  C   UNL     1       3.615  -2.602   2.563  1.00  0.00     0.106 A 
HETATM    4  N   UNL     1       4.696  -2.286   1.832  1.00  0.00    -0.347 N 
HETATM    5  H   UNL     1       5.273  -3.014   1.417  1.00  0.00     0.167 HD
HETATM    6  C   UNL     1       4.991  -0.999   1.670  1.00  0.00     0.020 A 
HETATM    7  C   UNL     1       4.200  -0.007   2.224  1.00  0.00     0.005 A 
HETATM    8  C   UNL     1       4.742   1.344   1.883  1.00  0.00     0.044 C 
HETATM    9  C   UNL     1       6.176   0.991   1.443  1.00  0.00     0.011 C 
HETATM   10  C   UNL     1       6.134  -0.441   0.886  1.00  0.00     0.058 C 
ENDROOT
BRANCH   3  11
HETATM   11  C   UNL     1       3.251  -4.050   2.739  1.00  0.00     0.085 C 
BRANCH  11  12
HETATM   12  C   UNL     1       2.467  -4.603   1.544  1.00  0.00     0.021 C 
HETATM   13  C   UNL     1       1.076  -3.989   1.393  1.00  0.00     0.181 C 
HETATM   14  O   UNL     1       0.488  -4.405   0.161  1.00  0.00    -0.347 OA
HETATM   15  C   UNL     1       0.425  -5.762  -0.032  1.00  0.00     0.108 A 
HETATM   16  C   UNL     1       1.282  -6.632   0.674  1.00  0.00    -0.021 A 
HETATM   17  C   UNL     1      -0.473  -6.279  -0.980  1.00  0.00     0.102 A 
HETATM   18  C   UNL     1       2.272  -6.115   1.681  1.00  0.00     0.048 C 
HETATM   19  C   UNL     1       1.199  -8.016   0.463  1.00  0.00     0.010 A 
HETATM   20  C   UNL     1       0.297  -8.531  -0.461  1.00  0.00     0.003 A 
HETATM   21  C   UNL     1      -0.526  -7.666  -1.178  1.00  0.00     0.039 A 
BRANCH  17  22
HETATM   22  O   UNL     1      -1.358  -5.610  -1.781  1.00  0.00    -0.353 OA
HETATM   23  C   UNL     1      -1.453  -4.199  -1.681  1.00  0.00     0.210 C 
ENDBRANCH  17  22
ENDBRANCH  11  12
ENDBRANCH   3  11
BRANCH   1  24
HETATM   24  N   UNL     1       2.306   0.618   3.547  1.00  0.00    -0.281 NA
HETATM   25  C   UNL     1       1.126   0.159   4.265  1.00  0.00     0.114 C 
HETATM   26  H   UNL     1       2.085   1.379   2.910  1.00  0.00     0.128 HD
ENDBRANCH   1  24
TORSDOF 4
