REMARK  6 active torsions:
REMARK  status: ('A' for Active; 'I' for Inactive)
REMARK    1  A    between atoms: C_2  and  C_3 
REMARK    2  A    between atoms: C_7  and  O_8 
REMARK    3  A    between atoms: O_8  and  C_9 
REMARK    4  A    between atoms: C_9  and  C_10 
REMARK       I    between atoms: C_10  and  N_11 
REMARK    5  A    between atoms: N_11  and  N_12 
REMARK    6  A    between atoms: C_13  and  C_14 
ROOT
HETATM    1  C   UNL     1       3.335  -6.842  -4.117  1.00  0.00     0.261 C 
HETATM    2  N   UNL     1       3.556  -6.368  -5.388  1.00  0.00    -0.246 N 
HETATM    3  O   UNL     1       3.264  -8.058  -3.918  1.00  0.00    -0.269 OA
HETATM    4  H   UNL     1       3.698  -7.066  -6.111  1.00  0.00     0.192 HD
ENDROOT
BRANCH   2   5
HETATM    5  N   UNL     1       3.635  -5.040  -5.672  1.00  0.00    -0.184 NA
HETATM    6  C   UNL     1       3.860  -4.753  -6.914  1.00  0.00     0.152 C 
BRANCH   6   7
HETATM    7  C   UNL     1       3.994  -3.370  -7.317  1.00  0.00     0.011 A 
HETATM    8  C   UNL     1       4.116  -2.862  -8.651  1.00  0.00     0.004 A 
HETATM    9  C   UNL     1       4.234  -1.474  -8.560  1.00  0.00     0.043 A 
HETATM   10  C   UNL     1       4.135  -3.452  -9.934  1.00  0.00     0.014 A 
HETATM   11  C   UNL     1       4.372  -0.648  -9.682  1.00  0.00     0.030 A 
HETATM   12  N   UNL     1       4.188  -1.150  -7.223  1.00  0.00    -0.364 N 
HETATM   13  C   UNL     1       4.386  -1.259 -10.939  1.00  0.00     0.002 A 
HETATM   14  C   UNL     1       4.269  -2.640 -11.066  1.00  0.00     0.001 A 
HETATM   15  H   UNL     1       4.259  -0.210  -6.858  1.00  0.00     0.165 HD
HETATM   16  C   UNL     1       4.039  -2.280  -6.468  1.00  0.00     0.102 A 
ENDBRANCH   6   7
ENDBRANCH   2   5
BRANCH   1  17
HETATM   17  C   UNL     1       3.141  -5.820  -3.002  1.00  0.00     0.280 C 
BRANCH  17  18
HETATM   18  O   UNL     1       4.381  -5.207  -2.676  1.00  0.00    -0.341 OA
BRANCH  18  19
HETATM   19  C   UNL     1       4.348  -4.172  -1.778  1.00  0.00     0.086 A 
HETATM   20  C   UNL     1       5.465  -3.326  -1.733  1.00  0.00     0.044 A 
HETATM   21  C   UNL     1       5.526  -2.267  -0.820  1.00  0.00     0.029 A 
HETATM   22 BR   UNL     1       6.938  -3.564  -2.912  1.00  0.00    -0.048 Br
HETATM   23  C   UNL     1       4.469  -2.034   0.067  1.00  0.00    -0.057 A 
HETATM   24  C   UNL     1       3.357  -2.882   0.028  1.00  0.00     0.010 A 
HETATM   25  C   UNL     1       3.296  -3.941  -0.886  1.00  0.00     0.039 A 
BRANCH  23  26
HETATM   26  C   UNL     1       4.544  -0.917   1.076  1.00  0.00     0.034 C 
HETATM   27  C   UNL     1       5.180  -1.374   2.380  1.00  0.00     0.010 C 
ENDBRANCH  23  26
ENDBRANCH  18  19
ENDBRANCH  17  18
ENDBRANCH   1  17
TORSDOF 6
