REMARK  3 active torsions:
REMARK  status: ('A' for Active; 'I' for Inactive)
REMARK    1  A    between atoms: C_2  and  C_3 
REMARK    2  A    between atoms: C_8  and  C_9 
REMARK    3  A    between atoms: C_9  and  N_10 
ROOT
HETATM    1  C   UNL     1       4.077  -1.587   1.150  1.00  0.00     0.096 A 
HETATM    2  N   UNL     1       5.026  -0.664   0.945  1.00  0.00    -0.174 NA
HETATM    3  N   UNL     1       5.686  -1.064  -0.145  1.00  0.00    -0.288 N 
HETATM    4  H   UNL     1       6.483  -0.514  -0.456  1.00  0.00     0.188 HD
HETATM    5  C   UNL     1       5.151  -2.183  -0.707  1.00  0.00     0.120 A 
HETATM    6  C   UNL     1       4.095  -2.564   0.101  1.00  0.00     0.016 A 
ENDROOT
BRANCH   6   7
HETATM    7  C   UNL     1       3.204  -3.730  -0.125  1.00  0.00     0.277 C 
BRANCH   7   8
HETATM    8  N   UNL     1       1.740  -3.384  -0.327  1.00  0.00    -0.067 N 
HETATM    9  H   UNL     1       1.495  -2.812   0.494  1.00  0.00     0.280 HD
HETATM   10  C   UNL     1       0.832  -4.593  -0.277  1.00  0.00     0.242 C 
HETATM   11  C   UNL     1       0.965  -5.405  -1.560  1.00  0.00     0.041 C 
HETATM   12  C   UNL     1       0.663  -4.533  -2.782  1.00  0.00     0.128 C 
HETATM   13  C   UNL     1       0.047  -6.632  -1.575  1.00  0.00     0.011 C 
HETATM   14  O   UNL     1       0.891  -5.288  -3.970  1.00  0.00    -0.385 OA
HETATM   15  C   UNL     1       1.564  -3.303  -2.815  1.00  0.00     0.060 C 
HETATM   16  C   UNL     1       0.002  -6.404  -4.086  1.00  0.00     0.168 C 
HETATM   17  C   UNL     1       0.175  -7.363  -2.912  1.00  0.00     0.027 C 
HETATM   18  C   UNL     1       1.457  -2.509  -1.526  1.00  0.00     0.237 C 
ENDBRANCH   7   8
ENDBRANCH   6   7
BRANCH   1  19
HETATM   19  C   UNL     1       3.164  -1.452   2.290  1.00  0.00    -0.002 A 
HETATM   20  C   UNL     1       2.756  -0.173   2.703  1.00  0.00     0.017 A 
HETATM   21  C   UNL     1       1.866  -0.011   3.768  1.00  0.00     0.040 A 
HETATM   22  C   UNL     1       1.365  -1.129   4.426  1.00  0.00     0.102 A 
HETATM   23  C   UNL     1       1.790  -2.404   4.047  1.00  0.00     0.103 A 
HETATM   24  O   UNL     1       0.480  -0.899   5.443  1.00  0.00    -0.346 OA
HETATM   25  C   UNL     1       2.687  -2.567   2.990  1.00  0.00     0.053 A 
HETATM   26  O   UNL     1       1.356  -3.550   4.662  1.00  0.00    -0.346 OA
HETATM   27  C   UNL     1       0.792  -3.260   5.951  1.00  0.00     0.202 C 
HETATM   28  C   UNL     1      -0.184  -2.098   5.860  1.00  0.00     0.202 C 
ENDBRANCH   1  19
TORSDOF 3
