REMARK  11 active torsions:
REMARK  status: ('A' for Active; 'I' for Inactive)
REMARK    1  A    between atoms: O_2  and  C_3 
REMARK    2  A    between atoms: C_6  and  C_7 
REMARK    3  A    between atoms: C_7  and  C_8 
REMARK       I    between atoms: C_8  and  N_9 
REMARK    4  A    between atoms: N_9  and  C_10 
REMARK    5  A    between atoms: C_10  and  N_11 
REMARK    6  A    between atoms: N_11  and  C_12 
REMARK    7  A    between atoms: C_13  and  C_14 
REMARK       I    between atoms: C_14  and  N_15 
REMARK    8  A    between atoms: N_15  and  C_16 
REMARK    9  A    between atoms: C_16  and  C_17 
REMARK   10  A    between atoms: C_17  and  C_18 
REMARK   11  A    between atoms: C_18  and  O_19 
ROOT
HETATM    1  N   UNL     1       5.736   2.366  -3.398  1.00  0.00    -0.332 N 
HETATM    2  H   UNL     1       5.729   2.107  -2.408  1.00  0.00     0.168 HD
ENDROOT
BRANCH   1   3
HETATM    3  C   UNL     1       6.986   2.176  -3.962  1.00  0.00     0.178 C 
HETATM    4  S   UNL     1       7.630   2.828  -5.357  1.00  0.00    -0.040 SA
BRANCH   3   5
HETATM    5  N   UNL     1       7.840   1.375  -3.215  1.00  0.00    -0.303 N 
HETATM    6  C   UNL     1       7.713   1.011  -1.881  1.00  0.00     0.228 C 
HETATM    7  O   UNL     1       6.664   1.140  -1.250  1.00  0.00    -0.273 OA
HETATM    8  H   UNL     1       8.761   1.287  -3.631  1.00  0.00     0.171 HD
BRANCH   6   9
HETATM    9  C   UNL     1       8.950   0.384  -1.266  1.00  0.00     0.141 C 
BRANCH   9  10
HETATM   10  C   UNL     1      10.231   1.182  -1.389  1.00  0.00    -0.049 A 
HETATM   11  C   UNL     1      10.250   2.583  -1.454  1.00  0.00     0.010 A 
HETATM   12  C   UNL     1      11.461   3.282  -1.548  1.00  0.00     0.037 A 
HETATM   13  C   UNL     1      12.673   2.594  -1.542  1.00  0.00     0.068 A 
HETATM   14  C   UNL     1      12.662   1.203  -1.433  1.00  0.00     0.037 A 
HETATM   15  C   UNL     1      11.456   0.502  -1.357  1.00  0.00     0.010 A 
BRANCH  13  16
HETATM   16  O   UNL     1      13.918   3.152  -1.619  1.00  0.00    -0.356 OA
HETATM   17  C   UNL     1      13.982   4.554  -1.848  1.00  0.00     0.210 C 
ENDBRANCH  13  16
ENDBRANCH   9  10
ENDBRANCH   6   9
ENDBRANCH   3   5
ENDBRANCH   1   3
BRANCH   1  18
HETATM   18  C   UNL     1       4.761   3.336  -3.745  1.00  0.00     0.050 A 
HETATM   19  C   UNL     1       4.223   3.570  -5.023  1.00  0.00     0.058 A 
HETATM   20  C   UNL     1       3.329   4.641  -5.211  1.00  0.00     0.019 A 
HETATM   21  C   UNL     1       2.924   5.437  -4.140  1.00  0.00     0.001 A 
HETATM   22  C   UNL     1       3.393   5.158  -2.863  1.00  0.00     0.002 A 
HETATM   23  C   UNL     1       4.296   4.111  -2.667  1.00  0.00     0.030 A 
BRANCH  19  24
HETATM   24  C   UNL     1       4.378   2.674  -6.202  1.00  0.00     0.253 C 
HETATM   25  N   UNL     1       4.386   1.319  -5.939  1.00  0.00    -0.357 N 
HETATM   26  H   UNL     1       4.327   1.008  -4.978  1.00  0.00     0.162 HD
HETATM   27  O   UNL     1       4.385   3.139  -7.336  1.00  0.00    -0.268 OA
BRANCH  25  28
HETATM   28  C   UNL     1       4.444   0.337  -7.000  1.00  0.00     0.125 C 
BRANCH  28  29
HETATM   29  C   UNL     1       3.067  -0.141  -7.452  1.00  0.00     0.046 C 
BRANCH  29  30
HETATM   30  C   UNL     1       2.243   0.935  -8.148  1.00  0.00     0.165 C 
BRANCH  30  31
HETATM   31  O   UNL     1       1.042   0.354  -8.652  1.00  0.00    -0.401 OA
HETATM   32  H   UNL     1       1.288  -0.194  -9.416  1.00  0.00     0.209 HD
ENDBRANCH  30  31
ENDBRANCH  29  30
ENDBRANCH  28  29
ENDBRANCH  25  28
ENDBRANCH  19  24
ENDBRANCH   1  18
TORSDOF 11
