REMARK  4 active torsions:
REMARK  status: ('A' for Active; 'I' for Inactive)
REMARK    1  A    between atoms: C_6  and  C_7 
REMARK    2  A    between atoms: C_10  and  N_11 
REMARK       I    between atoms: N_11  and  C_12 
REMARK    3  A    between atoms: C_24  and  C_25 
REMARK       I    between atoms: C_25  and  N_26 
REMARK    4  A    between atoms: N_26  and  C_27 
ROOT
HETATM    1  C   UNL     1       1.022  -0.163  -0.992  1.00  0.00     0.070 C 
HETATM    2  C   UNL     1       2.414  -0.060  -0.422  1.00  0.00     0.037 C 
HETATM    3  N   UNL     1       3.009  -1.274  -0.087  1.00  0.00    -0.193 N 
HETATM    4  C   UNL     1       4.345  -1.427   0.021  1.00  0.00     0.709 A 
HETATM    5  N   UNL     1       5.139  -0.310   0.074  1.00  0.00    -0.165 N 
HETATM    6  C   UNL     1       4.591   1.053   0.135  1.00  0.00     0.182 C 
HETATM    7  N   UNL     1       5.053  -2.527   0.034  1.00  0.00    -0.062 NA
HETATM    8  C   UNL     1       6.364  -2.103   0.032  1.00  0.00     0.103 A 
HETATM    9  C   UNL     1       6.450  -0.711   0.041  1.00  0.00     0.082 A 
HETATM   10  C   UNL     1       7.544  -2.863   0.011  1.00  0.00     0.034 A 
HETATM   11  C   UNL     1       8.775  -2.196  -0.009  1.00  0.00     0.002 A 
HETATM   12  C   UNL     1       8.833  -0.801  -0.004  1.00  0.00     0.002 A 
HETATM   13  C   UNL     1       7.669  -0.025   0.024  1.00  0.00     0.032 A 
HETATM   14  C   UNL     1       3.134   1.086  -0.312  1.00  0.00     0.061 C 
HETATM   15  H   UNL     1       2.477  -2.118  -0.281  1.00  0.00     0.184 HD
ENDROOT
BRANCH   6  16
HETATM   16  C   UNL     1       4.807   1.599   1.547  1.00  0.00    -0.030 A 
HETATM   17  C   UNL     1       5.698   2.660   1.762  1.00  0.00     0.012 A 
HETATM   18  C   UNL     1       6.046   3.056   3.061  1.00  0.00     0.030 A 
HETATM   19  C   UNL     1       5.502   2.410   4.170  1.00  0.00     0.034 A 
HETATM   20  C   UNL     1       4.555   1.401   3.962  1.00  0.00     0.030 A 
HETATM   21  C   UNL     1       4.212   0.997   2.668  1.00  0.00     0.012 A 
BRANCH  19  22
HETATM   22  N   UNL     1       5.874   2.675   5.505  1.00  0.00    -0.328 N 
HETATM   23  C   UNL     1       6.859   3.540   5.948  1.00  0.00     0.218 C 
HETATM   24  C   UNL     1       7.049   3.466   7.443  1.00  0.00     0.117 C 
HETATM   25  O   UNL     1       7.527   4.311   5.268  1.00  0.00    -0.274 OA
HETATM   26  H   UNL     1       5.412   2.116   6.210  1.00  0.00     0.169 HD
ENDBRANCH  19  22
ENDBRANCH   6  16
BRANCH  14  27
HETATM   27  C   UNL     1       2.676   2.419  -0.797  1.00  0.00     0.256 C 
HETATM   28  N   UNL     1       1.412   2.771  -0.379  1.00  0.00    -0.323 N 
HETATM   29  H   UNL     1       0.968   2.172   0.303  1.00  0.00     0.169 HD
HETATM   30  O   UNL     1       3.438   3.086  -1.486  1.00  0.00    -0.267 OA
BRANCH  28  31
HETATM   31  C   UNL     1       0.619   3.827  -0.881  1.00  0.00     0.035 A 
HETATM   32  C   UNL     1       1.045   4.725  -1.863  1.00  0.00     0.029 A 
HETATM   33  C   UNL     1       0.176   5.704  -2.357  1.00  0.00     0.002 A 
HETATM   34  C   UNL     1      -1.127   5.793  -1.876  1.00  0.00     0.000 A 
HETATM   35  C   UNL     1      -1.561   4.908  -0.893  1.00  0.00     0.002 A 
HETATM   36  C   UNL     1      -0.691   3.933  -0.396  1.00  0.00     0.029 A 
ENDBRANCH  28  31
ENDBRANCH  14  27
TORSDOF 4
