REMARK  5 active torsions:
REMARK  status: ('A' for Active; 'I' for Inactive)
REMARK    1  A    between atoms: C_6  and  C_7 
REMARK    2  A    between atoms: C_7  and  C_8 
REMARK       I    between atoms: C_8  and  N_9 
REMARK    3  A    between atoms: N_9  and  C_10 
REMARK    4  A    between atoms: C_11  and  O_12 
REMARK    5  A    between atoms: O_12  and  C_13 
ROOT
HETATM    1  C   UNL     1       2.300  -2.007   0.376  1.00  0.00     0.069 A 
HETATM    2  C   UNL     1       1.076  -2.326  -0.229  1.00  0.00     0.102 A 
HETATM    3  C   UNL     1       0.112  -1.324  -0.451  1.00  0.00     0.039 A 
HETATM    4  C   UNL     1       0.369   0.002  -0.110  1.00  0.00     0.003 A 
HETATM    5  C   UNL     1       1.582   0.334   0.478  1.00  0.00     0.002 A 
HETATM    6  C   UNL     1       2.532  -0.661   0.722  1.00  0.00     0.032 A 
ENDROOT
BRANCH   1   7
HETATM    7  N   UNL     1       3.387  -2.871   0.643  1.00  0.00    -0.324 N 
HETATM    8  C   UNL     1       3.575  -4.215   0.368  1.00  0.00     0.228 C 
HETATM    9  O   UNL     1       2.726  -5.037   0.042  1.00  0.00    -0.273 OA
HETATM   10  H   UNL     1       4.210  -2.414   1.033  1.00  0.00     0.169 HD
BRANCH   8  11
HETATM   11  C   UNL     1       5.018  -4.671   0.570  1.00  0.00     0.164 C 
BRANCH  11  12
HETATM   12  C   UNL     1       5.991  -3.653   0.074  1.00  0.00     0.065 A 
HETATM   13  N   UNL     1       6.470  -2.721   0.912  1.00  0.00    -0.179 NA
HETATM   14  N   UNL     1       7.255  -1.957   0.133  1.00  0.00    -0.282 N 
HETATM   15  C   UNL     1       7.211  -2.302  -1.189  1.00  0.00     0.026 A 
HETATM   16  H   UNL     1       7.767  -1.194   0.565  1.00  0.00     0.189 HD
HETATM   17  C   UNL     1       7.907  -1.528  -2.240  1.00  0.00     0.070 C 
HETATM   18  C   UNL     1       6.421  -3.428  -1.253  1.00  0.00     0.055 A 
ENDBRANCH  11  12
ENDBRANCH   8  11
ENDBRANCH   1   7
BRANCH   2  19
HETATM   19  O   UNL     1       0.729  -3.615  -0.544  1.00  0.00    -0.308 OA
BRANCH  19  20
HETATM   20  C   UNL     1       0.512  -3.910  -1.873  1.00  0.00     0.082 A 
HETATM   21  C   UNL     1       1.270  -3.379  -2.919  1.00  0.00     0.079 A 
HETATM   22  C   UNL     1       1.004  -3.780  -4.225  1.00  0.00     0.122 A 
HETATM   23  F   UNL     1       1.728  -3.272  -5.230  1.00  0.00    -0.206 F 
HETATM   24  C   UNL     1       0.005  -4.705  -4.505  1.00  0.00     0.084 A 
HETATM   25  C   UNL     1      -0.726  -5.238  -3.453  1.00  0.00     0.122 A 
HETATM   26  F   UNL     1      -1.684  -6.139  -3.708  1.00  0.00    -0.206 F 
HETATM   27  C   UNL     1      -0.478  -4.856  -2.139  1.00  0.00     0.079 A 
ENDBRANCH  19  20
ENDBRANCH   2  19
TORSDOF 5
