REMARK  7 active torsions:
REMARK  status: ('A' for Active; 'I' for Inactive)
REMARK    1  A    between atoms: C_2  and  C_3 
REMARK    2  A    between atoms: C_2  and  C_9 
REMARK    3  A    between atoms: C_9  and  C_10 
REMARK       I    between atoms: C_10  and  N_11 
REMARK    4  A    between atoms: N_11  and  N_12 
REMARK       I    between atoms: N_12  and  C_13 
REMARK    5  A    between atoms: C_13  and  C_14 
REMARK    6  A    between atoms: C_18  and  C_19 
REMARK    7  A    between atoms: C_22  and  O_23 
ROOT
HETATM    1  N   UNL     1       4.763   0.912  -0.322  1.00  0.00    -0.262 N 
HETATM    2  C   UNL     1       5.527   2.052  -0.203  1.00  0.00     0.288 C 
HETATM    3  O   UNL     1       6.661   2.030   0.274  1.00  0.00    -0.264 OA
HETATM    4  H   UNL     1       3.829   0.893  -0.723  1.00  0.00     0.190 HD
ENDROOT
BRANCH   2   5
HETATM    5  C   UNL     1       4.907   3.258  -0.678  1.00  0.00     0.121 A 
HETATM    6  N   UNL     1       5.523   4.474  -0.584  1.00  0.00    -0.272 N 
HETATM    7  H   UNL     1       6.436   4.666  -0.183  1.00  0.00     0.189 HD
HETATM    8  N   UNL     1       4.814   5.490  -1.094  1.00  0.00    -0.174 NA
HETATM    9  C   UNL     1       3.680   4.929  -1.543  1.00  0.00     0.089 A 
HETATM   10  C   UNL     1       3.700   3.526  -1.294  1.00  0.00     0.071 A 
BRANCH   9  11
HETATM   11  C   UNL     1       2.631   5.720  -2.200  1.00  0.00    -0.005 A 
HETATM   12  C   UNL     1       2.865   7.055  -2.556  1.00  0.00     0.016 A 
HETATM   13  C   UNL     1       1.878   7.807  -3.202  1.00  0.00     0.037 A 
HETATM   14  C   UNL     1       0.639   7.244  -3.508  1.00  0.00     0.068 A 
HETATM   15  C   UNL     1       0.390   5.921  -3.149  1.00  0.00     0.037 A 
HETATM   16  C   UNL     1       1.378   5.166  -2.500  1.00  0.00     0.016 A 
BRANCH  14  17
HETATM   17  O   UNL     1      -0.231   8.082  -4.147  1.00  0.00    -0.356 OA
HETATM   18  C   UNL     1      -1.474   7.526  -4.559  1.00  0.00     0.210 C 
ENDBRANCH  14  17
ENDBRANCH   9  11
ENDBRANCH   2   5
BRANCH   1  19
HETATM   19  N   UNL     1       5.298  -0.320   0.059  1.00  0.00    -0.267 N 
HETATM   20  C   UNL     1       4.552  -1.452  -0.195  1.00  0.00     0.236 C 
HETATM   21  O   UNL     1       3.417  -1.395  -0.664  1.00  0.00    -0.272 OA
HETATM   22  H   UNL     1       6.260  -0.329   0.394  1.00  0.00     0.190 HD
BRANCH  20  23
HETATM   23  C   UNL     1       5.267  -2.735   0.177  1.00  0.00     0.113 C 
BRANCH  23  24
HETATM   24  C   UNL     1       4.481  -3.997  -0.218  1.00  0.00     0.023 C 
HETATM   25  C   UNL     1       4.475  -4.219  -1.737  1.00  0.00     0.015 C 
BRANCH  24  26
HETATM   26  C   UNL     1       5.040  -5.219   0.497  1.00  0.00    -0.054 A 
HETATM   27  C   UNL     1       6.352  -5.667   0.278  1.00  0.00     0.007 A 
HETATM   28  C   UNL     1       6.841  -6.793   0.945  1.00  0.00     0.001 A 
HETATM   29  C   UNL     1       6.026  -7.484   1.839  1.00  0.00     0.000 A 
HETATM   30  C   UNL     1       4.722  -7.050   2.067  1.00  0.00     0.001 A 
HETATM   31  C   UNL     1       4.232  -5.925   1.401  1.00  0.00     0.007 A 
ENDBRANCH  24  26
ENDBRANCH  23  24
ENDBRANCH  20  23
ENDBRANCH   1  19
TORSDOF 7
