REMARK  5 active torsions:
REMARK  status: ('A' for Active; 'I' for Inactive)
REMARK    1  A    between atoms: C_2  and  C_3 
REMARK       I    between atoms: C_3  and  N_4 
REMARK    2  A    between atoms: N_4  and  C_5 
REMARK    3  A    between atoms: C_5  and  C_6 
REMARK    4  A    between atoms: C_5  and  C_17 
REMARK    5  A    between atoms: C_7  and  O_8 
ROOT
HETATM    1  C   UNL     1       0.547   0.507   2.319  1.00  0.00     0.154 C 
ENDROOT
BRANCH   1   2
HETATM    2  N   UNL     1       0.494   1.514   1.273  1.00  0.00    -0.348 N 
HETATM    3  C   UNL     1       1.327   2.597   1.230  1.00  0.00     0.218 C 
HETATM    4  O   UNL     1       2.240   2.776   2.033  1.00  0.00    -0.274 OA
HETATM    5  H   UNL     1      -0.304   1.441   0.656  1.00  0.00     0.163 HD
BRANCH   3   6
HETATM    6  C   UNL     1       1.138   3.523   0.042  1.00  0.00     0.098 C 
HETATM    7  C   UNL     1      -0.305   3.786  -0.350  1.00  0.00     0.014 C 
ENDBRANCH   3   6
ENDBRANCH   1   2
BRANCH   1   8
HETATM    8  C   UNL     1       0.272  -0.860   1.702  1.00  0.00     0.005 A 
HETATM    9  C   UNL     1      -0.901  -1.142   0.985  1.00  0.00     0.103 A 
HETATM   10  C   UNL     1      -1.174  -2.394   0.436  1.00  0.00     0.100 A 
HETATM   11  C   UNL     1      -0.215  -3.412   0.594  1.00  0.00    -0.004 A 
HETATM   12  N   UNL     1      -2.336  -2.580  -0.229  1.00  0.00    -0.257 NA
HETATM   13  C   UNL     1       0.976  -3.152   1.293  1.00  0.00     0.014 A 
HETATM   14  C   UNL     1      -0.492  -4.664   0.031  1.00  0.00     0.015 A 
HETATM   15  C   UNL     1       1.213  -1.890   1.842  1.00  0.00     0.013 A 
HETATM   16  C   UNL     1      -1.687  -4.866  -0.651  1.00  0.00     0.020 A 
HETATM   17  C   UNL     1      -2.568  -3.805  -0.751  1.00  0.00     0.117 A 
BRANCH   9  18
HETATM   18  O   UNL     1      -1.828  -0.140   0.775  1.00  0.00    -0.358 OA
HETATM   19  H   UNL     1      -2.570  -0.604   0.326  1.00  0.00     0.218 HD
ENDBRANCH   9  18
ENDBRANCH   1   8
BRANCH   1  20
HETATM   20  C   UNL     1      -0.355   0.805   3.518  1.00  0.00    -0.031 A 
HETATM   21  C   UNL     1      -0.206   0.047   4.694  1.00  0.00     0.010 A 
HETATM   22  C   UNL     1      -1.014   0.278   5.811  1.00  0.00     0.007 A 
HETATM   23  C   UNL     1      -1.996   1.272   5.782  1.00  0.00    -0.062 A 
HETATM   24  C   UNL     1      -2.851   1.547   6.982  1.00  0.00     0.048 C 
HETATM   25  C   UNL     1      -2.144   2.039   4.623  1.00  0.00     0.007 A 
HETATM   26  C   UNL     1      -1.339   1.805   3.503  1.00  0.00     0.010 A 
ENDBRANCH   1  20
TORSDOF 5
