REMARK  6 active torsions:
REMARK  status: ('A' for Active; 'I' for Inactive)
REMARK    1  A    between atoms: C_2  and  O_4 
REMARK    2  A    between atoms: O_4  and  C_5 
REMARK    3  A    between atoms: C_9  and  N_10 
REMARK    4  A    between atoms: N_10  and  C_11 
REMARK    5  A    between atoms: N_14  and  C_17 
REMARK    6  A    between atoms: C_20  and  C_23 
ROOT
HETATM    1  C   UNL     1       6.644  -1.679  -0.189  1.00  0.00     0.176 C 
HETATM    2  C   UNL     1       7.702  -2.736  -0.468  1.00  0.00     0.055 C 
HETATM    3  C   UNL     1       7.169  -3.970   0.234  1.00  0.00     0.135 C 
HETATM    4  N   UNL     1       6.466  -3.460   1.387  1.00  0.00    -0.316 N 
HETATM    5  C   UNL     1       6.066  -2.132   1.159  1.00  0.00     0.247 C 
HETATM    6  O   UNL     1       5.349  -1.417   1.848  1.00  0.00    -0.271 OA
ENDROOT
BRANCH   4   7
HETATM    7  C   UNL     1       6.172  -4.250   2.534  1.00  0.00     0.037 A 
HETATM    8  C   UNL     1       5.501  -3.718   3.645  1.00  0.00     0.030 A 
HETATM    9  C   UNL     1       5.273  -4.481   4.798  1.00  0.00     0.016 A 
HETATM   10  C   UNL     1       5.744  -5.790   4.871  1.00  0.00    -0.005 A 
HETATM   11  C   UNL     1       6.366  -6.359   3.761  1.00  0.00     0.016 A 
HETATM   12  C   UNL     1       6.576  -5.595   2.605  1.00  0.00     0.030 A 
BRANCH  10  13
HETATM   13  C   UNL     1       5.545  -6.610   6.094  1.00  0.00     0.098 A 
HETATM   14  N   UNL     1       4.959  -7.760   5.935  1.00  0.00    -0.170 NA
HETATM   15  N   UNL     1       4.706  -8.518   7.034  1.00  0.00    -0.242 N 
HETATM   16  C   UNL     1       4.962  -8.166   8.336  1.00  0.00     0.272 A 
HETATM   17  H   UNL     1       4.218  -9.395   6.879  1.00  0.00     0.192 HD
HETATM   18  O   UNL     1       4.645  -8.876   9.283  1.00  0.00    -0.266 OA
HETATM   19  C   UNL     1       5.669  -6.892   8.535  1.00  0.00     0.046 A 
HETATM   20  C   UNL     1       6.037  -6.486   9.825  1.00  0.00     0.018 A 
HETATM   21  C   UNL     1       6.000  -6.119   7.424  1.00  0.00     0.011 A 
HETATM   22  C   UNL     1       6.759  -5.307  10.003  1.00  0.00     0.001 A 
HETATM   23  C   UNL     1       7.129  -4.548   8.893  1.00  0.00     0.001 A 
HETATM   24  C   UNL     1       6.761  -4.956   7.607  1.00  0.00     0.015 A 
ENDBRANCH  10  13
ENDBRANCH   4   7
BRANCH   1  25
HETATM   25  N   UNL     1       5.624  -1.704  -1.241  1.00  0.00    -0.377 N 
HETATM   26  H   UNL     1       4.676  -1.843  -0.889  1.00  0.00     0.160 HD
BRANCH  25  27
HETATM   27  C   UNL     1       5.668  -0.852  -2.344  1.00  0.00     0.031 A 
HETATM   28  C   UNL     1       6.706   0.048  -2.610  1.00  0.00     0.029 A 
HETATM   29  C   UNL     1       6.709   0.830  -3.770  1.00  0.00     0.005 A 
HETATM   30  C   UNL     1       5.698   0.682  -4.714  1.00  0.00     0.037 A 
HETATM   31  C   UNL     1       4.690  -0.255  -4.506  1.00  0.00     0.077 A 
HETATM   32  C   UNL     1       4.666  -0.994  -3.318  1.00  0.00     0.066 A 
BRANCH  31  33
HETATM   33  O   UNL     1       3.763  -0.356  -5.506  1.00  0.00    -0.290 OA
BRANCH  33  34
HETATM   34  C   UNL     1       3.267  -1.670  -5.713  1.00  0.00     0.505 C 
HETATM   35  F   UNL     1       2.259  -1.904  -4.837  1.00  0.00    -0.184 F 
HETATM   36  F   UNL     1       2.718  -1.704  -6.954  1.00  0.00    -0.184 F 
ENDBRANCH  33  34
ENDBRANCH  31  33
ENDBRANCH  25  27
ENDBRANCH   1  25
TORSDOF 6
