REMARK  4 active torsions:
REMARK  status: ('A' for Active; 'I' for Inactive)
REMARK    1  A    between atoms: C_4  and  C_5 
REMARK    2  A    between atoms: C_7  and  C_8 
REMARK       I    between atoms: C_8  and  N_9 
REMARK    3  A    between atoms: N_9  and  C_10 
REMARK    4  A    between atoms: C_13  and  N_14 
ROOT
HETATM    1  C   UNL     1       6.102   5.513   0.090  1.00  0.00     0.252 C 
HETATM    2  N   UNL     1       7.308   5.793  -0.516  1.00  0.00    -0.352 N 
HETATM    3  O   UNL     1       5.318   6.381   0.454  1.00  0.00    -0.268 OA
HETATM    4  H   UNL     1       7.810   5.011  -0.921  1.00  0.00     0.163 HD
ENDROOT
BRANCH   1   5
HETATM    5  C   UNL     1       5.741   4.074   0.268  1.00  0.00     0.032 A 
HETATM    6  C   UNL     1       6.691   3.042   0.257  1.00  0.00     0.031 A 
HETATM    7  C   UNL     1       6.301   1.703   0.430  1.00  0.00    -0.001 A 
HETATM    8  C   UNL     1       4.944   1.417   0.636  1.00  0.00     0.014 A 
HETATM    9  C   UNL     1       3.994   2.438   0.663  1.00  0.00     0.002 A 
HETATM   10  C   UNL     1       4.392   3.762   0.480  1.00  0.00     0.017 A 
BRANCH   7  11
HETATM   11  C   UNL     1       7.283   0.625   0.397  1.00  0.00     0.086 A 
HETATM   12  O   UNL     1       8.447   0.888  -0.272  1.00  0.00    -0.315 OA
HETATM   13  C   UNL     1       9.205  -0.244  -0.231  1.00  0.00     0.050 A 
HETATM   14  C   UNL     1      10.508  -0.198  -0.923  1.00  0.00     0.076 C 
HETATM   15  C   UNL     1       8.551  -1.226   0.479  1.00  0.00     0.035 A 
HETATM   16  C   UNL     1       7.312  -0.669   0.879  1.00  0.00     0.040 A 
ENDBRANCH   7  11
ENDBRANCH   1   5
BRANCH   2  17
HETATM   17  C   UNL     1       7.856   7.111  -0.817  1.00  0.00     0.084 C 
HETATM   18  C   UNL     1       7.099   7.858  -1.921  1.00  0.00     0.027 C 
HETATM   19  C   UNL     1       5.859   8.611  -1.445  1.00  0.00     0.035 C 
HETATM   20  C   UNL     1       6.085   9.456  -0.191  1.00  0.00     0.183 C 
HETATM   21  C   UNL     1       6.910   8.794   0.912  1.00  0.00     0.035 C 
HETATM   22  C   UNL     1       8.114   7.995   0.411  1.00  0.00     0.027 C 
BRANCH  20  23
HETATM   23  N   UNL     1       6.786  10.715  -0.600  1.00  0.00    -0.075 N 
HETATM   24  H   UNL     1       7.722  10.541  -0.985  1.00  0.00     0.274 HD
HETATM   25  H   UNL     1       6.243  11.223  -1.311  1.00  0.00     0.274 HD
HETATM   26  H   UNL     1       6.891  11.351   0.202  1.00  0.00     0.274 HD
ENDBRANCH  20  23
ENDBRANCH   2  17
TORSDOF 4
