REMARK  6 active torsions:
REMARK  status: ('A' for Active; 'I' for Inactive)
REMARK    1  A    between atoms: C_4  and  C_5 
REMARK    2  A    between atoms: C_5  and  N_6 
REMARK    3  A    between atoms: C_9  and  C_10 
REMARK       I    between atoms: C_10  and  N_11 
REMARK    4  A    between atoms: N_11  and  N_12 
REMARK    5  A    between atoms: C_13  and  C_14 
REMARK    6  A    between atoms: C_15  and  O_16 
ROOT
HETATM    1  C   UNL     1       5.330  -5.147  -0.791  1.00  0.00     0.271 C 
HETATM    2  N   UNL     1       6.663  -5.057  -1.161  1.00  0.00    -0.243 N 
HETATM    3  O   UNL     1       4.717  -6.204  -0.669  1.00  0.00    -0.266 OA
HETATM    4  H   UNL     1       7.188  -4.193  -1.183  1.00  0.00     0.192 HD
ENDROOT
BRANCH   2   5
HETATM    5  N   UNL     1       7.301  -6.215  -1.487  1.00  0.00    -0.183 NA
HETATM    6  C   UNL     1       8.544  -6.137  -1.852  1.00  0.00     0.153 C 
BRANCH   6   7
HETATM    7  C   UNL     1       9.300  -7.357  -2.243  1.00  0.00     0.027 A 
HETATM    8  C   UNL     1       8.688  -8.617  -2.100  1.00  0.00     0.078 A 
HETATM    9  C   UNL     1       9.361  -9.778  -2.453  1.00  0.00     0.038 A 
HETATM   10  C   UNL     1      10.653  -9.700  -2.960  1.00  0.00     0.015 A 
HETATM   11  C   UNL     1      11.292  -8.463  -3.121  1.00  0.00    -0.025 A 
HETATM   12  C   UNL     1      10.627  -7.257  -2.765  1.00  0.00    -0.012 A 
HETATM   13  C   UNL     1      12.594  -8.431  -3.643  1.00  0.00     0.012 A 
HETATM   14  C   UNL     1      11.348  -6.049  -2.968  1.00  0.00     0.013 A 
HETATM   15  C   UNL     1      12.645  -6.036  -3.489  1.00  0.00     0.001 A 
HETATM   16  C   UNL     1      13.268  -7.227  -3.827  1.00  0.00     0.001 A 
BRANCH   8  17
HETATM   17  O   UNL     1       7.420  -8.807  -1.616  1.00  0.00    -0.360 OA
HETATM   18  H   UNL     1       7.009  -7.931  -1.443  1.00  0.00     0.217 HD
ENDBRANCH   8  17
ENDBRANCH   6   7
ENDBRANCH   2   5
BRANCH   1  19
HETATM   19  C   UNL     1       4.579  -3.884  -0.537  1.00  0.00     0.036 A 
HETATM   20  C   UNL     1       5.013  -2.620  -0.930  1.00  0.00     0.034 A 
HETATM   21  C   UNL     1       4.184  -1.518  -0.718  1.00  0.00     0.091 A 
HETATM   22  N   UNL     1       2.965  -1.662  -0.147  1.00  0.00    -0.362 N 
HETATM   23  C   UNL     1       2.531  -2.879   0.251  1.00  0.00     0.091 A 
HETATM   24  C   UNL     1       3.324  -4.002   0.069  1.00  0.00     0.034 A 
BRANCH  22  25
HETATM   25  C   UNL     1       2.069  -0.483  -0.010  1.00  0.00     0.166 C 
BRANCH  25  26
HETATM   26  C   UNL     1       2.528   0.458   1.072  1.00  0.00    -0.040 A 
HETATM   27  C   UNL     1       2.591   1.837   0.813  1.00  0.00     0.009 A 
HETATM   28  C   UNL     1       2.964   2.732   1.818  1.00  0.00     0.001 A 
HETATM   29  C   UNL     1       3.271   2.263   3.091  1.00  0.00     0.000 A 
HETATM   30  C   UNL     1       3.203   0.899   3.366  1.00  0.00     0.001 A 
HETATM   31  C   UNL     1       2.828   0.000   2.365  1.00  0.00     0.009 A 
ENDBRANCH  25  26
ENDBRANCH  22  25
ENDBRANCH   1  19
TORSDOF 6
