REMARK  9 active torsions:
REMARK  status: ('A' for Active; 'I' for Inactive)
REMARK    1  A    between atoms: C_2  and  N_3 
REMARK    2  A    between atoms: C_2  and  C_23 
REMARK       I    between atoms: N_3  and  C_4 
REMARK       I    between atoms: C_4  and  N_5 
REMARK    3  A    between atoms: N_5  and  C_6 
REMARK    4  A    between atoms: C_6  and  C_7 
REMARK    5  A    between atoms: C_7  and  N_8 
REMARK    6  A    between atoms: C_7  and  C_14 
REMARK    7  A    between atoms: C_15  and  O_16 
REMARK    8  A    between atoms: C_23  and  C_24 
REMARK    9  A    between atoms: C_27  and  O_28 
ROOT
HETATM    1  N   UNL     1      -2.046  -5.828   3.022  1.00  0.00    -0.339 N 
HETATM    2  C   UNL     1      -1.171  -4.908   2.567  1.00  0.00     0.316 C 
HETATM    3  N   UNL     1      -1.615  -3.624   2.512  1.00  0.00    -0.341 N 
HETATM    4  O   UNL     1      -0.009  -5.203   2.296  1.00  0.00    -0.248 OA
HETATM    5  H   UNL     1      -1.681  -6.774   3.005  1.00  0.00     0.164 HD
HETATM    6  H   UNL     1      -2.602  -3.549   2.296  1.00  0.00     0.164 HD
ENDROOT
BRANCH   3   7
HETATM    7  C   UNL     1      -0.770  -2.583   1.944  1.00  0.00     0.162 C 
BRANCH   7   8
HETATM    8  C   UNL     1       0.380  -2.025   2.853  1.00  0.00     0.241 C 
BRANCH   8   9
HETATM    9  N   UNL     1       1.184  -3.148   3.526  1.00  0.00    -0.061 N 
HETATM   10  H   UNL     1       1.060  -3.971   2.903  1.00  0.00     0.280 HD
HETATM   11  C   UNL     1       0.750  -3.631   4.888  1.00  0.00     0.236 C 
HETATM   12  C   UNL     1       1.664  -2.902   5.846  1.00  0.00     0.029 C 
HETATM   13  C   UNL     1       2.995  -2.892   5.122  1.00  0.00     0.029 C 
HETATM   14  C   UNL     1       2.664  -2.867   3.636  1.00  0.00     0.236 C 
ENDBRANCH   8   9
BRANCH   8  15
HETATM   15  C   UNL     1      -0.068  -0.890   3.767  1.00  0.00     0.007 A 
HETATM   16  C   UNL     1       0.679   0.306   3.846  1.00  0.00     0.076 A 
HETATM   17  C   UNL     1       0.275   1.330   4.710  1.00  0.00     0.037 A 
HETATM   18  C   UNL     1      -0.882   1.195   5.476  1.00  0.00     0.003 A 
HETATM   19  C   UNL     1      -1.644   0.037   5.385  1.00  0.00     0.001 A 
HETATM   20  C   UNL     1      -1.243  -0.995   4.537  1.00  0.00     0.012 A 
BRANCH  16  21
HETATM   21  O   UNL     1       1.801   0.378   3.062  1.00  0.00    -0.355 OA
HETATM   22  C   UNL     1       2.277   1.688   2.752  1.00  0.00     0.210 C 
ENDBRANCH  16  21
ENDBRANCH   8  15
ENDBRANCH   7   8
ENDBRANCH   3   7
BRANCH   1  23
HETATM   23  C   UNL     1      -3.355  -5.625   3.655  1.00  0.00     0.086 C 
HETATM   24  C   UNL     1      -4.462  -5.863   2.633  1.00  0.00     0.032 C 
BRANCH  23  25
HETATM   25  C   UNL     1      -3.528  -6.548   4.879  1.00  0.00     0.063 C 
BRANCH  25  26
HETATM   26  C   UNL     1      -2.526  -6.241   5.972  1.00  0.00    -0.056 A 
HETATM   27  C   UNL     1      -2.766  -5.208   6.890  1.00  0.00     0.010 A 
HETATM   28  C   UNL     1      -1.827  -4.909   7.881  1.00  0.00     0.037 A 
HETATM   29  C   UNL     1      -0.646  -5.638   7.946  1.00  0.00     0.065 A 
HETATM   30  C   UNL     1      -0.389  -6.663   7.045  1.00  0.00     0.037 A 
HETATM   31  C   UNL     1      -1.330  -6.970   6.062  1.00  0.00     0.010 A 
BRANCH  29  32
HETATM   32  O   UNL     1       0.302  -5.368   8.886  1.00  0.00    -0.361 OA
HETATM   33  H   UNL     1      -0.118  -4.889   9.621  1.00  0.00     0.217 HD
ENDBRANCH  29  32
ENDBRANCH  25  26
ENDBRANCH  23  25
ENDBRANCH   1  23
TORSDOF 9
