REMARK  6 active torsions:
REMARK  status: ('A' for Active; 'I' for Inactive)
REMARK    1  A    between atoms: C_6  and  C_7 
REMARK    2  A    between atoms: C_7  and  C_8 
REMARK       I    between atoms: C_8  and  N_9 
REMARK    3  A    between atoms: N_9  and  C_10 
REMARK    4  A    between atoms: C_12  and  C_13 
REMARK       I    between atoms: C_13  and  N_14 
REMARK    5  A    between atoms: N_14  and  C_15 
REMARK    6  A    between atoms: C_15  and  C_16 
ROOT
HETATM    1  C   UNL     1       2.748  -2.837   0.089  1.00  0.00     0.035 A 
HETATM    2  C   UNL     1       1.452  -3.026  -0.407  1.00  0.00     0.046 A 
HETATM    3  C   UNL     1       0.467  -2.045  -0.212  1.00  0.00     0.034 A 
HETATM    4  C   UNL     1       0.797  -0.876   0.491  1.00  0.00     0.017 A 
HETATM    5  C   UNL     1       2.081  -0.687   0.995  1.00  0.00     0.003 A 
HETATM    6  C   UNL     1       3.050  -1.666   0.796  1.00  0.00     0.029 A 
ENDROOT
BRANCH   1   7
HETATM    7  N   UNL     1       3.792  -3.768  -0.057  1.00  0.00    -0.327 N 
HETATM    8  C   UNL     1       3.818  -4.928  -0.807  1.00  0.00     0.227 C 
HETATM    9  O   UNL     1       2.894  -5.349  -1.503  1.00  0.00    -0.273 OA
HETATM   10  H   UNL     1       4.684  -3.530   0.385  1.00  0.00     0.169 HD
BRANCH   8  11
HETATM   11  C   UNL     1       5.088  -5.755  -0.634  1.00  0.00     0.164 C 
BRANCH  11  12
HETATM   12  C   UNL     1       6.353  -4.957  -0.604  1.00  0.00     0.065 A 
HETATM   13  N   UNL     1       6.547  -4.008   0.328  1.00  0.00    -0.179 NA
HETATM   14  N   UNL     1       7.787  -3.551   0.075  1.00  0.00    -0.282 N 
HETATM   15  C   UNL     1       8.394  -4.172  -0.979  1.00  0.00     0.026 A 
HETATM   16  H   UNL     1       8.162  -2.818   0.669  1.00  0.00     0.189 HD
HETATM   17  C   UNL     1       9.766  -3.834  -1.421  1.00  0.00     0.070 C 
HETATM   18  C   UNL     1       7.481  -5.089  -1.448  1.00  0.00     0.055 A 
ENDBRANCH  11  12
ENDBRANCH   8  11
ENDBRANCH   1   7
BRANCH   3  19
HETATM   19  C   UNL     1      -0.946  -2.179  -0.685  1.00  0.00     0.252 C 
HETATM   20  N   UNL     1      -1.290  -3.287  -1.430  1.00  0.00    -0.353 N 
HETATM   21  H   UNL     1      -0.582  -3.889  -1.825  1.00  0.00     0.163 HD
HETATM   22  O   UNL     1      -1.762  -1.305  -0.402  1.00  0.00    -0.268 OA
BRANCH  20  23
HETATM   23  C   UNL     1      -2.633  -3.413  -1.958  1.00  0.00     0.161 C 
BRANCH  23  24
HETATM   24  C   UNL     1      -3.037  -4.840  -2.232  1.00  0.00    -0.041 A 
HETATM   25  C   UNL     1      -2.680  -5.885  -1.366  1.00  0.00     0.009 A 
HETATM   26  C   UNL     1      -3.127  -7.187  -1.601  1.00  0.00     0.001 A 
HETATM   27  C   UNL     1      -3.951  -7.458  -2.691  1.00  0.00     0.000 A 
HETATM   28  C   UNL     1      -4.329  -6.428  -3.548  1.00  0.00     0.001 A 
HETATM   29  C   UNL     1      -3.878  -5.126  -3.319  1.00  0.00     0.009 A 
ENDBRANCH  23  24
ENDBRANCH  20  23
ENDBRANCH   3  19
TORSDOF 6
