REMARK  4 active torsions:
REMARK  status: ('A' for Active; 'I' for Inactive)
REMARK    1  A    between atoms: C_5  and  C_6 
REMARK    2  A    between atoms: C_7  and  C_8 
REMARK       I    between atoms: C_8  and  N_9 
REMARK    3  A    between atoms: N_9  and  C_10 
REMARK    4  A    between atoms: C_17  and  C_18 
REMARK       I    between atoms: C_18  and  N_19 
ROOT
HETATM    1  C   UNL     1       2.659  -4.976   0.003  1.00  0.00     0.245 C 
HETATM    2  N   UNL     1       1.422  -5.587   0.012  1.00  0.00    -0.324 N 
HETATM    3  O   UNL     1       3.756  -5.516   0.038  1.00  0.00    -0.268 OA
HETATM    4  H   UNL     1       0.611  -4.983   0.013  1.00  0.00     0.169 HD
ENDROOT
BRANCH   2   5
HETATM    5  C   UNL     1       1.151  -6.971   0.096  1.00  0.00     0.035 A 
HETATM    6  C   UNL     1       2.143  -7.961   0.108  1.00  0.00     0.046 A 
HETATM    7  C   UNL     1       1.773  -9.320   0.221  1.00  0.00     0.030 A 
HETATM    8  C   UNL     1       0.425  -9.642   0.315  1.00  0.00     0.063 A 
HETATM    9  C   UNL     1       2.456 -10.573   0.271  1.00  0.00     0.156 A 
HETATM   10  N   UNL     1       0.383 -11.004   0.420  1.00  0.00    -0.277 N 
HETATM   11  C   UNL     1      -0.590  -8.685   0.296  1.00  0.00     0.034 A 
HETATM   12  H   UNL     1      -0.441 -11.587   0.511  1.00  0.00     0.189 HD
HETATM   13  N   UNL     1       1.585 -11.601   0.397  1.00  0.00    -0.168 NA
HETATM   14  C   UNL     1      -0.198  -7.345   0.182  1.00  0.00     0.032 A 
BRANCH   9  15
HETATM   15  C   UNL     1       3.905 -10.810   0.205  1.00  0.00     0.270 C 
HETATM   16  N   UNL     1       4.260 -12.129   0.293  1.00  0.00    -0.365 N 
HETATM   17  H   UNL     1       3.528 -12.822   0.393  1.00  0.00     0.159 HD
HETATM   18  H   UNL     1       5.233 -12.387   0.254  1.00  0.00     0.159 HD
HETATM   19  O   UNL     1       4.753  -9.933   0.080  1.00  0.00    -0.266 OA
ENDBRANCH   9  15
ENDBRANCH   2   5
BRANCH   1  20
HETATM   20  C   UNL     1       2.540  -3.491  -0.017  1.00  0.00     0.075 C 
HETATM   21  C   UNL     1       3.597  -2.743   0.335  1.00  0.00     0.018 C 
BRANCH  21  22
HETATM   22  C   UNL     1       3.583  -1.269   0.366  1.00  0.00    -0.025 A 
HETATM   23  C   UNL     1       4.627  -0.501  -0.226  1.00  0.00    -0.016 A 
HETATM   24  C   UNL     1       4.589   0.912  -0.098  1.00  0.00    -0.025 A 
HETATM   25  C   UNL     1       5.709  -1.062  -0.946  1.00  0.00     0.013 A 
HETATM   26  C   UNL     1       5.608   1.698  -0.661  1.00  0.00     0.012 A 
HETATM   27  C   UNL     1       3.534   1.524   0.596  1.00  0.00     0.012 A 
HETATM   28  C   UNL     1       6.666   1.113  -1.355  1.00  0.00     0.001 A 
HETATM   29  C   UNL     1       6.715  -0.267  -1.500  1.00  0.00     0.001 A 
HETATM   30  C   UNL     1       2.521   0.764   1.172  1.00  0.00     0.002 A 
HETATM   31  C   UNL     1       2.549  -0.623   1.063  1.00  0.00     0.012 A 
ENDBRANCH  21  22
ENDBRANCH   1  20
TORSDOF 4
