REMARK  13 active torsions:
REMARK  status: ('A' for Active; 'I' for Inactive)
REMARK    1  A    between atoms: C_2  and  O_3 
REMARK    2  A    between atoms: O_3  and  C_4 
REMARK    3  A    between atoms: C_5  and  O_6 
REMARK    4  A    between atoms: C_9  and  C_10 
REMARK    5  A    between atoms: N_11  and  C_12 
REMARK    6  A    between atoms: C_12  and  C_13 
REMARK    7  A    between atoms: C_13  and  N_14 
REMARK    8  A    between atoms: C_23  and  O_24 
REMARK    9  A    between atoms: C_25  and  C_26 
REMARK   10  A    between atoms: C_26  and  C_27 
REMARK   11  A    between atoms: C_31  and  O_32 
REMARK   12  A    between atoms: O_32  and  C_33 
REMARK   13  A    between atoms: C_33  and  C_34 
ROOT
HETATM    1  C   UNL     1       6.860  -4.422  -1.713  1.00  0.00     0.161 A 
HETATM    2  N   UNL     1       6.116  -5.658  -1.510  1.00  0.00    -0.332 N 
HETATM    3  C   UNL     1       6.570  -6.312  -0.374  1.00  0.00     0.278 A 
HETATM    4  O   UNL     1       6.216  -7.407   0.023  1.00  0.00    -0.265 OA
HETATM    5  C   UNL     1       7.628  -5.486   0.240  1.00  0.00     0.146 A 
HETATM    6  C   UNL     1       7.816  -4.431  -0.562  1.00  0.00     0.059 A 
ENDROOT
BRANCH   6   7
HETATM    7  C   UNL     1       8.844  -3.385  -0.338  1.00  0.00     0.194 C 
HETATM    8  O   UNL     1       9.316  -3.155   0.767  1.00  0.00    -0.287 OA
BRANCH   7   9
HETATM    9  C   UNL     1       9.245  -2.554  -1.503  1.00  0.00     0.021 A 
HETATM   10  C   UNL     1       9.153  -1.152  -1.452  1.00  0.00    -0.045 A 
HETATM   11  C   UNL     1       8.785  -0.414  -0.195  1.00  0.00     0.049 C 
HETATM   12  C   UNL     1       9.449  -0.421  -2.613  1.00  0.00     0.044 A 
HETATM   13  C   UNL     1       9.810  -1.062  -3.801  1.00  0.00     0.069 A 
HETATM   14  C   UNL     1       9.973  -2.444  -3.821  1.00  0.00     0.038 A 
HETATM   15  C   UNL     1       9.701  -3.189  -2.670  1.00  0.00     0.019 A 
BRANCH  13  16
HETATM   16  O   UNL     1      10.020  -0.234  -4.866  1.00  0.00    -0.347 OA
BRANCH  16  17
HETATM   17  C   UNL     1       9.718  -0.777  -6.154  1.00  0.00     0.214 C 
BRANCH  17  18
HETATM   18  C   UNL     1       9.372   0.326  -7.130  1.00  0.00    -0.034 A 
HETATM   19  C   UNL     1       9.432   0.071  -8.509  1.00  0.00     0.009 A 
HETATM   20  C   UNL     1       9.078   1.058  -9.432  1.00  0.00     0.001 A 
HETATM   21  C   UNL     1       8.654   2.309  -8.990  1.00  0.00     0.000 A 
HETATM   22  C   UNL     1       8.579   2.573  -7.625  1.00  0.00     0.001 A 
HETATM   23  C   UNL     1       8.930   1.587  -6.701  1.00  0.00     0.009 A 
ENDBRANCH  17  18
ENDBRANCH  16  17
ENDBRANCH  13  16
ENDBRANCH   7   9
ENDBRANCH   6   7
BRANCH   1  24
HETATM   24  C   UNL     1       5.890  -3.254  -1.740  1.00  0.00    -0.028 A 
HETATM   25  C   UNL     1       5.070  -2.965  -0.631  1.00  0.00     0.012 A 
HETATM   26  C   UNL     1       4.133  -1.937  -0.690  1.00  0.00     0.040 A 
HETATM   27  C   UNL     1       4.020  -1.190  -1.853  1.00  0.00     0.099 A 
HETATM   28  C   UNL     1       4.842  -1.424  -2.958  1.00  0.00     0.102 A 
HETATM   29  C   UNL     1       5.774  -2.462  -2.900  1.00  0.00     0.049 A 
BRANCH  27  30
HETATM   30  O   UNL     1       3.070  -0.209  -1.891  1.00  0.00    -0.358 OA
HETATM   31  H   UNL     1       3.210   0.272  -2.731  1.00  0.00     0.218 HD
ENDBRANCH  27  30
BRANCH  28  32
HETATM   32  O   UNL     1       4.610  -0.611  -4.034  1.00  0.00    -0.349 OA
BRANCH  32  33
HETATM   33  C   UNL     1       5.628  -0.548  -5.034  1.00  0.00     0.171 C 
HETATM   34  C   UNL     1       5.244   0.544  -6.016  1.00  0.00     0.034 C 
ENDBRANCH  32  33
ENDBRANCH  28  32
ENDBRANCH   1  24
BRANCH   5  35
HETATM   35  O   UNL     1       8.308  -5.853   1.359  1.00  0.00    -0.355 OA
HETATM   36  H   UNL     1       7.943  -6.707   1.662  1.00  0.00     0.218 HD
ENDBRANCH   5  35
BRANCH   2  37
HETATM   37  C   UNL     1       5.606  -6.433  -2.636  1.00  0.00     0.155 C 
BRANCH  37  38
HETATM   38  C   UNL     1       4.241  -7.091  -2.374  1.00  0.00     0.255 C 
BRANCH  38  39
HETATM   39  N   UNL     1       3.165  -6.060  -2.070  1.00  0.00    -0.066 N 
HETATM   40  H   UNL     1       3.543  -5.436  -1.341  1.00  0.00     0.280 HD
HETATM   41  C   UNL     1       2.784  -5.203  -3.275  1.00  0.00     0.261 C 
HETATM   42  C   UNL     1       1.629  -4.262  -2.919  1.00  0.00     0.195 C 
HETATM   43  O   UNL     1       0.501  -5.005  -2.450  1.00  0.00    -0.388 OA
HETATM   44  C   UNL     1       0.813  -5.717  -1.248  1.00  0.00     0.195 C 
HETATM   45  C   UNL     1       1.922  -6.743  -1.496  1.00  0.00     0.261 C 
ENDBRANCH  38  39
ENDBRANCH  37  38
ENDBRANCH   2  37
TORSDOF 13
