REMARK  4 active torsions:
REMARK  status: ('A' for Active; 'I' for Inactive)
REMARK    1  A    between atoms: C_5  and  C_6 
REMARK    2  A    between atoms: C_6  and  N_7 
REMARK       I    between atoms: N_7  and  C_8 
REMARK    3  A    between atoms: C_8  and  C_10 
REMARK    4  A    between atoms: C_16  and  C_20 
ROOT
HETATM    1  C   UNL     1       9.009  -2.864  -1.037  1.00  0.00     0.059 A 
HETATM    2  C   UNL     1      10.334  -3.263  -1.093  1.00  0.00     0.106 A 
HETATM    3  N   UNL     1      10.387  -4.626  -1.054  1.00  0.00    -0.364 N 
HETATM    4  H   UNL     1      11.234  -5.177  -1.074  1.00  0.00     0.165 HD
HETATM    5  C   UNL     1       9.115  -5.146  -1.004  1.00  0.00     0.044 A 
HETATM    6  C   UNL     1       8.699  -6.486  -0.960  1.00  0.00     0.042 A 
HETATM    7  C   UNL     1       7.323  -6.761  -0.954  1.00  0.00    -0.021 A 
HETATM    8  C   UNL     1       6.412  -5.701  -1.000  1.00  0.00     0.013 A 
HETATM    9  C   UNL     1       6.844  -4.366  -1.041  1.00  0.00     0.016 A 
HETATM   10  C   UNL     1       8.224  -4.070  -1.022  1.00  0.00     0.008 A 
ENDROOT
BRANCH   1  11
HETATM   11  C   UNL     1       8.604  -1.460  -1.022  1.00  0.00     0.254 C 
HETATM   12  N   UNL     1       7.415  -1.208  -0.380  1.00  0.00    -0.353 N 
HETATM   13  H   UNL     1       6.956  -1.962   0.107  1.00  0.00     0.163 HD
HETATM   14  O   UNL     1       9.306  -0.572  -1.496  1.00  0.00    -0.268 OA
BRANCH  12  15
HETATM   15  C   UNL     1       6.892   0.127  -0.240  1.00  0.00     0.161 C 
BRANCH  15  16
HETATM   16  C   UNL     1       5.977   0.478  -1.386  1.00  0.00    -0.037 A 
HETATM   17  C   UNL     1       6.493   1.095  -2.539  1.00  0.00     0.012 A 
HETATM   18  C   UNL     1       5.656   1.414  -3.612  1.00  0.00     0.046 A 
HETATM   19  C   UNL     1       4.302   1.107  -3.538  1.00  0.00     0.154 A 
HETATM   20  F   UNL     1       3.501   1.415  -4.567  1.00  0.00    -0.203 F 
HETATM   21  C   UNL     1       3.784   0.484  -2.409  1.00  0.00     0.155 A 
HETATM   22  C   UNL     1       4.611   0.165  -1.335  1.00  0.00     0.054 A 
HETATM   23  F   UNL     1       2.480   0.183  -2.344  1.00  0.00    -0.203 F 
ENDBRANCH  15  16
ENDBRANCH  12  15
ENDBRANCH   1  11
BRANCH   7  24
HETATM   24  C   UNL     1       6.865  -8.141  -0.905  1.00  0.00     0.010 A 
HETATM   25  C   UNL     1       7.471  -9.297  -0.358  1.00  0.00     0.152 A 
HETATM   26  N   UNL     1       6.735 -10.399  -0.528  1.00  0.00    -0.187 NA
HETATM   27  N   UNL     1       5.655  -9.955  -1.189  1.00  0.00    -0.289 N 
HETATM   28  H   UNL     1       4.937 -10.625  -1.442  1.00  0.00     0.188 HD
HETATM   29  C   UNL     1       5.684  -8.613  -1.438  1.00  0.00     0.123 A 
ENDBRANCH   7  24
TORSDOF 4
