REMARK  6 active torsions:
REMARK  status: ('A' for Active; 'I' for Inactive)
REMARK    1  A    between atoms: C_2  and  N_3 
REMARK       I    between atoms: N_3  and  C_4 
REMARK    2  A    between atoms: C_4  and  C_5 
REMARK    3  A    between atoms: C_5  and  O_6 
REMARK    4  A    between atoms: O_6  and  C_7 
REMARK    5  A    between atoms: C_9  and  N_10 
REMARK       I    between atoms: N_10  and  C_11 
REMARK    6  A    between atoms: C_11  and  C_12 
ROOT
HETATM    1  N   UNL     1       4.778   4.950  -1.529  1.00  0.00    -0.322 N 
HETATM    2  C   UNL     1       3.645   5.307  -0.820  1.00  0.00     0.277 C 
HETATM    3  O   UNL     1       2.952   4.561  -0.136  1.00  0.00    -0.266 OA
HETATM    4  H   UNL     1       5.176   5.715  -2.068  1.00  0.00     0.169 HD
ENDROOT
BRANCH   1   5
HETATM    5  C   UNL     1       5.377   3.682  -1.621  1.00  0.00     0.037 A 
HETATM    6  C   UNL     1       4.966   2.580  -0.871  1.00  0.00     0.066 A 
HETATM    7  C   UNL     1       5.583   1.333  -1.023  1.00  0.00     0.071 A 
HETATM    8  C   UNL     1       6.637   1.186  -1.920  1.00  0.00     0.037 A 
HETATM    9  C   UNL     1       7.065   2.286  -2.666  1.00  0.00     0.005 A 
HETATM   10  C   UNL     1       6.440   3.527  -2.516  1.00  0.00     0.029 A 
BRANCH   7  11
HETATM   11  O   UNL     1       5.071   0.356  -0.219  1.00  0.00    -0.342 OA
BRANCH  11  12
HETATM   12  C   UNL     1       5.365  -0.996  -0.563  1.00  0.00     0.278 C 
BRANCH  12  13
HETATM   13  C   UNL     1       4.430  -1.920   0.220  1.00  0.00     0.241 C 
HETATM   14  N   UNL     1       3.274  -1.308   0.658  1.00  0.00    -0.360 N 
HETATM   15  H   UNL     1       3.244  -0.295   0.576  1.00  0.00     0.162 HD
HETATM   16  O   UNL     1       4.679  -3.110   0.392  1.00  0.00    -0.271 OA
BRANCH  14  17
HETATM   17  C   UNL     1       2.296  -1.973   1.486  1.00  0.00     0.118 C 
HETATM   18  C   UNL     1       2.646  -1.861   2.959  1.00  0.00     0.026 C 
ENDBRANCH  14  17
ENDBRANCH  12  13
ENDBRANCH  11  12
ENDBRANCH   7  11
ENDBRANCH   1   5
BRANCH   2  19
HETATM   19  C   UNL     1       3.313   6.733  -0.992  1.00  0.00     0.157 A 
HETATM   20  N   UNL     1       4.121   7.570  -1.682  1.00  0.00    -0.168 NA
HETATM   21  N   UNL     1       3.490   8.757  -1.604  1.00  0.00    -0.277 N 
HETATM   22  H   UNL     1       3.921   9.561  -2.045  1.00  0.00     0.189 HD
HETATM   23  C   UNL     1       2.302   8.725  -0.928  1.00  0.00     0.063 A 
HETATM   24  C   UNL     1       2.153   7.409  -0.510  1.00  0.00     0.029 A 
HETATM   25  C   UNL     1       1.361   9.722  -0.655  1.00  0.00     0.032 A 
HETATM   26  C   UNL     1       1.002   7.053   0.219  1.00  0.00     0.023 A 
HETATM   27  C   UNL     1       0.030   8.029   0.501  1.00  0.00    -0.061 A 
HETATM   28  C   UNL     1       0.221   9.346   0.067  1.00  0.00     0.009 A 
HETATM   29  C   UNL     1      -1.202   7.639   1.266  1.00  0.00     0.048 C 
ENDBRANCH   2  19
TORSDOF 6
