REMARK  6 active torsions:
REMARK  status: ('A' for Active; 'I' for Inactive)
REMARK    1  A    between atoms: C_7  and  S_8 
REMARK    2  A    between atoms: S_8  and  C_9 
REMARK    3  A    between atoms: C_9  and  C_10 
REMARK    4  A    between atoms: C_18  and  C_19 
REMARK    5  A    between atoms: C_26  and  C_27 
REMARK    6  A    between atoms: C_27  and  O_28 
ROOT
HETATM    1  C   UNL     1       1.065   0.160   0.152  1.00  0.00     0.070 C 
HETATM    2  C   UNL     1       2.566   0.089   0.021  1.00  0.00     0.037 C 
HETATM    3  N   UNL     1       3.227   1.315   0.003  1.00  0.00    -0.192 N 
HETATM    4  C   UNL     1       4.560   1.428   0.163  1.00  0.00     0.726 A 
HETATM    5  N   UNL     1       5.338   0.305   0.131  1.00  0.00    -0.082 N 
HETATM    6  N   UNL     1       6.626   0.591   0.413  1.00  0.00    -0.128 NA
HETATM    7  C   UNL     1       6.556   1.920   0.577  1.00  0.00     0.226 A 
HETATM    8  N   UNL     1       5.307   2.468   0.414  1.00  0.00    -0.035 NA
HETATM    9  C   UNL     1       4.810  -1.048  -0.080  1.00  0.00     0.203 C 
HETATM   10  C   UNL     1       3.285  -1.062  -0.011  1.00  0.00     0.070 C 
HETATM   11  H   UNL     1       2.662   2.152   0.131  1.00  0.00     0.184 HD
ENDROOT
BRANCH   7  12
HETATM   12  S   UNL     1       7.916   2.905   1.035  1.00  0.00    -0.083 SA
BRANCH  12  13
HETATM   13  C   UNL     1       9.302   1.780   0.717  1.00  0.00     0.123 C 
BRANCH  13  14
HETATM   14  C   UNL     1      10.621   2.449   1.033  1.00  0.00    -0.027 A 
HETATM   15  C   UNL     1      11.266   2.320   2.274  1.00  0.00     0.041 A 
HETATM   16 CL   UNL     1      10.621   1.347   3.549  1.00  0.00    -0.084 Cl
HETATM   17  C   UNL     1      12.468   2.992   2.525  1.00  0.00     0.024 A 
HETATM   18  C   UNL     1      13.037   3.807   1.547  1.00  0.00     0.002 A 
HETATM   19  C   UNL     1      12.407   3.952   0.315  1.00  0.00     0.001 A 
HETATM   20  C   UNL     1      11.210   3.280   0.060  1.00  0.00     0.009 A 
ENDBRANCH  13  14
ENDBRANCH  12  13
ENDBRANCH   7  12
BRANCH   9  21
HETATM   21  C   UNL     1       5.325  -1.616  -1.403  1.00  0.00    -0.026 A 
HETATM   22  C   UNL     1       5.996  -2.851  -1.417  1.00  0.00     0.033 A 
HETATM   23  C   UNL     1       6.448  -3.395  -2.620  1.00  0.00     0.034 A 
HETATM   24 CL   UNL     1       7.265  -4.910  -2.620  1.00  0.00    -0.084 Cl
HETATM   25  C   UNL     1       6.237  -2.726  -3.823  1.00  0.00     0.024 A 
HETATM   26  C   UNL     1       5.566  -1.504  -3.826  1.00  0.00     0.002 A 
HETATM   27  C   UNL     1       5.110  -0.954  -2.626  1.00  0.00     0.010 A 
ENDBRANCH   9  21
BRANCH  10  28
HETATM   28  C   UNL     1       2.717  -2.423   0.086  1.00  0.00     0.293 C 
HETATM   29  O   UNL     1       3.280  -3.329   0.684  1.00  0.00    -0.259 OA
BRANCH  28  30
HETATM   30  O   UNL     1       1.563  -2.530  -0.613  1.00  0.00    -0.323 OA
HETATM   31  C   UNL     1       0.962  -3.825  -0.548  1.00  0.00     0.213 C 
ENDBRANCH  28  30
ENDBRANCH  10  28
TORSDOF 6
