REMARK  7 active torsions:
REMARK  status: ('A' for Active; 'I' for Inactive)
REMARK    1  A    between atoms: C_2  and  N_3 
REMARK    2  A    between atoms: C_2  and  C_12 
REMARK       I    between atoms: N_3  and  C_4 
REMARK    3  A    between atoms: C_4  and  C_5 
REMARK    4  A    between atoms: N_17  and  C_19 
REMARK    5  A    between atoms: C_19  and  C_20 
REMARK    6  A    between atoms: C_22  and  C_23 
REMARK    7  A    between atoms: C_23  and  N_24 
ROOT
HETATM    1  C   UNL     1       2.957   1.344  -0.703  1.00  0.00     0.152 A 
HETATM    2  N   UNL     1       3.152   2.493   0.034  1.00  0.00    -0.317 N 
HETATM    3  C   UNL     1       3.659   3.419  -0.843  1.00  0.00     0.131 A 
HETATM    4  C   UNL     1       3.881   4.861  -0.569  1.00  0.00     0.108 C 
HETATM    5  C   UNL     1       2.641   5.482   0.062  1.00  0.00     0.243 C 
HETATM    6  N   UNL     1       2.540   5.230   1.567  1.00  0.00    -0.065 N 
HETATM    7  H   UNL     1       3.056   6.007   2.003  1.00  0.00     0.280 HD
HETATM    8  C   UNL     1       3.236   3.974   2.090  1.00  0.00     0.255 C 
HETATM    9  C   UNL     1       2.791   2.671   1.422  1.00  0.00     0.159 C 
HETATM   10  N   UNL     1       3.826   2.849  -2.013  1.00  0.00    -0.135 NA
HETATM   11  N   UNL     1       3.394   1.557  -1.927  1.00  0.00    -0.133 NA
ENDROOT
BRANCH   6  12
HETATM   12  C   UNL     1       1.113   5.366   2.088  1.00  0.00     0.280 C 
BRANCH  12  13
HETATM   13  C   UNL     1       0.471   6.694   1.794  1.00  0.00     0.009 A 
HETATM   14  S   UNL     1      -0.916   6.777   0.784  1.00  0.00    -0.096 SA
HETATM   15  C   UNL     1      -1.037   8.480   0.940  1.00  0.00     0.009 A 
HETATM   16  C   UNL     1      -0.040   8.974   1.759  1.00  0.00     0.017 A 
HETATM   17  C   UNL     1       0.819   7.947   2.260  1.00  0.00     0.017 A 
BRANCH  15  18
HETATM   18  C   UNL     1      -2.116   9.239   0.218  1.00  0.00     0.280 C 
BRANCH  18  19
HETATM   19  N   UNL     1      -3.498   9.050   0.811  1.00  0.00    -0.067 N 
HETATM   20  H   UNL     1      -3.632   8.037   0.919  1.00  0.00     0.280 HD
HETATM   21  C   UNL     1      -3.641   9.682   2.178  1.00  0.00     0.235 C 
HETATM   22  C   UNL     1      -5.016   9.363   2.749  1.00  0.00     0.028 C 
HETATM   23  C   UNL     1      -6.133   9.809   1.814  1.00  0.00     0.003 C 
HETATM   24  C   UNL     1      -5.946   9.221   0.421  1.00  0.00     0.028 C 
HETATM   25  C   UNL     1      -4.569   9.540  -0.144  1.00  0.00     0.235 C 
ENDBRANCH  18  19
ENDBRANCH  15  18
ENDBRANCH  12  13
ENDBRANCH   6  12
BRANCH   1  26
HETATM   26  C   UNL     1       2.304   0.092  -0.207  1.00  0.00     0.152 C 
HETATM   27  C   UNL     1       0.926  -0.084  -0.842  1.00  0.00     0.040 C 
BRANCH  26  28
HETATM   28  N   UNL     1       3.168  -1.026  -0.517  1.00  0.00    -0.349 N 
HETATM   29  C   UNL     1       3.103  -2.185   0.224  1.00  0.00     0.222 C 
HETATM   30  O   UNL     1       2.453  -2.245   1.263  1.00  0.00    -0.273 OA
HETATM   31  H   UNL     1       3.580  -1.051  -1.446  1.00  0.00     0.163 HD
BRANCH  29  32
HETATM   32  C   UNL     1       3.891  -3.356  -0.361  1.00  0.00     0.082 C 
HETATM   33  C   UNL     1       5.394  -3.062  -0.398  1.00  0.00     0.040 C 
HETATM   34  C   UNL     1       6.015  -3.180   0.988  1.00  0.00     0.168 C 
HETATM   35  O   UNL     1       5.755  -4.465   1.542  1.00  0.00    -0.391 OA
HETATM   36  C   UNL     1       4.362  -4.705   1.733  1.00  0.00     0.168 C 
HETATM   37  C   UNL     1       3.619  -4.657   0.403  1.00  0.00     0.040 C 
ENDBRANCH  29  32
ENDBRANCH  26  28
ENDBRANCH   1  26
TORSDOF 7
