REMARK  5 active torsions:
REMARK  status: ('A' for Active; 'I' for Inactive)
REMARK    1  A    between atoms: C_14  and  C_15 
REMARK       I    between atoms: C_15  and  N_16 
REMARK    2  A    between atoms: N_16  and  C_17 
REMARK    3  A    between atoms: C_18  and  C_19 
REMARK    4  A    between atoms: C_19  and  O_20 
REMARK    5  A    between atoms: O_20  and  C_21 
ROOT
HETATM    1  C   UNL     1       2.656  -2.172  -0.369  1.00  0.00     0.273 C 
HETATM    2  N   UNL     1       1.479  -2.694   0.153  1.00  0.00    -0.321 N 
HETATM    3  O   UNL     1       2.811  -0.985  -0.632  1.00  0.00    -0.266 OA
HETATM    4  H   UNL     1       1.625  -3.489   0.761  1.00  0.00     0.169 HD
ENDROOT
BRANCH   1   5
HETATM    5  C   UNL     1       3.731  -3.154  -0.485  1.00  0.00     0.104 C 
HETATM    6  N   UNL     1       5.091  -2.847  -0.600  1.00  0.00    -0.345 N 
HETATM    7  C   UNL     1       5.606  -1.517  -0.848  1.00  0.00     0.156 C 
HETATM    8  C   UNL     1       5.794  -3.998  -0.505  1.00  0.00     0.060 A 
HETATM    9  C   UNL     1       4.946  -5.088  -0.543  1.00  0.00     0.012 A 
HETATM   10  C   UNL     1       7.141  -4.200  -0.402  1.00  0.00     0.039 A 
HETATM   11  C   UNL     1       5.513  -6.379  -0.550  1.00  0.00     0.132 A 
HETATM   12  C   UNL     1       3.638  -4.546  -0.537  1.00  0.00     0.050 C 
HETATM   13  N   UNL     1       6.860  -6.600  -0.490  1.00  0.00    -0.241 NA
HETATM   14  C   UNL     1       7.613  -5.491  -0.401  1.00  0.00     0.139 A 
HETATM   15  N   UNL     1       8.972  -5.416  -0.283  1.00  0.00    -0.350 N 
HETATM   16  H   UNL     1       9.581  -6.220  -0.259  1.00  0.00     0.166 HD
HETATM   17  C   UNL     1       9.352  -4.093  -0.166  1.00  0.00     0.091 A 
HETATM   18  C   UNL     1       8.218  -3.299  -0.228  1.00  0.00     0.034 A 
ENDBRANCH   1   5
BRANCH   2  19
HETATM   19  C   UNL     1       0.339  -1.902   0.422  1.00  0.00     0.043 A 
HETATM   20  C   UNL     1      -0.232  -1.001  -0.496  1.00  0.00    -0.007 A 
HETATM   21  C   UNL     1      -1.304  -0.192  -0.067  1.00  0.00     0.011 A 
HETATM   22  C   UNL     1      -1.834  -0.316   1.217  1.00  0.00     0.001 A 
HETATM   23  C   UNL     1      -1.317  -1.268   2.088  1.00  0.00     0.002 A 
HETATM   24  C   UNL     1      -0.243  -2.063   1.689  1.00  0.00     0.030 A 
BRANCH  20  25
HETATM   25  C   UNL     1       0.135  -0.949  -1.965  1.00  0.00     0.216 C 
BRANCH  25  26
HETATM   26  O   UNL     1       0.663   0.336  -2.305  1.00  0.00    -0.347 OA
BRANCH  26  27
HETATM   27  C   UNL     1       1.295   0.345  -3.521  1.00  0.00     0.069 A 
HETATM   28  C   UNL     1       0.733  -0.184  -4.684  1.00  0.00     0.037 A 
HETATM   29  C   UNL     1       1.435  -0.115  -5.890  1.00  0.00     0.003 A 
HETATM   30  C   UNL     1       2.690   0.492  -5.935  1.00  0.00     0.000 A 
HETATM   31  C   UNL     1       3.241   1.039  -4.777  1.00  0.00     0.003 A 
HETATM   32  C   UNL     1       2.540   0.972  -3.572  1.00  0.00     0.037 A 
ENDBRANCH  26  27
ENDBRANCH  25  26
ENDBRANCH  20  25
ENDBRANCH   2  19
TORSDOF 5
