REMARK  6 active torsions:
REMARK  status: ('A' for Active; 'I' for Inactive)
REMARK    1  A    between atoms: C_4  and  C_5 
REMARK    2  A    between atoms: C_7  and  S_8 
REMARK    3  A    between atoms: S_8  and  C_9 
REMARK    4  A    between atoms: C_9  and  C_10 
REMARK       I    between atoms: C_10  and  N_11 
REMARK    5  A    between atoms: N_11  and  C_12 
REMARK    6  A    between atoms: C_26  and  C_27 
ROOT
HETATM    1  C   UNL     1       3.477  -3.029  -1.683  1.00  0.00     0.076 A 
HETATM    2  N   UNL     1       4.548  -2.572  -0.990  1.00  0.00    -0.239 NA
HETATM    3  C   UNL     1       4.357  -1.808   0.110  1.00  0.00     0.116 A 
HETATM    4  C   UNL     1       3.085  -1.477   0.578  1.00  0.00     0.095 A 
HETATM    5  C   UNL     1       2.912  -0.640   1.729  1.00  0.00     0.103 C 
HETATM    6  N   UNL     1       2.742   0.044   2.650  1.00  0.00    -0.191 NA
HETATM    7  C   UNL     1       1.972  -1.964  -0.127  1.00  0.00     0.073 A 
HETATM    8  C   UNL     1       2.182  -2.749  -1.273  1.00  0.00     0.050 A 
ENDROOT
BRANCH   3   9
HETATM    9  S   UNL     1       5.845  -1.128   0.850  1.00  0.00    -0.100 SA
BRANCH   9  10
HETATM   10  C   UNL     1       7.159  -2.142   0.083  1.00  0.00     0.184 C 
BRANCH  10  11
HETATM   11  C   UNL     1       7.438  -1.867  -1.393  1.00  0.00     0.231 C 
HETATM   12  N   UNL     1       6.786  -0.776  -1.934  1.00  0.00    -0.326 N 
HETATM   13  H   UNL     1       6.201  -0.265  -1.284  1.00  0.00     0.169 HD
HETATM   14  O   UNL     1       8.209  -2.606  -2.005  1.00  0.00    -0.272 OA
BRANCH  12  15
HETATM   15  C   UNL     1       6.659  -0.431  -3.293  1.00  0.00     0.037 A 
HETATM   16  C   UNL     1       7.360  -1.069  -4.323  1.00  0.00     0.061 A 
HETATM   17  C   UNL     1       7.081  -0.669  -5.610  1.00  0.00     0.065 A 
HETATM   18  C   UNL     1       6.149   0.324  -5.900  1.00  0.00     0.063 A 
HETATM   19  N   UNL     1       7.606  -1.126  -6.814  1.00  0.00    -0.306 N 
HETATM   20  N   UNL     1       6.096   0.475  -7.280  1.00  0.00    -0.307 N 
HETATM   21  C   UNL     1       5.453   0.980  -4.917  1.00  0.00     0.034 A 
HETATM   22  C   UNL     1       7.000  -0.424  -7.865  1.00  0.00     0.325 A 
HETATM   23  H   UNL     1       5.518   1.108  -7.807  1.00  0.00     0.170 HD
HETATM   24  O   UNL     1       7.214  -0.567  -9.056  1.00  0.00    -0.247 OA
HETATM   25  C   UNL     1       5.722   0.594  -3.597  1.00  0.00     0.032 A 
HETATM   26  H   UNL     1       8.303  -1.841  -6.940  1.00  0.00     0.170 HD
ENDBRANCH  12  15
ENDBRANCH  10  11
ENDBRANCH   9  10
ENDBRANCH   3   9
BRANCH   7  27
HETATM   27  C   UNL     1       0.569  -1.619   0.301  1.00  0.00     0.419 C 
HETATM   28  F   UNL     1       0.312  -1.980   1.584  1.00  0.00    -0.166 F 
HETATM   29  F   UNL     1       0.322  -0.286   0.211  1.00  0.00    -0.166 F 
HETATM   30  F   UNL     1      -0.386  -2.226  -0.455  1.00  0.00    -0.166 F 
ENDBRANCH   7  27
BRANCH   1  31
HETATM   31  C   UNL     1       3.823  -3.789  -2.898  1.00  0.00     0.033 A 
HETATM   32  S   UNL     1       2.621  -4.315  -4.014  1.00  0.00    -0.100 SA
HETATM   33  C   UNL     1       3.773  -5.015  -5.060  1.00  0.00     0.050 A 
HETATM   34  C   UNL     1       5.054  -4.866  -4.587  1.00  0.00     0.008 A 
HETATM   35  C   UNL     1       5.081  -4.169  -3.344  1.00  0.00     0.021 A 
ENDBRANCH   1  31
TORSDOF 6
