REMARK  5 active torsions:
REMARK  status: ('A' for Active; 'I' for Inactive)
REMARK    1  A    between atoms: C_3  and  O_4 
REMARK    2  A    between atoms: O_4  and  C_5 
REMARK    3  A    between atoms: C_14  and  N_15 
REMARK       I    between atoms: N_15  and  C_16 
REMARK    4  A    between atoms: C_16  and  C_17 
REMARK    5  A    between atoms: C_17  and  C_18 
ROOT
HETATM    1  C   UNL     1       3.732  -1.270   0.017  1.00  0.00     0.076 A 
HETATM    2  C   UNL     1       3.772  -1.968  -1.194  1.00  0.00     0.039 A 
HETATM    3  C   UNL     1       4.595  -3.090  -1.323  1.00  0.00     0.025 A 
HETATM    4  C   UNL     1       5.396  -3.500  -0.251  1.00  0.00     0.044 A 
HETATM    5  C   UNL     1       6.238  -4.654  -0.383  1.00  0.00     0.099 C 
HETATM    6  N   UNL     1       6.921  -5.586  -0.490  1.00  0.00    -0.191 NA
HETATM    7  C   UNL     1       5.377  -2.778   0.947  1.00  0.00     0.025 A 
HETATM    8  C   UNL     1       4.550  -1.659   1.078  1.00  0.00     0.039 A 
ENDROOT
BRANCH   1   9
HETATM    9  O   UNL     1       2.954  -0.150   0.208  1.00  0.00    -0.311 OA
BRANCH   9  10
HETATM   10  C   UNL     1       1.642  -0.205  -0.212  1.00  0.00     0.078 A 
HETATM   11  C   UNL     1       1.134   0.939  -0.824  1.00  0.00     0.037 A 
HETATM   12  C   UNL     1      -0.186   0.955  -1.267  1.00  0.00     0.005 A 
HETATM   13  C   UNL     1      -0.994  -0.172  -1.092  1.00  0.00     0.029 A 
HETATM   14  C   UNL     1      -0.500  -1.318  -0.453  1.00  0.00     0.037 A 
HETATM   15  C   UNL     1       0.819  -1.317   0.005  1.00  0.00     0.066 A 
BRANCH  14  16
HETATM   16  N   UNL     1      -1.374  -2.420  -0.337  1.00  0.00    -0.327 N 
HETATM   17  C   UNL     1      -1.116  -3.637   0.273  1.00  0.00     0.227 C 
HETATM   18  O   UNL     1      -0.097  -3.934   0.895  1.00  0.00    -0.273 OA
HETATM   19  H   UNL     1      -2.282  -2.307  -0.769  1.00  0.00     0.169 HD
BRANCH  17  20
HETATM   20  C   UNL     1      -2.250  -4.651   0.110  1.00  0.00     0.159 C 
BRANCH  20  21
HETATM   21  C   UNL     1      -1.766  -5.911  -0.540  1.00  0.00     0.017 A 
HETATM   22  N   UNL     1      -0.539  -6.463  -0.242  1.00  0.00    -0.369 N 
HETATM   23  H   UNL     1       0.135  -6.054   0.399  1.00  0.00     0.165 HD
HETATM   24  C   UNL     1      -0.360  -7.609  -0.968  1.00  0.00     0.088 A 
HETATM   25  C   UNL     1      -1.486  -7.809  -1.732  1.00  0.00     0.019 A 
HETATM   26  C   UNL     1      -2.375  -6.741  -1.462  1.00  0.00     0.027 A 
ENDBRANCH  20  21
ENDBRANCH  17  20
ENDBRANCH  14  16
ENDBRANCH   9  10
ENDBRANCH   1   9
TORSDOF 5
