REMARK  9 active torsions:
REMARK  status: ('A' for Active; 'I' for Inactive)
REMARK    1  A    between atoms: C_6  and  C_7 
REMARK    2  A    between atoms: C_7  and  C_8 
REMARK       I    between atoms: C_8  and  N_9 
REMARK    3  A    between atoms: N_9  and  C_10 
REMARK    4  A    between atoms: C_10  and  C_11 
REMARK    5  A    between atoms: C_11  and  N_12 
REMARK    6  A    between atoms: C_20  and  C_21 
REMARK    7  A    between atoms: C_24  and  C_25 
REMARK    8  A    between atoms: C_32  and  C_33 
REMARK    9  A    between atoms: C_33  and  O_34 
ROOT
HETATM    1  C   UNL     1       1.662   1.444   0.408  1.00  0.00     0.071 C 
HETATM    2  C   UNL     1       2.895   0.583   0.293  1.00  0.00     0.048 C 
HETATM    3  N   UNL     1       4.018   1.089   0.968  1.00  0.00    -0.229 NA
HETATM    4  C   UNL     1       4.867   0.223   1.431  1.00  0.00     0.170 C 
HETATM    5  N   UNL     1       4.738  -1.336   1.119  1.00  0.00    -0.319 N 
HETATM    6  C   UNL     1       4.592  -1.808   2.326  1.00  0.00     0.011 C 
HETATM    7  C   UNL     1       4.188  -1.387  -0.250  1.00  0.00     0.166 C 
HETATM    8  S   UNL     1       5.936   0.474   2.776  1.00  0.00    -0.086 SA
HETATM    9  C   UNL     1       5.733  -1.318   3.222  1.00  0.00     0.135 C 
HETATM   10  C   UNL     1       2.899  -0.652  -0.261  1.00  0.00     0.069 C 
ENDROOT
BRANCH   6  11
HETATM   11  C   UNL     1       3.207  -2.017   2.884  1.00  0.00     0.156 C 
BRANCH  11  12
HETATM   12  C   UNL     1       2.713  -3.389   3.247  1.00  0.00     0.223 C 
HETATM   13  N   UNL     1       1.494  -3.693   2.700  1.00  0.00    -0.359 N 
HETATM   14  H   UNL     1       1.143  -3.083   1.953  1.00  0.00     0.162 HD
HETATM   15  O   UNL     1       3.295  -4.098   4.065  1.00  0.00    -0.273 OA
BRANCH  13  16
HETATM   16  C   UNL     1       0.483  -4.630   3.195  1.00  0.00     0.150 C 
BRANCH  16  17
HETATM   17  C   UNL     1       0.899  -5.852   4.033  1.00  0.00     0.254 C 
BRANCH  17  18
HETATM   18  N   UNL     1       1.514  -5.519   5.381  1.00  0.00    -0.070 N 
HETATM   19  H   UNL     1       2.372  -4.976   5.155  1.00  0.00     0.279 HD
HETATM   20  C   UNL     1       0.648  -4.679   6.289  1.00  0.00     0.235 C 
HETATM   21  C   UNL     1       1.409  -4.336   7.563  1.00  0.00     0.028 C 
HETATM   22  C   UNL     1       1.912  -5.583   8.277  1.00  0.00     0.003 C 
HETATM   23  C   UNL     1       2.740  -6.448   7.336  1.00  0.00     0.028 C 
HETATM   24  C   UNL     1       1.973  -6.789   6.069  1.00  0.00     0.235 C 
ENDBRANCH  17  18
ENDBRANCH  16  17
ENDBRANCH  13  16
ENDBRANCH  11  12
ENDBRANCH   6  11
BRANCH   7  25
HETATM   25  C   UNL     1       4.451  -2.601  -1.123  1.00  0.00    -0.030 A 
HETATM   26  C   UNL     1       5.208  -3.710  -0.720  1.00  0.00     0.010 A 
HETATM   27  C   UNL     1       5.720  -4.607  -1.674  1.00  0.00     0.008 A 
HETATM   28  C   UNL     1       5.492  -4.428  -3.047  1.00  0.00    -0.055 A 
HETATM   29  C   UNL     1       4.657  -3.384  -3.442  1.00  0.00     0.008 A 
HETATM   30  C   UNL     1       4.163  -2.480  -2.501  1.00  0.00     0.010 A 
BRANCH  28  31
HETATM   31  C   UNL     1       6.180  -5.323  -4.069  1.00  0.00     0.010 C 
HETATM   32  C   UNL     1       5.217  -6.374  -4.620  1.00  0.00     0.015 C 
HETATM   33  C   UNL     1       6.819  -4.530  -5.219  1.00  0.00     0.015 C 
ENDBRANCH  28  31
ENDBRANCH   7  25
BRANCH  10  34
HETATM   34  C   UNL     1       1.682  -1.435  -0.512  1.00  0.00     0.293 C 
HETATM   35  O   UNL     1       1.211  -2.141   0.371  1.00  0.00    -0.259 OA
BRANCH  34  36
HETATM   36  O   UNL     1       1.309  -1.362  -1.800  1.00  0.00    -0.323 OA
HETATM   37  C   UNL     1       0.304  -2.314  -2.173  1.00  0.00     0.213 C 
ENDBRANCH  34  36
ENDBRANCH  10  34
TORSDOF 9
