REMARK  6 active torsions:
REMARK  status: ('A' for Active; 'I' for Inactive)
REMARK    1  A    between atoms: C_5  and  N_6 
REMARK    2  A    between atoms: N_6  and  C_7 
REMARK    3  A    between atoms: C_7  and  N_8 
REMARK    4  A    between atoms: C_11  and  C_12 
REMARK    5  A    between atoms: N_14  and  C_15 
REMARK    6  A    between atoms: C_21  and  O_22 
ROOT
HETATM    1  N   UNL     1       6.957  -2.599  -0.835  1.00  0.00    -0.358 N 
HETATM    2  C   UNL     1       5.587  -2.555  -1.368  1.00  0.00     0.126 C 
HETATM    3  C   UNL     1       5.180  -3.875  -2.020  1.00  0.00     0.031 C 
HETATM    4  C   UNL     1       5.423  -5.088  -1.104  1.00  0.00     0.043 C 
HETATM    5  C   UNL     1       6.874  -5.046  -0.593  1.00  0.00     0.031 C 
HETATM    6  C   UNL     1       7.198  -3.716   0.081  1.00  0.00     0.126 C 
ENDROOT
BRANCH   4   7
HETATM    7  C   UNL     1       4.422  -5.241   0.018  1.00  0.00     0.063 C 
HETATM    8  N   UNL     1       3.298  -4.518   0.060  1.00  0.00    -0.169 NA
HETATM    9  N   UNL     1       2.679  -4.881   1.218  1.00  0.00    -0.211 N 
HETATM   10  C   UNL     1       3.314  -5.980   1.797  1.00  0.00     0.165 C 
HETATM   11  C   UNL     1       4.470  -6.170   1.081  1.00  0.00     0.087 C 
BRANCH   9  12
HETATM   12  C   UNL     1       1.537  -4.162   1.674  1.00  0.00     0.061 A 
HETATM   13  C   UNL     1       0.818  -3.371   0.765  1.00  0.00     0.031 A 
HETATM   14  C   UNL     1      -0.316  -2.673   1.185  1.00  0.00     0.002 A 
HETATM   15  C   UNL     1      -0.727  -2.742   2.514  1.00  0.00     0.000 A 
HETATM   16  C   UNL     1       0.003  -3.497   3.431  1.00  0.00     0.002 A 
HETATM   17  C   UNL     1       1.135  -4.204   3.016  1.00  0.00     0.031 A 
ENDBRANCH   9  12
BRANCH  10  18
HETATM   18  O   UNL     1       2.843  -6.712   2.807  1.00  0.00    -0.345 OA
HETATM   19  H   UNL     1       1.871  -6.649   2.809  1.00  0.00     0.219 HD
ENDBRANCH  10  18
ENDBRANCH   4   7
BRANCH   1  20
HETATM   20  C   UNL     1       7.602  -1.384  -0.646  1.00  0.00     0.174 C 
HETATM   21  S   UNL     1       8.133  -0.794   0.836  1.00  0.00    -0.041 SA
BRANCH  20  22
HETATM   22  N   UNL     1       7.774  -0.562  -1.727  1.00  0.00    -0.333 N 
HETATM   23  H   UNL     1       8.012   0.388  -1.463  1.00  0.00     0.168 HD
BRANCH  22  24
HETATM   24  C   UNL     1       7.923  -0.858  -3.099  1.00  0.00     0.034 A 
HETATM   25  C   UNL     1       8.074  -2.148  -3.608  1.00  0.00     0.030 A 
HETATM   26  C   UNL     1       8.237  -2.360  -4.981  1.00  0.00     0.009 A 
HETATM   27  C   UNL     1       8.282  -1.279  -5.866  1.00  0.00    -0.062 A 
HETATM   28  C   UNL     1       8.424  -1.503  -7.342  1.00  0.00     0.048 C 
HETATM   29  C   UNL     1       8.150   0.016  -5.357  1.00  0.00     0.009 A 
HETATM   30  C   UNL     1       7.983   0.224  -3.984  1.00  0.00     0.030 A 
ENDBRANCH  22  24
ENDBRANCH  20  22
ENDBRANCH   1  20
TORSDOF 6
