REMARK  5 active torsions:
REMARK  status: ('A' for Active; 'I' for Inactive)
REMARK    1  A    between atoms: C_7  and  C_8 
REMARK    2  A    between atoms: C_8  and  O_9 
REMARK    3  A    between atoms: N_12  and  C_13 
REMARK    4  A    between atoms: C_13  and  C_14 
REMARK    5  A    between atoms: C_14  and  C_15 
ROOT
HETATM    1  C   UNL     1       2.079  -2.475  -0.080  1.00  0.00     0.199 A 
HETATM    2  C   UNL     1       2.590  -3.764  -0.785  1.00  0.00     0.269 A 
HETATM    3  O   UNL     1       2.635  -3.953  -1.995  1.00  0.00    -0.269 OA
HETATM    4  N   UNL     1       2.858  -4.717   0.218  1.00  0.00    -0.314 N 
HETATM    5  C   UNL     1       2.567  -4.190   1.489  1.00  0.00     0.047 A 
HETATM    6  C   UNL     1       2.122  -2.868   1.373  1.00  0.00     0.017 A 
HETATM    7  C   UNL     1       2.652  -4.812   2.724  1.00  0.00     0.030 A 
HETATM    8  C   UNL     1       2.275  -4.085   3.858  1.00  0.00     0.002 A 
HETATM    9  C   UNL     1       1.816  -2.764   3.744  1.00  0.00     0.001 A 
HETATM   10  C   UNL     1       1.733  -2.147   2.496  1.00  0.00     0.013 A 
ENDROOT
BRANCH   1  11
HETATM   11  C   UNL     1       2.944  -1.248  -0.251  1.00  0.00     0.025 A 
HETATM   12  C   UNL     1       2.490   0.061  -0.439  1.00  0.00     0.016 A 
HETATM   13  C   UNL     1       1.114   0.624  -0.519  1.00  0.00     0.069 C 
HETATM   14  N   UNL     1       3.581   0.883  -0.542  1.00  0.00    -0.359 N 
HETATM   15  H   UNL     1       3.544   1.883  -0.681  1.00  0.00     0.166 HD
HETATM   16  C   UNL     1       4.742   0.170  -0.398  1.00  0.00     0.043 A 
HETATM   17  C   UNL     1       4.388  -1.168  -0.219  1.00  0.00     0.003 A 
HETATM   18  C   UNL     1       6.068   0.620  -0.410  1.00  0.00     0.030 A 
HETATM   19  C   UNL     1       5.434  -2.101  -0.039  1.00  0.00     0.014 A 
HETATM   20  C   UNL     1       6.767  -1.669  -0.047  1.00  0.00     0.001 A 
HETATM   21  C   UNL     1       7.078  -0.326  -0.230  1.00  0.00     0.002 A 
ENDBRANCH   1  11
BRANCH   1  22
HETATM   22  O   UNL     1       0.724  -2.267  -0.481  1.00  0.00    -0.371 OA
HETATM   23  H   UNL     1       0.774  -2.198  -1.452  1.00  0.00     0.212 HD
ENDBRANCH   1  22
BRANCH   4  24
HETATM   24  C   UNL     1       3.011  -6.130  -0.068  1.00  0.00     0.137 C 
BRANCH  24  25
HETATM   25  C   UNL     1       4.274  -6.477  -0.862  1.00  0.00     0.058 C 
BRANCH  25  26
HETATM   26  C   UNL     1       4.332  -7.965  -1.125  1.00  0.00    -0.057 A 
HETATM   27  C   UNL     1       3.573  -8.526  -2.163  1.00  0.00     0.007 A 
HETATM   28  C   UNL     1       3.562  -9.907  -2.366  1.00  0.00     0.001 A 
HETATM   29  C   UNL     1       4.312 -10.739  -1.537  1.00  0.00     0.000 A 
HETATM   30  C   UNL     1       5.075 -10.191  -0.507  1.00  0.00     0.001 A 
HETATM   31  C   UNL     1       5.084  -8.810  -0.300  1.00  0.00     0.007 A 
ENDBRANCH  25  26
ENDBRANCH  24  25
ENDBRANCH   4  24
TORSDOF 5
