REMARK  7 active torsions:
REMARK  status: ('A' for Active; 'I' for Inactive)
REMARK    1  A    between atoms: C_12  and  S_13 
REMARK    2  A    between atoms: S_13  and  C_14 
REMARK    3  A    between atoms: C_14  and  C_15 
REMARK       I    between atoms: C_15  and  N_16 
REMARK    4  A    between atoms: N_16  and  C_17 
REMARK    5  A    between atoms: C_17  and  C_18 
REMARK    6  A    between atoms: C_18  and  C_19 
REMARK    7  A    between atoms: C_22  and  O_23 
ROOT
HETATM    1  S   UNL     1       7.911   0.752   0.418  1.00  0.00    -0.080 SA
ENDROOT
BRANCH   1   2
HETATM    2  C   UNL     1       6.593  -0.341   0.163  1.00  0.00     0.197 A 
HETATM    3  N   UNL     1       5.243  -0.035   0.085  1.00  0.00    -0.271 N 
HETATM    4  C   UNL     1       4.485   1.172   0.156  1.00  0.00     0.054 A 
HETATM    5  C   UNL     1       4.644  -1.276  -0.105  1.00  0.00     0.159 A 
HETATM    6  C   UNL     1       3.078   1.049   0.029  1.00  0.00    -0.003 A 
HETATM    7  C   UNL     1       5.059   2.435   0.338  1.00  0.00     0.031 A 
HETATM    8  C   UNL     1       2.457  -0.286  -0.171  1.00  0.00    -0.046 A 
HETATM    9  C   UNL     1       2.292   2.212   0.093  1.00  0.00     0.014 A 
HETATM   10  C   UNL     1       0.966  -0.415  -0.308  1.00  0.00     0.049 C 
HETATM   11  C   UNL     1       3.243  -1.374  -0.229  1.00  0.00     0.060 A 
HETATM   12  C   UNL     1       2.875   3.465   0.277  1.00  0.00     0.001 A 
HETATM   13  C   UNL     1       4.254   3.575   0.398  1.00  0.00     0.002 A 
HETATM   14  N   UNL     1       5.554  -2.225  -0.140  1.00  0.00    -0.129 NA
HETATM   15  N   UNL     1       6.774  -1.638   0.027  1.00  0.00    -0.122 NA
ENDBRANCH   1   2
BRANCH   1  16
HETATM   16  C   UNL     1       9.325  -0.337   0.070  1.00  0.00     0.185 C 
BRANCH  16  17
HETATM   17  C   UNL     1      10.629   0.443   0.166  1.00  0.00     0.227 C 
HETATM   18  N   UNL     1      11.709  -0.147   0.763  1.00  0.00    -0.360 N 
HETATM   19  H   UNL     1      12.524   0.456   0.792  1.00  0.00     0.162 HD
HETATM   20  O   UNL     1      10.776   1.574  -0.301  1.00  0.00    -0.273 OA
BRANCH  18  21
HETATM   21  C   UNL     1      11.778  -1.467   1.367  1.00  0.00     0.127 C 
BRANCH  21  22
HETATM   22  C   UNL     1      13.195  -1.812   1.823  1.00  0.00     0.058 C 
BRANCH  22  23
HETATM   23  C   UNL     1      13.267  -3.189   2.430  1.00  0.00    -0.057 A 
HETATM   24  C   UNL     1      13.540  -4.304   1.630  1.00  0.00     0.010 A 
HETATM   25  C   UNL     1      13.586  -5.581   2.193  1.00  0.00     0.037 A 
HETATM   26  C   UNL     1      13.357  -5.768   3.558  1.00  0.00     0.068 A 
HETATM   27  C   UNL     1      13.078  -4.661   4.358  1.00  0.00     0.037 A 
HETATM   28  C   UNL     1      13.032  -3.380   3.797  1.00  0.00     0.010 A 
BRANCH  26  29
HETATM   29  O   UNL     1      13.433  -7.068   3.977  1.00  0.00    -0.356 OA
HETATM   30  C   UNL     1      13.220  -7.310   5.362  1.00  0.00     0.210 C 
ENDBRANCH  26  29
ENDBRANCH  22  23
ENDBRANCH  21  22
ENDBRANCH  18  21
ENDBRANCH  16  17
ENDBRANCH   1  16
TORSDOF 7
