REMARK  8 active torsions:
REMARK  status: ('A' for Active; 'I' for Inactive)
REMARK    1  A    between atoms: C_2  and  S_3 
REMARK    2  A    between atoms: S_3  and  C_4 
REMARK    3  A    between atoms: C_7  and  N_8 
REMARK    4  A    between atoms: N_8  and  C_9 
REMARK    5  A    between atoms: C_9  and  N_10 
REMARK       I    between atoms: N_10  and  C_11 
REMARK    6  A    between atoms: C_11  and  C_12 
REMARK    7  A    between atoms: C_21  and  C_22 
REMARK       I    between atoms: C_22  and  N_23 
REMARK    8  A    between atoms: C_25  and  C_26 
REMARK       I    between atoms: C_26  and  N_27 
ROOT
HETATM    1  C   UNL     1       4.804   1.579  -0.892  1.00  0.00     0.088 A 
HETATM    2  N   UNL     1       5.586   2.690  -0.860  1.00  0.00    -0.335 N 
HETATM    3  H   UNL     1       5.230   3.635  -0.815  1.00  0.00     0.168 HD
HETATM    4  C   UNL     1       6.905   2.353  -0.943  1.00  0.00     0.125 A 
HETATM    5  C   UNL     1       6.976   0.959  -0.964  1.00  0.00     0.094 A 
HETATM    6  C   UNL     1       5.608   0.451  -0.967  1.00  0.00     0.084 A 
ENDROOT
BRANCH   4   7
HETATM    7  N   UNL     1       7.934   3.283  -0.999  1.00  0.00    -0.318 N 
HETATM    8  H   UNL     1       8.882   2.903  -1.068  1.00  0.00     0.170 HD
BRANCH   7   9
HETATM    9  C   UNL     1       7.856   4.657  -1.071  1.00  0.00     0.180 C 
HETATM   10  S   UNL     1       6.501   5.635  -1.178  1.00  0.00    -0.040 SA
BRANCH   9  11
HETATM   11  N   UNL     1       9.078   5.311  -1.054  1.00  0.00    -0.299 N 
HETATM   12  C   UNL     1      10.347   4.770  -0.894  1.00  0.00     0.259 C 
HETATM   13  O   UNL     1      10.564   3.581  -0.689  1.00  0.00    -0.267 OA
HETATM   14  H   UNL     1       8.996   6.312  -1.186  1.00  0.00     0.171 HD
BRANCH  12  15
HETATM   15  C   UNL     1      11.454   5.751  -0.951  1.00  0.00     0.054 A 
HETATM   16  C   UNL     1      12.549   5.564  -1.803  1.00  0.00     0.049 A 
HETATM   17 CL   UNL     1      12.669   4.234  -2.896  1.00  0.00    -0.083 Cl
HETATM   18  C   UNL     1      13.577   6.512  -1.823  1.00  0.00     0.025 A 
HETATM   19  C   UNL     1      13.515   7.638  -0.998  1.00  0.00     0.002 A 
HETATM   20  C   UNL     1      12.428   7.821  -0.146  1.00  0.00     0.001 A 
HETATM   21  C   UNL     1      11.398   6.879  -0.117  1.00  0.00     0.019 A 
ENDBRANCH  12  15
ENDBRANCH   9  11
ENDBRANCH   7   9
ENDBRANCH   4   7
BRANCH   5  22
HETATM   22  C   UNL     1       8.213   0.188  -1.017  1.00  0.00     0.254 C 
HETATM   23  N   UNL     1       9.261   0.689  -0.302  1.00  0.00    -0.366 N 
HETATM   24  H   UNL     1       9.171   1.468   0.335  1.00  0.00     0.159 HD
HETATM   25  H   UNL     1      10.124   0.163  -0.292  1.00  0.00     0.159 HD
HETATM   26  O   UNL     1       8.330  -0.866  -1.633  1.00  0.00    -0.268 OA
ENDBRANCH   5  22
BRANCH   1  27
HETATM   27  S   UNL     1       3.094   1.859  -0.812  1.00  0.00    -0.112 SA
BRANCH  27  28
HETATM   28  C   UNL     1       2.617   1.488  -2.526  1.00  0.00     0.076 C 
HETATM   29  C   UNL     1       1.124   1.700  -2.705  1.00  0.00     0.016 C 
ENDBRANCH  27  28
ENDBRANCH   1  27
BRANCH   6  30
HETATM   30  C   UNL     1       5.094  -0.923  -0.996  1.00  0.00     0.253 C 
HETATM   31  N   UNL     1       5.987  -1.935  -1.180  1.00  0.00    -0.366 N 
HETATM   32  H   UNL     1       6.945  -1.776  -1.480  1.00  0.00     0.159 HD
HETATM   33  H   UNL     1       5.608  -2.862  -1.300  1.00  0.00     0.159 HD
HETATM   34  O   UNL     1       3.907  -1.216  -0.883  1.00  0.00    -0.268 OA
ENDBRANCH   6  30
TORSDOF 8
