REMARK  5 active torsions:
REMARK  status: ('A' for Active; 'I' for Inactive)
REMARK    1  A    between atoms: C_2  and  O_3 
REMARK    2  A    between atoms: C_2  and  C_4 
REMARK    3  A    between atoms: C_4  and  N_5 
REMARK       I    between atoms: N_5  and  C_6 
REMARK    4  A    between atoms: C_6  and  C_7 
REMARK    5  A    between atoms: C_15  and  C_16 
ROOT
HETATM    1  C   UNL     1       4.546   0.944   3.815  1.00  0.00     0.046 A 
HETATM    2  C   UNL     1       4.479   2.280   4.267  1.00  0.00     0.008 A 
HETATM    3  C   UNL     1       3.849   2.478   5.510  1.00  0.00     0.068 A 
HETATM    4  C   UNL     1       3.755   3.767   6.018  1.00  0.00     0.032 A 
HETATM    5  C   UNL     1       4.268   4.871   5.335  1.00  0.00     0.002 A 
HETATM    6  C   UNL     1       4.893   4.690   4.111  1.00  0.00     0.001 A 
HETATM    7  C   UNL     1       5.001   3.406   3.580  1.00  0.00     0.015 A 
HETATM    8  N   UNL     1       3.335   1.472   6.239  1.00  0.00    -0.248 NA
HETATM    9  C   UNL     1       3.405   0.199   5.783  1.00  0.00     0.068 A 
HETATM   10  C   UNL     1       3.999  -0.099   4.569  1.00  0.00     0.050 A 
ENDROOT
BRANCH   1  11
HETATM   11  C   UNL     1       5.171   0.590   2.516  1.00  0.00     0.252 C 
HETATM   12  N   UNL     1       6.075  -0.450   2.565  1.00  0.00    -0.354 N 
HETATM   13  H   UNL     1       6.356  -0.842   3.455  1.00  0.00     0.162 HD
HETATM   14  O   UNL     1       4.892   1.195   1.491  1.00  0.00    -0.268 OA
BRANCH  12  15
HETATM   15  C   UNL     1       6.754  -0.926   1.368  1.00  0.00     0.154 C 
BRANCH  15  16
HETATM   16  C   UNL     1       7.916  -0.011   0.957  1.00  0.00     0.132 C 
HETATM   17  C   UNL     1       8.643  -0.561  -0.260  1.00  0.00     0.041 C 
BRANCH  16  18
HETATM   18  O   UNL     1       8.855   0.075   2.034  1.00  0.00    -0.394 OA
HETATM   19  H   UNL     1       8.399   0.559   2.745  1.00  0.00     0.210 HD
ENDBRANCH  16  18
ENDBRANCH  15  16
ENDBRANCH  12  15
ENDBRANCH   1  11
BRANCH   9  20
HETATM   20  C   UNL     1       2.801  -0.828   6.659  1.00  0.00    -0.007 A 
HETATM   21  C   UNL     1       1.678  -0.522   7.452  1.00  0.00     0.015 A 
HETATM   22  C   UNL     1       1.088  -1.479   8.286  1.00  0.00     0.024 A 
HETATM   23  C   UNL     1       1.619  -2.762   8.345  1.00  0.00     0.034 A 
HETATM   24 CL   UNL     1       0.900  -3.942   9.368  1.00  0.00    -0.084 Cl
HETATM   25  C   UNL     1       2.733  -3.094   7.581  1.00  0.00     0.024 A 
HETATM   26  C   UNL     1       3.319  -2.134   6.747  1.00  0.00     0.015 A 
ENDBRANCH   9  20
TORSDOF 5
