REMARK  5 active torsions:
REMARK  status: ('A' for Active; 'I' for Inactive)
REMARK    1  A    between atoms: C_3  and  C_4 
REMARK       I    between atoms: C_4  and  N_5 
REMARK    2  A    between atoms: C_7  and  N_8 
REMARK    3  A    between atoms: N_8  and  C_9 
REMARK    4  A    between atoms: C_9  and  C_10 
REMARK    5  A    between atoms: C_10  and  C_11 
ROOT
HETATM    1  C   UNL     1       0.994  -0.197   0.086  1.00  0.00     0.049 C 
HETATM    2  C   UNL     1       2.484   0.005   0.029  1.00  0.00    -0.041 A 
HETATM    3  C   UNL     1       3.385  -1.072   0.055  1.00  0.00     0.081 A 
HETATM    4  C   UNL     1       4.781  -0.857   0.044  1.00  0.00     0.117 A 
HETATM    5  N   UNL     1       5.203   0.421   0.055  1.00  0.00    -0.346 N 
HETATM    6  H   UNL     1       6.202   0.584   0.113  1.00  0.00     0.167 HD
HETATM    7  C   UNL     1       4.388   1.491   0.033  1.00  0.00     0.007 A 
HETATM    8  C   UNL     1       4.992   2.859   0.055  1.00  0.00     0.068 C 
HETATM    9  C   UNL     1       3.007   1.299   0.017  1.00  0.00     0.032 A 
ENDROOT
BRANCH   4  10
HETATM   10  N   UNL     1       5.704  -1.892   0.143  1.00  0.00    -0.375 N 
HETATM   11  H   UNL     1       5.371  -2.759  -0.291  1.00  0.00     0.161 HD
BRANCH  10  12
HETATM   12  C   UNL     1       7.142  -1.688   0.002  1.00  0.00     0.126 C 
BRANCH  12  13
HETATM   13  C   UNL     1       7.903  -3.013   0.133  1.00  0.00     0.058 C 
BRANCH  13  14
HETATM   14  C   UNL     1       9.392  -2.769   0.120  1.00  0.00    -0.057 A 
HETATM   15  C   UNL     1      10.097  -2.650   1.328  1.00  0.00     0.010 A 
HETATM   16  C   UNL     1      11.465  -2.372   1.321  1.00  0.00     0.043 A 
HETATM   17  C   UNL     1      12.126  -2.210   0.110  1.00  0.00     0.116 A 
HETATM   18  F   UNL     1      13.435  -1.931   0.105  1.00  0.00    -0.206 F 
HETATM   19  C   UNL     1      11.446  -2.329  -1.096  1.00  0.00     0.043 A 
HETATM   20  C   UNL     1      10.079  -2.609  -1.094  1.00  0.00     0.010 A 
ENDBRANCH  13  14
ENDBRANCH  12  13
ENDBRANCH  10  12
ENDBRANCH   4  10
BRANCH   3  21
HETATM   21  C   UNL     1       2.877  -2.446   0.172  1.00  0.00     0.253 C 
HETATM   22  N   UNL     1       3.019  -3.242  -0.929  1.00  0.00    -0.366 N 
HETATM   23  H   UNL     1       3.144  -2.868  -1.861  1.00  0.00     0.159 HD
HETATM   24  H   UNL     1       2.541  -4.139  -0.876  1.00  0.00     0.159 HD
HETATM   25  O   UNL     1       2.352  -2.827   1.205  1.00  0.00    -0.268 OA
ENDBRANCH   3  21
TORSDOF 5
