REMARK  6 active torsions:
REMARK  status: ('A' for Active; 'I' for Inactive)
REMARK    1  A    between atoms: N_2  and  C_4 
REMARK    2  A    between atoms: N_2  and  C_23 
REMARK    3  A    between atoms: C_4  and  C_5 
REMARK       I    between atoms: C_5  and  N_6 
REMARK    4  A    between atoms: N_6  and  C_7 
REMARK    5  A    between atoms: C_8  and  O_9 
REMARK    6  A    between atoms: C_23  and  C_24 
ROOT
HETATM    1  C   UNL     1       2.499   1.668   1.443  1.00  0.00     0.248 C 
HETATM    2  N   UNL     1       2.001   2.282   0.316  1.00  0.00    -0.323 N 
HETATM    3  O   UNL     1       2.713   0.462   1.559  1.00  0.00    -0.271 OA
HETATM    4  H   UNL     1       1.515   3.174   0.387  1.00  0.00     0.169 HD
ENDROOT
BRANCH   2   5
HETATM    5  C   UNL     1       1.911   1.697  -0.970  1.00  0.00     0.071 A 
HETATM    6  C   UNL     1       1.028   2.293  -1.889  1.00  0.00     0.096 A 
HETATM    7  C   UNL     1       0.937   1.854  -3.219  1.00  0.00     0.054 A 
HETATM    8  C   UNL     1       1.738   0.767  -3.619  1.00  0.00     0.014 A 
HETATM    9  C   UNL     1       2.577   0.185  -2.677  1.00  0.00     0.089 A 
HETATM   10  C   UNL     1       1.952   0.044  -4.830  1.00  0.00     0.011 A 
HETATM   11  O   UNL     1       3.286  -0.836  -3.230  1.00  0.00    -0.309 OA
HETATM   12  C   UNL     1       2.694   0.603  -1.352  1.00  0.00     0.070 A 
HETATM   13  C   UNL     1       2.910  -0.920  -4.535  1.00  0.00     0.087 A 
HETATM   14  C   UNL     1       3.410  -1.838  -5.456  1.00  0.00     0.038 A 
HETATM   15  C   UNL     1       2.896  -1.762  -6.753  1.00  0.00     0.003 A 
HETATM   16  C   UNL     1       1.931  -0.811  -7.093  1.00  0.00     0.001 A 
HETATM   17  C   UNL     1       1.447   0.102  -6.143  1.00  0.00     0.015 A 
BRANCH   6  18
HETATM   18  O   UNL     1       0.272   3.352  -1.432  1.00  0.00    -0.354 OA
HETATM   19  C   UNL     1      -1.128   3.093  -1.576  1.00  0.00     0.210 C 
ENDBRANCH   6  18
ENDBRANCH   2   5
BRANCH   1  20
HETATM   20  C   UNL     1       2.764   2.615   2.616  1.00  0.00     0.337 C 
BRANCH  20  21
HETATM   21  N   UNL     1       3.041   1.897   3.945  1.00  0.00    -0.063 N 
HETATM   22  C   UNL     1       2.995   2.848   5.100  1.00  0.00     0.270 C 
HETATM   23  H   UNL     1       2.259   1.237   4.051  1.00  0.00     0.280 HD
BRANCH  21  24
HETATM   24  C   UNL     1       4.264   0.993   3.973  1.00  0.00     0.273 C 
BRANCH  24  25
HETATM   25  C   UNL     1       5.586   1.645   3.668  1.00  0.00    -0.032 A 
HETATM   26  C   UNL     1       6.385   2.157   4.706  1.00  0.00     0.012 A 
HETATM   27  C   UNL     1       7.626   2.732   4.425  1.00  0.00     0.043 A 
HETATM   28  C   UNL     1       8.070   2.801   3.111  1.00  0.00     0.116 A 
HETATM   29  F   UNL     1       9.262   3.348   2.846  1.00  0.00    -0.206 F 
HETATM   30  C   UNL     1       7.299   2.299   2.070  1.00  0.00     0.043 A 
HETATM   31  C   UNL     1       6.061   1.716   2.347  1.00  0.00     0.012 A 
ENDBRANCH  24  25
ENDBRANCH  21  24
ENDBRANCH  20  21
ENDBRANCH   1  20
TORSDOF 6
