REMARK  5 active torsions:
REMARK  status: ('A' for Active; 'I' for Inactive)
REMARK    1  A    between atoms: C_2  and  C_3 
REMARK    2  A    between atoms: C_3  and  C_4 
REMARK    3  A    between atoms: C_10  and  C_11 
REMARK    4  A    between atoms: C_12  and  O_13 
REMARK    5  A    between atoms: C_22  and  N_23 
ROOT
HETATM    1  C   UNL     1       4.399   1.557  -0.121  1.00  0.00     0.066 A 
HETATM    2  N   UNL     1       5.193   1.647   0.960  1.00  0.00    -0.177 NA
HETATM    3  N   UNL     1       6.443   1.525   0.469  1.00  0.00    -0.256 N 
HETATM    4  H   UNL     1       7.226   1.545   1.112  1.00  0.00     0.191 HD
HETATM    5  C   UNL     1       6.462   1.351  -0.876  1.00  0.00     0.175 A 
HETATM    6  C   UNL     1       5.160   1.395  -1.303  1.00  0.00     0.035 A 
HETATM    7  C   UNL     1       4.841   1.211  -2.748  1.00  0.00     0.107 A 
HETATM    8  C   UNL     1       6.107   0.824  -3.512  1.00  0.00     0.067 A 
HETATM    9  C   UNL     1       5.919   0.347  -4.943  1.00  0.00     0.020 C 
HETATM   10  N   UNL     1       5.763  -0.048  -6.130  1.00  0.00    -0.096 N 
HETATM   11  C   UNL     1       7.347   0.805  -2.952  1.00  0.00     0.139 A 
HETATM   12  O   UNL     1       7.555   1.142  -1.601  1.00  0.00    -0.279 OA
ENDROOT
BRANCH   7  13
HETATM   13  C   UNL     1       4.256   2.535  -3.223  1.00  0.00    -0.010 A 
HETATM   14  C   UNL     1       2.969   2.590  -3.779  1.00  0.00     0.073 A 
HETATM   15  C   UNL     1       2.425   3.790  -4.242  1.00  0.00     0.038 A 
HETATM   16  C   UNL     1       3.169   4.967  -4.162  1.00  0.00     0.022 A 
HETATM   17  C   UNL     1       4.451   4.934  -3.623  1.00  0.00     0.011 A 
HETATM   18 BR   UNL     1       5.467   6.525  -3.519  1.00  0.00    -0.051 Br
HETATM   19  C   UNL     1       4.996   3.735  -3.161  1.00  0.00     0.030 A 
BRANCH  14  20
HETATM   20  O   UNL     1       2.240   1.439  -3.867  1.00  0.00    -0.360 OA
HETATM   21  H   UNL     1       1.417   1.619  -4.353  1.00  0.00     0.217 HD
ENDBRANCH  14  20
ENDBRANCH   7  13
BRANCH  11  22
HETATM   22  N   UNL     1       8.510   0.456  -3.599  1.00  0.00    -0.282 NA
HETATM   23  H   UNL     1       8.507   0.576  -4.609  1.00  0.00     0.126 HD
HETATM   24  H   UNL     1       9.332   0.854  -3.152  1.00  0.00     0.126 HD
ENDBRANCH  11  22
BRANCH   1  25
HETATM   25  C   UNL     1       2.915   1.603   0.034  1.00  0.00     0.061 C 
BRANCH  25  26
HETATM   26  C   UNL     1       2.402   3.005   0.363  1.00  0.00     0.002 C 
HETATM   27  C   UNL     1       0.889   3.020   0.515  1.00  0.00     0.005 C 
ENDBRANCH  25  26
ENDBRANCH   1  25
TORSDOF 5
