REMARK  2 active torsions:
REMARK  status: ('A' for Active; 'I' for Inactive)
REMARK       I    between atoms: C_2  and  N_3 
REMARK       I    between atoms: C_2  and  N_21 
REMARK    1  A    between atoms: N_3  and  C_4 
REMARK    2  A    between atoms: C_7  and  C_10 
ROOT
HETATM    1  C   UNL     1       2.022  -1.893   1.321  1.00  0.00     0.036 A 
HETATM    2  C   UNL     1       2.598  -3.169   1.351  1.00  0.00     0.030 A 
HETATM    3  C   UNL     1       2.017  -4.197   2.102  1.00  0.00     0.014 A 
HETATM    4  C   UNL     1       0.860  -3.956   2.851  1.00  0.00    -0.024 A 
HETATM    5  C   UNL     1       0.306  -2.672   2.851  1.00  0.00     0.014 A 
HETATM    6  C   UNL     1       0.882  -1.649   2.090  1.00  0.00     0.030 A 
ENDROOT
BRANCH   1   7
HETATM    7  N   UNL     1       2.648  -0.912   0.524  1.00  0.00    -0.309 N 
HETATM    8  C   UNL     1       2.093   0.282   0.090  1.00  0.00     0.327 C 
HETATM    9  O   UNL     1       0.909   0.571   0.247  1.00  0.00    -0.247 OA
HETATM   10  N   UNL     1       3.007   1.116  -0.545  1.00  0.00    -0.299 N 
HETATM   11  C   UNL     1       4.469   0.943  -0.598  1.00  0.00     0.138 C 
HETATM   12  C   UNL     1       2.685   2.307  -1.229  1.00  0.00     0.045 A 
HETATM   13  C   UNL     1       5.070   2.226  -1.185  1.00  0.00     0.061 C 
HETATM   14  C   UNL     1       3.850   2.953  -1.647  1.00  0.00    -0.030 A 
HETATM   15  C   UNL     1       3.800   4.144  -2.357  1.00  0.00     0.009 A 
HETATM   16  C   UNL     1       2.550   4.684  -2.659  1.00  0.00     0.001 A 
HETATM   17  C   UNL     1       1.378   4.036  -2.243  1.00  0.00     0.002 A 
HETATM   18  C   UNL     1       1.441   2.841  -1.521  1.00  0.00     0.030 A 
HETATM   19  H   UNL     1       3.475  -1.207   0.033  1.00  0.00     0.170 HD
ENDBRANCH   1   7
BRANCH   4  20
HETATM   20  C   UNL     1       0.215  -5.040   3.620  1.00  0.00     0.001 A 
HETATM   21  C   UNL     1       0.846  -5.448   4.736  1.00  0.00     0.104 A 
HETATM   22  N   UNL     1       0.343  -6.425   5.553  1.00  0.00    -0.332 N 
HETATM   23  C   UNL     1      -0.848  -7.081   5.342  1.00  0.00     0.256 A 
HETATM   24  H   UNL     1       0.848  -6.701   6.387  1.00  0.00     0.168 HD
HETATM   25  O   UNL     1      -1.253  -7.945   6.111  1.00  0.00    -0.267 OA
HETATM   26  C   UNL     1      -1.606  -6.683   4.131  1.00  0.00     0.043 A 
HETATM   27  C   UNL     1      -2.828  -7.303   3.845  1.00  0.00     0.018 A 
HETATM   28  C   UNL     1      -1.080  -5.689   3.288  1.00  0.00    -0.008 A 
HETATM   29  C   UNL     1      -3.540  -6.939   2.704  1.00  0.00     0.001 A 
HETATM   30  C   UNL     1      -3.028  -5.962   1.851  1.00  0.00     0.001 A 
HETATM   31  C   UNL     1      -1.807  -5.344   2.138  1.00  0.00     0.013 A 
ENDBRANCH   4  20
TORSDOF 2
