REMARK  5 active torsions:
REMARK  status: ('A' for Active; 'I' for Inactive)
REMARK    1  A    between atoms: C_4  and  C_5 
REMARK    2  A    between atoms: C_5  and  C_6 
REMARK       I    between atoms: C_6  and  N_7 
REMARK    3  A    between atoms: N_7  and  C_8 
REMARK    4  A    between atoms: C_8  and  C_9 
REMARK    5  A    between atoms: N_11  and  C_12 
ROOT
HETATM    1  C   UNL     1       1.488  -0.179   2.335  1.00  0.00     0.184 C 
ENDROOT
BRANCH   1   2
HETATM    2  N   UNL     1       2.926  -0.255   2.172  1.00  0.00    -0.354 N 
HETATM    3  C   UNL     1       3.705   0.841   1.865  1.00  0.00     0.231 C 
HETATM    4  O   UNL     1       3.216   1.958   1.706  1.00  0.00    -0.272 OA
HETATM    5  H   UNL     1       3.343  -1.179   2.174  1.00  0.00     0.162 HD
BRANCH   3   6
HETATM    6  C   UNL     1       5.232   0.561   1.768  1.00  0.00     0.072 C 
HETATM    7  C   UNL     1       5.700   0.102   3.179  1.00  0.00     0.050 C 
HETATM    8  C   UNL     1       7.218   0.125   3.337  1.00  0.00     0.169 C 
HETATM    9  O   UNL     1       7.746   1.409   3.025  1.00  0.00    -0.391 OA
HETATM   10  C   UNL     1       7.466   1.788   1.680  1.00  0.00     0.169 C 
HETATM   11  C   UNL     1       5.963   1.905   1.479  1.00  0.00     0.050 C 
BRANCH   6  12
HETATM   12  C   UNL     1       5.473  -0.455   0.627  1.00  0.00    -0.040 A 
HETATM   13  C   UNL     1       5.200  -0.084  -0.705  1.00  0.00     0.008 A 
HETATM   14  C   UNL     1       5.393  -0.973  -1.765  1.00  0.00     0.001 A 
HETATM   15  C   UNL     1       5.848  -2.263  -1.518  1.00  0.00     0.000 A 
HETATM   16  C   UNL     1       6.099  -2.664  -0.211  1.00  0.00     0.001 A 
HETATM   17  C   UNL     1       5.909  -1.773   0.851  1.00  0.00     0.008 A 
ENDBRANCH   6  12
ENDBRANCH   3   6
ENDBRANCH   1   2
BRANCH   1  18
HETATM   18  C   UNL     1       1.147  -0.648   3.745  1.00  0.00     0.084 A 
HETATM   19  N   UNL     1       0.882  -1.912   3.894  1.00  0.00    -0.171 NA
HETATM   20  N   UNL     1       0.586  -2.405   5.141  1.00  0.00    -0.229 N 
HETATM   21  C   UNL     1       0.470  -1.606   6.279  1.00  0.00     0.275 A 
HETATM   22  O   UNL     1       0.109  -2.019   7.379  1.00  0.00    -0.266 OA
HETATM   23  C   UNL     1       0.813  -0.181   6.124  1.00  0.00     0.046 A 
HETATM   24  C   UNL     1       1.156   0.313   4.870  1.00  0.00     0.008 A 
HETATM   25  C   UNL     1       0.792   0.667   7.240  1.00  0.00     0.018 A 
HETATM   26  C   UNL     1       1.487   1.667   4.733  1.00  0.00     0.014 A 
HETATM   27  C   UNL     1       1.470   2.512   5.846  1.00  0.00     0.001 A 
HETATM   28  C   UNL     1       1.121   2.014   7.099  1.00  0.00     0.001 A 
BRANCH  20  29
HETATM   29  C   UNL     1       0.163  -3.803   5.225  1.00  0.00     0.114 C 
HETATM   30  C   UNL     1      -1.338  -3.967   4.973  1.00  0.00     0.027 C 
HETATM   31  C   UNL     1      -1.469  -5.443   4.641  1.00  0.00     0.002 C 
HETATM   32  C   UNL     1      -0.270  -5.709   3.743  1.00  0.00     0.002 C 
HETATM   33  C   UNL     1       0.837  -4.777   4.243  1.00  0.00     0.027 C 
ENDBRANCH  20  29
ENDBRANCH   1  18
TORSDOF 5
