REMARK  6 active torsions:
REMARK  status: ('A' for Active; 'I' for Inactive)
REMARK    1  A    between atoms: C_5  and  C_6 
REMARK    2  A    between atoms: C_6  and  C_7 
REMARK       I    between atoms: C_7  and  N_8 
REMARK    3  A    between atoms: N_8  and  N_9 
REMARK       I    between atoms: N_9  and  C_10 
REMARK    4  A    between atoms: C_10  and  C_11 
REMARK    5  A    between atoms: C_15  and  C_16 
REMARK    6  A    between atoms: C_19  and  O_20 
ROOT
HETATM    1  N   UNL     1       5.153  -2.601  -1.343  1.00  0.00    -0.262 N 
HETATM    2  C   UNL     1       4.381  -3.431  -0.558  1.00  0.00     0.288 C 
HETATM    3  O   UNL     1       3.191  -3.209  -0.345  1.00  0.00    -0.264 OA
HETATM    4  H   UNL     1       6.162  -2.703  -1.430  1.00  0.00     0.190 HD
ENDROOT
BRANCH   2   5
HETATM    5  C   UNL     1       5.075  -4.564  -0.010  1.00  0.00     0.121 A 
HETATM    6  N   UNL     1       4.449  -5.500   0.763  1.00  0.00    -0.272 N 
HETATM    7  H   UNL     1       3.470  -5.512   1.034  1.00  0.00     0.189 HD
HETATM    8  N   UNL     1       5.247  -6.495   1.178  1.00  0.00    -0.174 NA
HETATM    9  C   UNL     1       6.456  -6.195   0.676  1.00  0.00     0.089 A 
HETATM   10  C   UNL     1       6.386  -4.993  -0.082  1.00  0.00     0.071 A 
BRANCH   9  11
HETATM   11  C   UNL     1       7.630  -7.042   0.907  1.00  0.00    -0.005 A 
HETATM   12  C   UNL     1       7.481  -8.381   1.289  1.00  0.00     0.016 A 
HETATM   13  C   UNL     1       8.601  -9.196   1.484  1.00  0.00     0.037 A 
HETATM   14  C   UNL     1       9.890  -8.690   1.304  1.00  0.00     0.068 A 
HETATM   15  C   UNL     1      10.050  -7.355   0.939  1.00  0.00     0.037 A 
HETATM   16  C   UNL     1       8.928  -6.538   0.742  1.00  0.00     0.016 A 
BRANCH  14  17
HETATM   17  O   UNL     1      10.896  -9.591   1.516  1.00  0.00    -0.356 OA
HETATM   18  C   UNL     1      12.223  -9.140   1.274  1.00  0.00     0.210 C 
ENDBRANCH  14  17
ENDBRANCH   9  11
ENDBRANCH   2   5
BRANCH   1  19
HETATM   19  N   UNL     1       4.625  -1.390  -1.798  1.00  0.00    -0.267 N 
HETATM   20  C   UNL     1       5.519  -0.407  -2.170  1.00  0.00     0.240 C 
HETATM   21  O   UNL     1       6.735  -0.602  -2.180  1.00  0.00    -0.272 OA
HETATM   22  H   UNL     1       3.621  -1.248  -1.700  1.00  0.00     0.190 HD
BRANCH  20  23
HETATM   23  C   UNL     1       4.885   0.903  -2.587  1.00  0.00     0.143 C 
BRANCH  23  24
HETATM   24  C   UNL     1       4.594   1.052  -4.063  1.00  0.00    -0.049 A 
HETATM   25  C   UNL     1       5.055   0.154  -5.034  1.00  0.00     0.008 A 
HETATM   26  C   UNL     1       4.771   0.358  -6.388  1.00  0.00     0.007 A 
HETATM   27  C   UNL     1       4.040   1.475  -6.803  1.00  0.00    -0.062 A 
HETATM   28  C   UNL     1       3.716   1.682  -8.253  1.00  0.00     0.048 C 
HETATM   29  C   UNL     1       3.574   2.373  -5.839  1.00  0.00     0.007 A 
HETATM   30  C   UNL     1       3.853   2.167  -4.486  1.00  0.00     0.008 A 
ENDBRANCH  23  24
ENDBRANCH  20  23
ENDBRANCH   1  19
TORSDOF 6
