REMARK  6 active torsions:
REMARK  status: ('A' for Active; 'I' for Inactive)
REMARK    1  A    between atoms: C_9  and  C_10 
REMARK    2  A    between atoms: C_10  and  N_11 
REMARK       I    between atoms: N_11  and  C_12 
REMARK    3  A    between atoms: N_11  and  C_22 
REMARK    4  A    between atoms: C_12  and  C_13 
REMARK    5  A    between atoms: C_15  and  O_16 
REMARK    6  A    between atoms: C_22  and  C_23 
ROOT
HETATM    1  N   UNL     1       8.780  -3.073  -0.159  1.00  0.00    -0.341 N 
HETATM    2  C   UNL     1       9.196  -1.886  -0.791  1.00  0.00     0.254 C 
HETATM    3  O   UNL     1       8.439  -1.135  -1.403  1.00  0.00    -0.267 OA
ENDROOT
BRANCH   1   4
HETATM    4  C   UNL     1       7.332  -3.304  -0.145  1.00  0.00     0.170 C 
BRANCH   4   5
HETATM    5  C   UNL     1       6.604  -2.294   0.700  1.00  0.00     0.029 A 
HETATM    6  C   UNL     1       6.960  -2.212   2.150  1.00  0.00     0.253 A 
HETATM    7  N   UNL     1       6.272  -1.301   2.911  1.00  0.00    -0.322 N 
HETATM    8  O   UNL     1       7.819  -2.927   2.661  1.00  0.00    -0.268 OA
HETATM    9  C   UNL     1       5.227  -0.510   2.421  1.00  0.00     0.045 A 
HETATM   10  H   UNL     1       6.533  -1.254   3.885  1.00  0.00     0.169 HD
HETATM   11  C   UNL     1       4.866  -0.614   1.075  1.00  0.00    -0.008 A 
HETATM   12  C   UNL     1       4.542   0.351   3.276  1.00  0.00     0.031 A 
HETATM   13  C   UNL     1       3.790   0.136   0.590  1.00  0.00     0.020 A 
HETATM   14  C   UNL     1       5.612  -1.526   0.212  1.00  0.00     0.028 A 
HETATM   15  C   UNL     1       3.069   0.979   1.447  1.00  0.00    -0.061 A 
HETATM   16  C   UNL     1       1.916   1.784   0.923  1.00  0.00     0.048 C 
HETATM   17  C   UNL     1       3.467   1.097   2.786  1.00  0.00     0.009 A 
ENDBRANCH   4   5
ENDBRANCH   1   4
BRANCH   1  18
HETATM   18  C   UNL     1       9.671  -4.254  -0.226  1.00  0.00     0.158 C 
BRANCH  18  19
HETATM   19  C   UNL     1       9.205  -5.530   0.496  1.00  0.00     0.139 C 
HETATM   20  O   UNL     1       8.241  -6.242  -0.314  1.00  0.00    -0.384 OA
HETATM   21  C   UNL     1       8.499  -7.649  -0.210  1.00  0.00     0.168 C 
HETATM   22  C   UNL     1       9.573  -7.824   0.841  1.00  0.00     0.029 C 
HETATM   23  C   UNL     1      10.332  -6.526   0.731  1.00  0.00     0.035 C 
ENDBRANCH  18  19
ENDBRANCH   1  18
BRANCH   2  24
HETATM   24  C   UNL     1      10.625  -1.494  -0.712  1.00  0.00     0.034 A 
HETATM   25  C   UNL     1      11.260  -1.033  -1.873  1.00  0.00     0.053 A 
HETATM   26  C   UNL     1      12.591  -0.624  -1.821  1.00  0.00     0.069 A 
HETATM   27  C   UNL     1      13.280  -0.684  -0.605  1.00  0.00     0.037 A 
HETATM   28  C   UNL     1      12.640  -1.114   0.560  1.00  0.00     0.004 A 
HETATM   29  C   UNL     1      11.304  -1.506   0.512  1.00  0.00     0.017 A 
BRANCH  26  30
HETATM   30  O   UNL     1      13.329  -0.158  -2.875  1.00  0.00    -0.356 OA
HETATM   31  C   UNL     1      12.612   0.153  -4.064  1.00  0.00     0.210 C 
ENDBRANCH  26  30
ENDBRANCH   2  24
TORSDOF 6
