REMARK  7 active torsions:
REMARK  status: ('A' for Active; 'I' for Inactive)
REMARK    1  A    between atoms: C_3  and  O_4 
REMARK    2  A    between atoms: O_4  and  C_5 
REMARK    3  A    between atoms: C_5  and  C_6 
REMARK       I    between atoms: C_6  and  N_7 
REMARK    4  A    between atoms: N_7  and  C_8 
REMARK    5  A    between atoms: C_11  and  N_12 
REMARK    6  A    between atoms: N_15  and  C_17 
REMARK    7  A    between atoms: C_17  and  C_18 
ROOT
HETATM    1  C   UNL     1       0.225   3.028  -0.368  1.00  0.00     0.034 A 
HETATM    2  C   UNL     1       0.907   1.837  -0.600  1.00  0.00     0.032 A 
HETATM    3  C   UNL     1       0.207   0.636  -0.802  1.00  0.00     0.031 A 
HETATM    4  C   UNL     1      -1.191   0.579  -0.760  1.00  0.00     0.030 A 
HETATM    5  C   UNL     1      -1.859   1.792  -0.533  1.00  0.00     0.031 A 
HETATM    6  C   UNL     1      -1.169   2.996  -0.343  1.00  0.00     0.032 A 
ENDROOT
BRANCH   4   7
HETATM    7  N   UNL     1      -1.919  -0.589  -0.972  1.00  0.00    -0.378 N 
HETATM    8  C   UNL     1      -2.953  -0.936   0.024  1.00  0.00     0.150 C 
HETATM    9  C   UNL     1      -2.423  -1.993   1.018  1.00  0.00     0.255 C 
HETATM   10  N   UNL     1      -1.901  -3.216   0.257  1.00  0.00    -0.064 N 
HETATM   11  H   UNL     1      -2.688  -3.573  -0.295  1.00  0.00     0.280 HD
HETATM   12  C   UNL     1      -0.805  -2.805  -0.724  1.00  0.00     0.255 C 
HETATM   13  C   UNL     1      -1.331  -1.728  -1.694  1.00  0.00     0.150 C 
BRANCH  10  14
HETATM   14  C   UNL     1      -1.455  -4.335   1.164  1.00  0.00     0.273 C 
BRANCH  14  15
HETATM   15  C   UNL     1      -2.583  -4.929   1.963  1.00  0.00    -0.033 A 
HETATM   16  C   UNL     1      -3.620  -5.634   1.328  1.00  0.00     0.009 A 
HETATM   17  C   UNL     1      -4.680  -6.153   2.072  1.00  0.00     0.001 A 
HETATM   18  C   UNL     1      -4.714  -5.982   3.454  1.00  0.00     0.000 A 
HETATM   19  C   UNL     1      -3.685  -5.297   4.097  1.00  0.00     0.001 A 
HETATM   20  C   UNL     1      -2.624  -4.772   3.357  1.00  0.00     0.009 A 
ENDBRANCH  14  15
ENDBRANCH  10  14
ENDBRANCH   4   7
BRANCH   1  21
HETATM   21  N   UNL     1       0.849   4.278  -0.184  1.00  0.00    -0.325 N 
HETATM   22  C   UNL     1       2.213   4.535  -0.077  1.00  0.00     0.246 C 
HETATM   23  O   UNL     1       3.097   3.685  -0.065  1.00  0.00    -0.271 OA
HETATM   24  H   UNL     1       0.228   5.073  -0.091  1.00  0.00     0.169 HD
BRANCH  22  25
HETATM   25  C   UNL     1       2.500   6.039   0.033  1.00  0.00     0.278 C 
BRANCH  25  26
HETATM   26  O   UNL     1       3.857   6.310   0.372  1.00  0.00    -0.342 OA
BRANCH  26  27
HETATM   27  C   UNL     1       3.925   7.213   1.399  1.00  0.00     0.075 A 
HETATM   28  C   UNL     1       3.930   8.591   1.148  1.00  0.00    -0.029 A 
HETATM   29  C   UNL     1       3.852   9.139  -0.247  1.00  0.00     0.051 C 
HETATM   30  C   UNL     1       3.975   9.467   2.241  1.00  0.00     0.009 A 
HETATM   31  C   UNL     1       4.055   8.973   3.546  1.00  0.00     0.001 A 
HETATM   32  C   UNL     1       4.092   7.598   3.774  1.00  0.00     0.003 A 
HETATM   33  C   UNL     1       4.032   6.715   2.699  1.00  0.00     0.037 A 
ENDBRANCH  26  27
ENDBRANCH  25  26
ENDBRANCH  22  25
ENDBRANCH   1  21
TORSDOF 7
