REMARK  3 active torsions:
REMARK  status: ('A' for Active; 'I' for Inactive)
REMARK    1  A    between atoms: C_6  and  C_7 
REMARK       I    between atoms: C_7  and  N_8 
REMARK    2  A    between atoms: N_8  and  C_9 
REMARK    3  A    between atoms: C_16  and  C_17 
REMARK       I    between atoms: C_17  and  N_18 
ROOT
HETATM    1  C   UNL     1       5.497  -2.532  -0.147  1.00  0.00     0.257 C 
HETATM    2  N   UNL     1       6.813  -2.262  -0.472  1.00  0.00    -0.323 N 
HETATM    3  O   UNL     1       4.984  -3.637  -0.017  1.00  0.00    -0.267 OA
HETATM    4  H   UNL     1       7.105  -1.293  -0.472  1.00  0.00     0.169 HD
ENDROOT
BRANCH   2   5
HETATM    5  C   UNL     1       7.811  -3.202  -0.803  1.00  0.00     0.036 A 
HETATM    6  C   UNL     1       7.528  -4.521  -1.183  1.00  0.00     0.046 A 
HETATM    7  C   UNL     1       8.586  -5.377  -1.558  1.00  0.00     0.030 A 
HETATM    8  C   UNL     1       9.890  -4.901  -1.493  1.00  0.00     0.063 A 
HETATM    9  C   UNL     1       8.705  -6.708  -2.061  1.00  0.00     0.156 A 
HETATM   10  N   UNL     1      10.678  -5.948  -1.881  1.00  0.00    -0.277 N 
HETATM   11  C   UNL     1      10.208  -3.598  -1.104  1.00  0.00     0.034 A 
HETATM   12  H   UNL     1      11.690  -5.967  -1.937  1.00  0.00     0.189 HD
HETATM   13  N   UNL     1      10.001  -7.048  -2.248  1.00  0.00    -0.168 NA
HETATM   14  C   UNL     1       9.138  -2.753  -0.785  1.00  0.00     0.032 A 
BRANCH   9  15
HETATM   15  C   UNL     1       7.619  -7.640  -2.397  1.00  0.00     0.270 C 
HETATM   16  N   UNL     1       8.047  -8.843  -2.889  1.00  0.00    -0.365 N 
HETATM   17  H   UNL     1       9.042  -8.987  -3.014  1.00  0.00     0.159 HD
HETATM   18  H   UNL     1       7.372  -9.523  -3.200  1.00  0.00     0.159 HD
HETATM   19  O   UNL     1       6.423  -7.391  -2.285  1.00  0.00    -0.266 OA
ENDBRANCH   9  15
ENDBRANCH   2   5
BRANCH   1  20
HETATM   20  C   UNL     1       4.624  -1.338   0.010  1.00  0.00     0.046 A 
HETATM   21  C   UNL     1       4.969  -0.192   0.768  1.00  0.00     0.009 A 
HETATM   22  C   UNL     1       4.065   0.891   0.692  1.00  0.00     0.071 A 
HETATM   23  C   UNL     1       6.116  -0.062   1.596  1.00  0.00     0.018 A 
HETATM   24  N   UNL     1       2.915   0.839   0.002  1.00  0.00    -0.253 NA
HETATM   25  C   UNL     1       4.359   2.068   1.360  1.00  0.00     0.074 A 
HETATM   26  C   UNL     1       2.578  -0.298  -0.645  1.00  0.00     0.032 A 
HETATM   27  C   UNL     1       1.254  -0.328  -1.348  1.00  0.00     0.070 C 
HETATM   28  C   UNL     1       3.407  -1.400  -0.675  1.00  0.00     0.044 A 
HETATM   29  C   UNL     1       5.510   2.191   2.126  1.00  0.00     0.118 A 
HETATM   30  F   UNL     1       5.767   3.345   2.754  1.00  0.00    -0.206 F 
HETATM   31  C   UNL     1       6.389   1.131   2.262  1.00  0.00     0.043 A 
ENDBRANCH   1  20
TORSDOF 3
