REMARK  4 active torsions:
REMARK  status: ('A' for Active; 'I' for Inactive)
REMARK    1  A    between atoms: C_3  and  N_4 
REMARK       I    between atoms: N_4  and  C_5 
REMARK    2  A    between atoms: C_5  and  C_6 
REMARK    3  A    between atoms: C_7  and  C_8 
REMARK    4  A    between atoms: C_11  and  O_12 
ROOT
HETATM    1  C   UNL     1       4.644   3.688  -0.293  1.00  0.00     0.062 C 
HETATM    2  C   UNL     1       5.298   5.058  -0.379  1.00  0.00     0.202 C 
HETATM    3  N   UNL     1       6.712   4.980  -0.005  1.00  0.00    -0.083 N 
HETATM    4  C   UNL     1       7.270   3.913   0.645  1.00  0.00     0.726 A 
HETATM    5  N   UNL     1       6.508   2.831   0.910  1.00  0.00    -0.192 N 
HETATM    6  N   UNL     1       7.630   5.926  -0.287  1.00  0.00    -0.141 NA
HETATM    7  C   UNL     1       8.722   5.388   0.278  1.00  0.00     0.162 A 
HETATM    8  C   UNL     1      10.039   6.055   0.250  1.00  0.00     0.096 C 
HETATM    9  N   UNL     1       8.539   4.152   0.858  1.00  0.00    -0.046 NA
HETATM   10  C   UNL     1       5.250   2.650   0.337  1.00  0.00     0.037 C 
HETATM   11  C   UNL     1       4.670   1.262   0.439  1.00  0.00     0.070 C 
HETATM   12  H   UNL     1       6.978   1.998   1.258  1.00  0.00     0.184 HD
ENDROOT
BRANCH   1  13
HETATM   13  C   UNL     1       3.444   3.465  -1.136  1.00  0.00     0.256 C 
HETATM   14  N   UNL     1       2.336   4.167  -0.720  1.00  0.00    -0.323 N 
HETATM   15  H   UNL     1       2.439   4.748   0.101  1.00  0.00     0.169 HD
HETATM   16  O   UNL     1       3.540   2.713  -2.099  1.00  0.00    -0.267 OA
BRANCH  14  17
HETATM   17  C   UNL     1       1.051   4.179  -1.320  1.00  0.00     0.041 A 
HETATM   18  C   UNL     1       0.060   5.041  -0.799  1.00  0.00    -0.035 A 
HETATM   19  C   UNL     1       0.319   5.970   0.357  1.00  0.00     0.050 C 
HETATM   20  C   UNL     1      -1.216   5.068  -1.393  1.00  0.00     0.009 A 
HETATM   21  C   UNL     1      -1.518   4.251  -2.480  1.00  0.00     0.001 A 
HETATM   22  C   UNL     1      -0.547   3.400  -2.989  1.00  0.00     0.002 A 
HETATM   23  C   UNL     1       0.726   3.366  -2.414  1.00  0.00     0.030 A 
ENDBRANCH  14  17
ENDBRANCH   1  13
BRANCH   2  24
HETATM   24  C   UNL     1       4.609   6.100   0.502  1.00  0.00    -0.028 A 
HETATM   25  C   UNL     1       4.368   5.867   1.867  1.00  0.00     0.012 A 
HETATM   26  C   UNL     1       3.758   6.842   2.658  1.00  0.00     0.037 A 
HETATM   27  C   UNL     1       3.396   8.074   2.114  1.00  0.00     0.068 A 
HETATM   28  C   UNL     1       3.625   8.316   0.761  1.00  0.00     0.037 A 
HETATM   29  C   UNL     1       4.227   7.337  -0.040  1.00  0.00     0.012 A 
BRANCH  27  30
HETATM   30  O   UNL     1       2.821   8.945   2.998  1.00  0.00    -0.356 OA
HETATM   31  C   UNL     1       2.773  10.310   2.599  1.00  0.00     0.210 C 
ENDBRANCH  27  30
ENDBRANCH   2  24
TORSDOF 4
