REMARK  8 active torsions:
REMARK  status: ('A' for Active; 'I' for Inactive)
REMARK    1  A    between atoms: S_2  and  C_3 
REMARK    2  A    between atoms: C_4  and  N_5 
REMARK       I    between atoms: N_5  and  C_6 
REMARK    3  A    between atoms: C_6  and  C_7 
REMARK       I    between atoms: C_7  and  N_8 
REMARK    4  A    between atoms: N_8  and  C_9 
REMARK    5  A    between atoms: C_9  and  C_10 
REMARK    6  A    between atoms: C_10  and  C_11 
REMARK    7  A    between atoms: C_13  and  O_14 
REMARK    8  A    between atoms: N_20  and  C_21 
ROOT
HETATM    1  N   UNL     1       4.575   0.383  -2.843  1.00  0.00    -0.302 N 
HETATM    2  C   UNL     1       5.497   0.590  -3.923  1.00  0.00     0.315 C 
HETATM    3  O   UNL     1       5.866   1.736  -4.118  1.00  0.00    -0.262 OA
HETATM    4  H   UNL     1       4.522   1.154  -2.187  1.00  0.00     0.171 HD
ENDROOT
BRANCH   2   5
HETATM    5  C   UNL     1       6.109  -0.590  -4.717  1.00  0.00     0.309 C 
HETATM    6  N   UNL     1       7.260  -0.258  -5.411  1.00  0.00    -0.353 N 
HETATM    7  H   UNL     1       7.635   0.680  -5.286  1.00  0.00     0.162 HD
HETATM    8  O   UNL     1       5.618  -1.707  -4.677  1.00  0.00    -0.262 OA
BRANCH   6   9
HETATM    9  C   UNL     1       8.086  -1.275  -6.037  1.00  0.00     0.128 C 
BRANCH   9  10
HETATM   10  C   UNL     1       9.118  -0.668  -6.987  1.00  0.00     0.058 C 
BRANCH  10  11
HETATM   11  C   UNL     1      10.006  -1.719  -7.601  1.00  0.00    -0.054 A 
HETATM   12  C   UNL     1       9.648  -2.333  -8.810  1.00  0.00     0.043 A 
HETATM   13  C   UNL     1      10.471  -3.315  -9.358  1.00  0.00     0.066 A 
HETATM   14  C   UNL     1      11.643  -3.701  -8.721  1.00  0.00     0.036 A 
HETATM   15  C   UNL     1      12.003  -3.100  -7.517  1.00  0.00     0.003 A 
HETATM   16  C   UNL     1      11.188  -2.114  -6.957  1.00  0.00     0.007 A 
BRANCH  13  17
HETATM   17  O   UNL     1      10.159  -3.929 -10.534  1.00  0.00    -0.361 OA
HETATM   18  H   UNL     1       9.336  -3.547 -10.881  1.00  0.00     0.217 HD
ENDBRANCH  13  17
ENDBRANCH  10  11
ENDBRANCH   9  10
ENDBRANCH   6   9
ENDBRANCH   2   5
BRANCH   1  19
HETATM   19  C   UNL     1       4.207  -0.879  -2.398  1.00  0.00     0.150 A 
HETATM   20  C   UNL     1       4.790  -1.490  -1.311  1.00  0.00     0.065 A 
HETATM   21  C   UNL     1       4.159  -2.736  -1.209  1.00  0.00     0.161 A 
HETATM   22  N   UNL     1       3.240  -2.920  -2.156  1.00  0.00    -0.176 NA
HETATM   23  N   UNL     1       3.235  -1.761  -2.879  1.00  0.00    -0.216 N 
BRANCH  20  24
HETATM   24  S   UNL     1       6.069  -0.848  -0.315  1.00  0.00    -0.129 SA
HETATM   25  C   UNL     1       7.177  -2.275  -0.199  1.00  0.00     0.096 C 
ENDBRANCH  20  24
BRANCH  23  26
HETATM   26  C   UNL     1       2.261  -1.567  -3.903  1.00  0.00     0.060 A 
HETATM   27  C   UNL     1       2.065  -0.325  -4.522  1.00  0.00     0.031 A 
HETATM   28  C   UNL     1       1.084  -0.179  -5.509  1.00  0.00     0.002 A 
HETATM   29  C   UNL     1       0.289  -1.261  -5.880  1.00  0.00     0.000 A 
HETATM   30  C   UNL     1       0.468  -2.495  -5.263  1.00  0.00     0.002 A 
HETATM   31  C   UNL     1       1.447  -2.650  -4.279  1.00  0.00     0.031 A 
ENDBRANCH  23  26
ENDBRANCH   1  19
TORSDOF 8
