REMARK  5 active torsions:
REMARK  status: ('A' for Active; 'I' for Inactive)
REMARK    1  A    between atoms: C_2  and  O_3 
REMARK    2  A    between atoms: O_3  and  C_4 
REMARK       I    between atoms: N_10  and  C_11 
REMARK    3  A    between atoms: C_11  and  C_13 
REMARK    4  A    between atoms: C_13  and  C_14 
REMARK    5  A    between atoms: C_17  and  C_20 
ROOT
HETATM    1  C   UNL     1       5.097   4.829   1.710  1.00  0.00    -0.049 A 
HETATM    2  C   UNL     1       4.805   5.488   0.506  1.00  0.00     0.008 A 
HETATM    3  C   UNL     1       4.652   6.875   0.477  1.00  0.00     0.014 A 
HETATM    4  C   UNL     1       4.813   7.612   1.654  1.00  0.00    -0.005 A 
HETATM    5  C   UNL     1       5.073   6.968   2.864  1.00  0.00     0.014 A 
HETATM    6  C   UNL     1       5.221   5.581   2.890  1.00  0.00     0.008 A 
ENDROOT
BRANCH   1   7
HETATM    7  C   UNL     1       5.297   3.327   1.736  1.00  0.00     0.141 C 
BRANCH   7   8
HETATM    8  C   UNL     1       6.750   2.892   1.833  1.00  0.00     0.228 C 
HETATM    9  N   UNL     1       7.049   1.542   1.908  1.00  0.00    -0.317 N 
HETATM   10  C   UNL     1       8.460   1.145   2.031  1.00  0.00     0.137 A 
HETATM   11  C   UNL     1       6.256   0.378   1.861  1.00  0.00     0.046 A 
HETATM   12  C   UNL     1       8.517  -0.378   2.127  1.00  0.00     0.061 A 
HETATM   13  C   UNL     1       7.077  -0.748   1.973  1.00  0.00    -0.029 A 
HETATM   14  C   UNL     1       6.563  -2.037   1.949  1.00  0.00     0.012 A 
HETATM   15  C   UNL     1       5.187  -2.204   1.802  1.00  0.00     0.037 A 
HETATM   16  C   UNL     1       4.349  -1.088   1.685  1.00  0.00     0.070 A 
HETATM   17  C   UNL     1       4.889   0.209   1.719  1.00  0.00     0.067 A 
HETATM   18  O   UNL     1       7.665   3.725   1.849  1.00  0.00    -0.273 OA
BRANCH  16  19
HETATM   19  O   UNL     1       2.987  -1.125   1.534  1.00  0.00    -0.351 OA
BRANCH  19  20
HETATM   20  C   UNL     1       2.374  -2.411   1.458  1.00  0.00     0.171 C 
HETATM   21  C   UNL     1       0.882  -2.208   1.267  1.00  0.00     0.034 C 
ENDBRANCH  19  20
ENDBRANCH  16  19
ENDBRANCH   7   8
ENDBRANCH   1   7
BRANCH   4  22
HETATM   22  C   UNL     1       4.679   9.088   1.638  1.00  0.00     0.098 A 
HETATM   23  N   UNL     1       3.721   9.600   2.354  1.00  0.00    -0.170 NA
HETATM   24  N   UNL     1       3.543  10.948   2.329  1.00  0.00    -0.242 N 
HETATM   25  C   UNL     1       4.261  11.845   1.577  1.00  0.00     0.272 A 
HETATM   26  H   UNL     1       2.773  11.312   2.880  1.00  0.00     0.192 HD
HETATM   27  O   UNL     1       4.008  13.045   1.566  1.00  0.00    -0.266 OA
HETATM   28  C   UNL     1       5.373  11.288   0.792  1.00  0.00     0.046 A 
HETATM   29  C   UNL     1       6.198  12.136   0.040  1.00  0.00     0.018 A 
HETATM   30  C   UNL     1       5.612   9.916   0.831  1.00  0.00     0.011 A 
HETATM   31  C   UNL     1       7.279  11.607  -0.663  1.00  0.00     0.001 A 
HETATM   32  C   UNL     1       7.542  10.239  -0.604  1.00  0.00     0.001 A 
HETATM   33  C   UNL     1       6.718   9.394   0.146  1.00  0.00     0.015 A 
ENDBRANCH   4  22
TORSDOF 5
