REMARK  5 active torsions:
REMARK  status: ('A' for Active; 'I' for Inactive)
REMARK    1  A    between atoms: C_4  and  C_5 
REMARK    2  A    between atoms: C_9  and  C_10 
REMARK       I    between atoms: C_10  and  N_11 
REMARK    3  A    between atoms: N_11  and  C_12 
REMARK    4  A    between atoms: C_14  and  C_15 
REMARK       I    between atoms: C_15  and  N_16 
REMARK    5  A    between atoms: N_16  and  C_17 
ROOT
HETATM    1  C   UNL     1       5.734  -1.207  -0.341  1.00  0.00     0.276 C 
HETATM    2  N   UNL     1       6.998  -0.699  -0.587  1.00  0.00    -0.322 N 
HETATM    3  O   UNL     1       4.708  -0.554  -0.182  1.00  0.00    -0.266 OA
HETATM    4  H   UNL     1       7.701  -1.416  -0.760  1.00  0.00     0.169 HD
ENDROOT
BRANCH   2   5
HETATM    5  C   UNL     1       7.365   0.654  -0.700  1.00  0.00     0.036 A 
HETATM    6  C   UNL     1       6.492   1.705  -0.408  1.00  0.00     0.046 A 
HETATM    7  C   UNL     1       6.881   3.038  -0.596  1.00  0.00     0.034 A 
HETATM    8  C   UNL     1       8.180   3.324  -1.023  1.00  0.00     0.017 A 
HETATM    9  C   UNL     1       9.071   2.282  -1.285  1.00  0.00     0.003 A 
HETATM   10  C   UNL     1       8.663   0.953  -1.128  1.00  0.00     0.029 A 
BRANCH   7  11
HETATM   11  C   UNL     1       5.938   4.162  -0.327  1.00  0.00     0.252 C 
HETATM   12  N   UNL     1       4.593   3.867  -0.467  1.00  0.00    -0.352 N 
HETATM   13  H   UNL     1       4.320   2.966  -0.840  1.00  0.00     0.163 HD
HETATM   14  O   UNL     1       6.375   5.267  -0.024  1.00  0.00    -0.268 OA
BRANCH  12  15
HETATM   15  C   UNL     1       3.549   4.805  -0.200  1.00  0.00     0.084 A 
HETATM   16  C   UNL     1       2.385   4.935  -1.143  1.00  0.00     0.027 A 
HETATM   17  C   UNL     1       2.186   4.307   0.204  1.00  0.00     0.027 A 
ENDBRANCH  12  15
ENDBRANCH   7  11
ENDBRANCH   2   5
BRANCH   1  18
HETATM   18  C   UNL     1       5.705  -2.678  -0.317  1.00  0.00     0.147 A 
HETATM   19  N   UNL     1       6.802  -3.437  -0.510  1.00  0.00    -0.169 NA
HETATM   20  N   UNL     1       6.334  -4.700  -0.418  1.00  0.00    -0.277 N 
HETATM   21  C   UNL     1       4.987  -4.791  -0.175  1.00  0.00     0.063 A 
HETATM   22  H   UNL     1       6.987  -5.464  -0.550  1.00  0.00     0.189 HD
HETATM   23  C   UNL     1       4.559  -3.482  -0.111  1.00  0.00     0.071 A 
BRANCH  21  24
HETATM   24  C   UNL     1       4.247  -6.044  -0.056  1.00  0.00    -0.008 A 
HETATM   25  C   UNL     1       4.828  -7.187   0.508  1.00  0.00     0.014 A 
HETATM   26  C   UNL     1       4.093  -8.369   0.632  1.00  0.00     0.001 A 
HETATM   27  C   UNL     1       2.771  -8.423   0.194  1.00  0.00     0.000 A 
HETATM   28  C   UNL     1       2.181  -7.294  -0.368  1.00  0.00     0.001 A 
HETATM   29  C   UNL     1       2.915  -6.112  -0.490  1.00  0.00     0.014 A 
ENDBRANCH  21  24
ENDBRANCH   1  18
TORSDOF 5
