REMARK  8 active torsions:
REMARK  status: ('A' for Active; 'I' for Inactive)
REMARK    1  A    between atoms: C_4  and  N_5 
REMARK    2  A    between atoms: N_5  and  S_6 
REMARK    3  A    between atoms: S_6  and  C_7 
REMARK    4  A    between atoms: C_13  and  C_14 
REMARK       I    between atoms: C_14  and  N_15 
REMARK    5  A    between atoms: N_15  and  C_16 
REMARK    6  A    between atoms: C_16  and  C_17 
REMARK    7  A    between atoms: C_17  and  C_18 
REMARK    8  A    between atoms: C_18  and  O_19 
ROOT
HETATM    1  C   UNL     1       7.440   1.678   1.217  1.00  0.00     0.081 A 
HETATM    2  C   UNL     1       8.013   2.403   2.265  1.00  0.00     0.043 A 
HETATM    3  C   UNL     1       8.420   1.725   3.418  1.00  0.00     0.043 A 
HETATM    4  C   UNL     1       8.277   0.330   3.525  1.00  0.00     0.046 A 
HETATM    5  N   UNL     1       8.648  -0.317   4.708  1.00  0.00    -0.364 N 
HETATM    6  C   UNL     1       9.218   0.381   5.743  1.00  0.00     0.109 A 
HETATM    7  C   UNL     1       9.427   1.708   5.766  1.00  0.00     0.098 A 
HETATM    8  C   UNL     1       9.014   2.476   4.557  1.00  0.00     0.201 A 
HETATM    9  O   UNL     1       9.150   3.695   4.487  1.00  0.00    -0.286 OA
HETATM   10  C   UNL     1       7.705  -0.379   2.463  1.00  0.00     0.032 A 
HETATM   11  C   UNL     1       7.298   0.289   1.304  1.00  0.00     0.027 A 
HETATM   12  H   UNL     1       8.667  -1.331   4.740  1.00  0.00     0.165 HD
ENDROOT
BRANCH   1  13
HETATM   13  S   UNL     1       6.941   2.533  -0.263  1.00  0.00     0.263 S 
HETATM   14  O   UNL     1       6.976   1.586  -1.356  1.00  0.00    -0.200 OA
HETATM   15  O   UNL     1       7.695   3.768  -0.316  1.00  0.00    -0.200 OA
BRANCH  13  16
HETATM   16  N   UNL     1       5.345   2.968   0.076  1.00  0.00    -0.281 N 
HETATM   17  H   UNL     1       5.283   3.810   0.646  1.00  0.00     0.179 HD
BRANCH  16  18
HETATM   18  C   UNL     1       4.383   1.945   0.296  1.00  0.00     0.043 A 
HETATM   19  C   UNL     1       3.924   1.692   1.590  1.00  0.00     0.037 A 
HETATM   20  C   UNL     1       3.007   0.659   1.819  1.00  0.00    -0.059 A 
HETATM   21  C   UNL     1       2.494   0.373   3.200  1.00  0.00     0.048 C 
HETATM   22  C   UNL     1       2.544  -0.099   0.734  1.00  0.00     0.013 A 
HETATM   23  C   UNL     1       3.003   0.149  -0.566  1.00  0.00    -0.059 A 
HETATM   24  C   UNL     1       3.932   1.174  -0.775  1.00  0.00     0.037 A 
HETATM   25  C   UNL     1       2.476  -0.657  -1.717  1.00  0.00     0.048 C 
ENDBRANCH  16  18
ENDBRANCH  13  16
ENDBRANCH   1  13
BRANCH   7  26
HETATM   26  C   UNL     1      10.037   2.310   6.987  1.00  0.00     0.257 C 
HETATM   27  N   UNL     1      10.309   3.652   6.909  1.00  0.00    -0.357 N 
HETATM   28  H   UNL     1      10.081   4.144   6.043  1.00  0.00     0.162 HD
HETATM   29  O   UNL     1      10.266   1.638   7.990  1.00  0.00    -0.267 OA
BRANCH  27  30
HETATM   30  C   UNL     1      10.856   4.404   8.016  1.00  0.00     0.125 C 
BRANCH  30  31
HETATM   31  C   UNL     1      12.364   4.230   8.151  1.00  0.00     0.046 C 
BRANCH  31  32
HETATM   32  C   UNL     1      12.901   5.027   9.333  1.00  0.00     0.168 C 
BRANCH  32  33
HETATM   33  O   UNL     1      14.312   4.836   9.412  1.00  0.00    -0.396 OA
HETATM   34  C   UNL     1      14.874   5.527  10.520  1.00  0.00     0.201 C 
ENDBRANCH  32  33
ENDBRANCH  31  32
ENDBRANCH  30  31
ENDBRANCH  27  30
ENDBRANCH   7  26
TORSDOF 8
