REMARK  8 active torsions:
REMARK  status: ('A' for Active; 'I' for Inactive)
REMARK    1  A    between atoms: C_3  and  N_4 
REMARK       I    between atoms: N_4  and  C_5 
REMARK    2  A    between atoms: C_5  and  C_6 
REMARK    3  A    between atoms: C_7  and  C_8 
REMARK    4  A    between atoms: C_11  and  C_12 
REMARK    5  A    between atoms: C_21  and  C_22 
REMARK    6  A    between atoms: C_22  and  C_23 
REMARK    7  A    between atoms: C_23  and  C_24 
REMARK    8  A    between atoms: C_24  and  O_25 
ROOT
HETATM    1  C   UNL     1       4.599   3.667  -0.395  1.00  0.00     0.062 C 
HETATM    2  C   UNL     1       5.250   5.041  -0.424  1.00  0.00     0.202 C 
HETATM    3  N   UNL     1       6.667   4.950  -0.060  1.00  0.00    -0.083 N 
HETATM    4  C   UNL     1       7.230   3.859   0.544  1.00  0.00     0.726 A 
HETATM    5  N   UNL     1       6.480   2.754   0.737  1.00  0.00    -0.192 N 
HETATM    6  N   UNL     1       7.568   5.936  -0.244  1.00  0.00    -0.140 NA
HETATM    7  C   UNL     1       8.648   5.394   0.336  1.00  0.00     0.166 A 
HETATM    8  N   UNL     1       8.482   4.117   0.824  1.00  0.00    -0.046 NA
HETATM    9  C   UNL     1       5.216   2.600   0.172  1.00  0.00     0.037 C 
HETATM   10  C   UNL     1       4.637   1.208   0.218  1.00  0.00     0.070 C 
HETATM   11  H   UNL     1       6.947   1.911   1.065  1.00  0.00     0.184 HD
ENDROOT
BRANCH   1  12
HETATM   12  C   UNL     1       3.378   3.483  -1.217  1.00  0.00     0.256 C 
HETATM   13  N   UNL     1       2.276   4.154  -0.736  1.00  0.00    -0.323 N 
HETATM   14  H   UNL     1       2.405   4.718   0.094  1.00  0.00     0.169 HD
HETATM   15  O   UNL     1       3.452   2.783  -2.220  1.00  0.00    -0.267 OA
BRANCH  13  16
HETATM   16  C   UNL     1       0.968   4.161  -1.285  1.00  0.00     0.041 A 
HETATM   17  C   UNL     1      -0.007   5.017  -0.725  1.00  0.00    -0.035 A 
HETATM   18  C   UNL     1       0.293   5.962   0.407  1.00  0.00     0.050 C 
HETATM   19  C   UNL     1      -1.305   5.038  -1.271  1.00  0.00     0.009 A 
HETATM   20  C   UNL     1      -1.646   4.215  -2.341  1.00  0.00     0.001 A 
HETATM   21  C   UNL     1      -0.692   3.365  -2.884  1.00  0.00     0.002 A 
HETATM   22  C   UNL     1       0.604   3.341  -2.360  1.00  0.00     0.030 A 
ENDBRANCH  13  16
ENDBRANCH   1  12
BRANCH   2  23
HETATM   23  C   UNL     1       4.560   6.033   0.512  1.00  0.00    -0.028 A 
HETATM   24  C   UNL     1       4.420   5.768   1.885  1.00  0.00     0.010 A 
HETATM   25  C   UNL     1       3.796   6.688   2.731  1.00  0.00     0.008 A 
HETATM   26  C   UNL     1       3.302   7.899   2.232  1.00  0.00    -0.055 A 
HETATM   27  C   UNL     1       3.442   8.164   0.863  1.00  0.00     0.008 A 
HETATM   28  C   UNL     1       4.063   7.244   0.012  1.00  0.00     0.010 A 
BRANCH  26  29
HETATM   29  C   UNL     1       2.639   8.884   3.178  1.00  0.00     0.010 C 
HETATM   30  C   UNL     1       3.335  10.248   3.166  1.00  0.00     0.015 C 
HETATM   31  C   UNL     1       1.147   9.028   2.870  1.00  0.00     0.015 C 
ENDBRANCH  26  29
ENDBRANCH   2  23
BRANCH   7  32
HETATM   32  C   UNL     1       9.925   6.134   0.492  1.00  0.00     0.085 C 
BRANCH  32  33
HETATM   33  C   UNL     1       9.893   7.144   1.639  1.00  0.00     0.034 C 
BRANCH  33  34
HETATM   34  C   UNL     1       9.682   6.491   3.001  1.00  0.00     0.164 C 
BRANCH  34  35
HETATM   35  O   UNL     1       9.767   7.476   4.025  1.00  0.00    -0.401 OA
HETATM   36  H   UNL     1      10.657   7.865   3.985  1.00  0.00     0.209 HD
ENDBRANCH  34  35
ENDBRANCH  33  34
ENDBRANCH  32  33
ENDBRANCH   7  32
TORSDOF 8
