REMARK  9 active torsions:
REMARK  status: ('A' for Active; 'I' for Inactive)
REMARK    1  A    between atoms: C_7  and  O_8 
REMARK    2  A    between atoms: O_8  and  C_9 
REMARK    3  A    between atoms: C_9  and  C_10 
REMARK    4  A    between atoms: C_10  and  O_11 
REMARK    5  A    between atoms: C_10  and  C_12 
REMARK    6  A    between atoms: C_12  and  N_13 
REMARK    7  A    between atoms: N_18  and  C_19 
REMARK    8  A    between atoms: C_19  and  C_20 
REMARK    9  A    between atoms: C_20  and  N_21 
ROOT
HETATM    1  N   UNL     1       5.536  -7.372  -0.969  1.00  0.00    -0.179 N 
HETATM    2  C   UNL     1       6.842  -7.353  -1.419  1.00  0.00     0.681 A 
HETATM    3  N   UNL     1       7.526  -6.235  -1.662  1.00  0.00    -0.234 N 
HETATM    4  H   UNL     1       8.501  -6.184  -1.899  1.00  0.00     0.174 HD
HETATM    5  H   UNL     1       6.995  -5.354  -1.681  1.00  0.00     0.174 HD
HETATM    6  N   UNL     1       7.381  -8.626  -1.592  1.00  0.00    -0.180 N 
HETATM    7  C   UNL     1       6.337  -9.512  -1.182  1.00  0.00     0.079 A 
HETATM    8  C   UNL     1       5.214  -8.750  -0.815  1.00  0.00     0.079 A 
HETATM    9  C   UNL     1       6.334 -10.890  -1.117  1.00  0.00     0.032 A 
HETATM   10  C   UNL     1       5.158 -11.505  -0.676  1.00  0.00     0.002 A 
HETATM   11  C   UNL     1       4.030 -10.742  -0.313  1.00  0.00     0.002 A 
HETATM   12  C   UNL     1       4.050  -9.344  -0.378  1.00  0.00     0.032 A 
ENDROOT
BRANCH   1  13
HETATM   13  C   UNL     1       4.682  -6.227  -0.598  1.00  0.00     0.181 C 
BRANCH  13  14
HETATM   14  C   UNL     1       4.415  -5.267  -1.763  1.00  0.00     0.161 C 
BRANCH  14  15
HETATM   15  C   UNL     1       3.375  -4.201  -1.389  1.00  0.00     0.209 C 
BRANCH  15  16
HETATM   16  O   UNL     1       3.220  -3.371  -2.543  1.00  0.00    -0.349 OA
BRANCH  16  17
HETATM   17  C   UNL     1       2.361  -2.311  -2.440  1.00  0.00     0.069 A 
HETATM   18  C   UNL     1       2.260  -1.532  -3.593  1.00  0.00     0.038 A 
HETATM   19  C   UNL     1       1.428  -0.412  -3.619  1.00  0.00     0.027 A 
HETATM   20  C   UNL     1       0.687  -0.064  -2.489  1.00  0.00     0.040 A 
HETATM   21  C   UNL     1       0.765  -0.841  -1.323  1.00  0.00    -0.038 A 
HETATM   22 CL   UNL     1      -0.311   1.341  -2.578  1.00  0.00    -0.084 Cl
HETATM   23  C   UNL     1      -0.014  -0.487  -0.086  1.00  0.00     0.050 C 
HETATM   24  C   UNL     1       1.614  -1.965  -1.311  1.00  0.00     0.045 A 
ENDBRANCH  16  17
ENDBRANCH  15  16
ENDBRANCH  14  15
BRANCH  14  25
HETATM   25  O   UNL     1       5.651  -4.611  -2.122  1.00  0.00    -0.392 OA
HETATM   26  H   UNL     1       5.370  -3.836  -2.664  1.00  0.00     0.210 HD
ENDBRANCH  14  25
ENDBRANCH  13  14
ENDBRANCH   1  13
BRANCH   6  27
HETATM   27  C   UNL     1       8.741  -9.008  -1.988  1.00  0.00     0.175 C 
BRANCH  27  28
HETATM   28  C   UNL     1       8.842  -9.414  -3.473  1.00  0.00     0.256 C 
BRANCH  28  29
HETATM   29  N   UNL     1      10.197  -9.990  -3.840  1.00  0.00    -0.066 N 
HETATM   30  H   UNL     1      10.450 -10.731  -3.171  1.00  0.00     0.280 HD
HETATM   31  C   UNL     1      10.142 -10.678  -5.221  1.00  0.00     0.261 C 
HETATM   32  C   UNL     1      11.518 -11.254  -5.572  1.00  0.00     0.195 C 
HETATM   33  O   UNL     1      12.509 -10.224  -5.562  1.00  0.00    -0.388 OA
HETATM   34  C   UNL     1      12.646  -9.628  -4.271  1.00  0.00     0.195 C 
HETATM   35  C   UNL     1      11.335  -8.961  -3.841  1.00  0.00     0.261 C 
ENDBRANCH  28  29
ENDBRANCH  27  28
ENDBRANCH   6  27
TORSDOF 9
