REMARK  9 active torsions:
REMARK  status: ('A' for Active; 'I' for Inactive)
REMARK    1  A    between atoms: C_4  and  C_5 
REMARK    2  A    between atoms: C_7  and  O_8 
REMARK    3  A    between atoms: C_10  and  O_11 
REMARK    4  A    between atoms: C_16  and  C_17 
REMARK    5  A    between atoms: C_20  and  C_21 
REMARK    6  A    between atoms: C_21  and  N_22 
REMARK    7  A    between atoms: N_22  and  C_23 
REMARK    8  A    between atoms: C_23  and  N_24 
REMARK    9  A    between atoms: N_24  and  C_25 
ROOT
HETATM    1  C   UNL     1      -2.762  -3.734  -3.340  1.00  0.00     0.035 A 
HETATM    2  C   UNL     1      -1.387  -3.927  -3.481  1.00  0.00     0.052 A 
HETATM    3  C   UNL     1      -0.873  -4.719  -4.516  1.00  0.00     0.046 A 
HETATM    4  C   UNL     1       0.544  -4.914  -4.594  1.00  0.00     0.099 C 
HETATM    5  N   UNL     1       1.696  -5.045  -4.562  1.00  0.00    -0.191 NA
HETATM    6  C   UNL     1      -1.739  -5.302  -5.440  1.00  0.00     0.023 A 
HETATM    7  C   UNL     1      -3.113  -5.082  -5.330  1.00  0.00     0.004 A 
HETATM    8  C   UNL     1      -3.620  -4.296  -4.289  1.00  0.00     0.029 A 
ENDROOT
BRANCH   1   9
HETATM    9  N   UNL     1      -3.328  -2.934  -2.324  1.00  0.00    -0.333 N 
HETATM   10  H   UNL     1      -4.250  -2.554  -2.527  1.00  0.00     0.168 HD
BRANCH   9  11
HETATM   11  C   UNL     1      -2.768  -2.430  -1.181  1.00  0.00     0.172 C 
HETATM   12  S   UNL     1      -3.432  -1.061  -0.499  1.00  0.00    -0.041 SA
BRANCH  11  13
HETATM   13  N   UNL     1      -1.719  -3.144  -0.656  1.00  0.00    -0.365 N 
HETATM   14  H   UNL     1      -1.801  -4.136  -0.859  1.00  0.00     0.161 HD
BRANCH  13  15
HETATM   15  C   UNL     1      -0.923  -2.738   0.500  1.00  0.00     0.155 C 
BRANCH  15  16
HETATM   16  C   UNL     1       0.276  -3.669   0.778  1.00  0.00     0.206 C 
HETATM   17  C   UNL     1       1.207  -3.906  -0.422  1.00  0.00     0.040 C 
HETATM   18  C   UNL     1       2.689  -3.913   0.022  1.00  0.00     0.001 C 
HETATM   19  C   UNL     1       3.119  -2.507   0.518  1.00  0.00     0.067 C 
HETATM   20  C   UNL     1       2.801  -4.867   1.234  1.00  0.00     0.033 C 
HETATM   21  C   UNL     1       2.038  -1.984   1.491  1.00  0.00     0.246 C 
HETATM   22  N   UNL     1       1.151  -3.158   1.925  1.00  0.00    -0.065 N 
HETATM   23  C   UNL     1       2.022  -4.302   2.430  1.00  0.00     0.236 C 
HETATM   24  H   UNL     1       0.548  -2.843   2.698  1.00  0.00     0.280 HD
BRANCH  19  25
HETATM   25  C   UNL     1       3.443  -1.522  -0.569  1.00  0.00     0.038 A 
HETATM   26  N   UNL     1       4.337  -0.485  -0.406  1.00  0.00    -0.277 N 
HETATM   27  C   UNL     1       5.147  -0.177   0.752  1.00  0.00     0.179 C 
HETATM   28  N   UNL     1       4.454   0.299  -1.483  1.00  0.00    -0.172 NA
HETATM   29  C   UNL     1       3.682  -0.264  -2.420  1.00  0.00     0.089 A 
HETATM   30  C   UNL     1       3.041  -1.415  -1.889  1.00  0.00     0.061 A 
BRANCH  29  31
HETATM   31  C   UNL     1       3.583   0.285  -3.774  1.00  0.00    -0.003 A 
HETATM   32  C   UNL     1       4.652   1.009  -4.322  1.00  0.00     0.053 A 
HETATM   33  C   UNL     1       4.582   1.524  -5.623  1.00  0.00     0.102 A 
HETATM   34  C   UNL     1       3.414   1.330  -6.387  1.00  0.00     0.101 A 
HETATM   35  C   UNL     1       2.344   0.617  -5.839  1.00  0.00     0.040 A 
HETATM   36  C   UNL     1       2.430   0.095  -4.544  1.00  0.00     0.017 A 
BRANCH  33  37
HETATM   37  O   UNL     1       5.589   2.231  -6.233  1.00  0.00    -0.353 OA
HETATM   38  C   UNL     1       6.827   2.342  -5.545  1.00  0.00     0.210 C 
ENDBRANCH  33  37
BRANCH  34  39
HETATM   39  O   UNL     1       3.422   1.869  -7.649  1.00  0.00    -0.353 OA
HETATM   40  C   UNL     1       2.259   1.710  -8.447  1.00  0.00     0.210 C 
ENDBRANCH  34  39
ENDBRANCH  29  31
ENDBRANCH  19  25
ENDBRANCH  15  16
ENDBRANCH  13  15
ENDBRANCH  11  13
ENDBRANCH   9  11
ENDBRANCH   1   9
TORSDOF 9
