REMARK  11 active torsions:
REMARK  status: ('A' for Active; 'I' for Inactive)
REMARK    1  A    between atoms: C_2  and  O_3 
REMARK    2  A    between atoms: C_2  and  C_4 
REMARK    3  A    between atoms: C_8  and  C_9 
REMARK    4  A    between atoms: C_12  and  C_13 
REMARK    5  A    between atoms: C_13  and  C_14 
REMARK    6  A    between atoms: C_14  and  N_15 
REMARK    7  A    between atoms: C_14  and  C_29 
REMARK       I    between atoms: N_15  and  C_16 
REMARK    8  A    between atoms: C_16  and  C_17 
REMARK    9  A    between atoms: C_21  and  O_22 
REMARK   10  A    between atoms: O_22  and  C_23 
REMARK   11  A    between atoms: C_29  and  N_30 
ROOT
HETATM    1  C   UNL     1       0.350   9.331  -3.893  1.00  0.00     0.114 C 
ENDROOT
BRANCH   1   2
HETATM    2  C   UNL     1      -0.446   8.135  -4.480  1.00  0.00     0.065 C 
BRANCH   2   3
HETATM    3  C   UNL     1      -1.041   7.096  -3.547  1.00  0.00    -0.056 A 
HETATM    4  C   UNL     1      -0.782   7.005  -2.174  1.00  0.00     0.008 A 
HETATM    5  C   UNL     1      -1.462   6.079  -1.369  1.00  0.00     0.014 A 
HETATM    6  C   UNL     1      -2.404   5.207  -1.919  1.00  0.00    -0.006 A 
HETATM    7  C   UNL     1      -2.618   5.246  -3.300  1.00  0.00     0.014 A 
HETATM    8  C   UNL     1      -1.948   6.178  -4.102  1.00  0.00     0.008 A 
BRANCH   6   9
HETATM    9  C   UNL     1      -3.177   4.290  -1.099  1.00  0.00     0.085 A 
HETATM   10  C   UNL     1      -3.453   4.434   0.245  1.00  0.00     0.130 A 
HETATM   11  N   UNL     1      -4.265   3.376   0.571  1.00  0.00    -0.315 N 
HETATM   12  C   UNL     1      -4.438   2.630  -0.586  1.00  0.00     0.143 A 
HETATM   13  C   UNL     1      -4.846   3.053   1.790  1.00  0.00     0.098 A 
HETATM   14  C   UNL     1      -5.243   1.434  -0.522  1.00  0.00     0.017 A 
HETATM   15  N   UNL     1      -3.790   3.166  -1.603  1.00  0.00    -0.228 NA
HETATM   16  C   UNL     1      -5.799   1.135   0.680  1.00  0.00     0.015 A 
HETATM   17  C   UNL     1      -5.612   1.954   1.870  1.00  0.00     0.018 A 
BRANCH  14  18
HETATM   18  C   UNL     1      -5.442   0.578  -1.771  1.00  0.00     0.150 C 
HETATM   19  C   UNL     1      -6.234  -0.715  -1.613  1.00  0.00     0.044 C 
BRANCH  18  20
HETATM   20  O   UNL     1      -4.159   0.222  -2.297  1.00  0.00    -0.391 OA
HETATM   21  H   UNL     1      -3.669   1.062  -2.399  1.00  0.00     0.210 HD
ENDBRANCH  18  20
ENDBRANCH  14  18
ENDBRANCH   6   9
ENDBRANCH   2   3
ENDBRANCH   1   2
BRANCH   1  22
HETATM   22  N   UNL     1      -0.423   9.958  -2.804  1.00  0.00    -0.350 N 
HETATM   23  C   UNL     1       0.043  10.860  -1.880  1.00  0.00     0.252 C 
HETATM   24  O   UNL     1       1.186  11.304  -1.937  1.00  0.00    -0.268 OA
HETATM   25  H   UNL     1      -1.429   9.824  -2.849  1.00  0.00     0.163 HD
BRANCH  23  26
HETATM   26  C   UNL     1      -0.866  11.217  -0.750  1.00  0.00     0.033 A 
HETATM   27  C   UNL     1      -0.526  12.309   0.053  1.00  0.00     0.043 A 
HETATM   28  C   UNL     1      -1.280  12.604   1.194  1.00  0.00     0.068 A 
HETATM   29 CL   UNL     1      -0.783  13.949   2.160  1.00  0.00    -0.081 Cl
HETATM   30  C   UNL     1      -2.376  11.807   1.559  1.00  0.00     0.091 A 
HETATM   31  C   UNL     1      -2.736  10.742   0.732  1.00  0.00     0.039 A 
HETATM   32  C   UNL     1      -1.980  10.439  -0.409  1.00  0.00     0.020 A 
BRANCH  30  33
HETATM   33  O   UNL     1      -3.032  12.141   2.712  1.00  0.00    -0.345 OA
BRANCH  33  34
HETATM   34  C   UNL     1      -3.782  11.141   3.414  1.00  0.00     0.121 C 
HETATM   35  C   UNL     1      -2.857  10.105   4.051  1.00  0.00     0.040 C 
HETATM   36  C   UNL     1      -4.562  11.871   4.506  1.00  0.00     0.040 C 
ENDBRANCH  33  34
ENDBRANCH  30  33
ENDBRANCH  23  26
ENDBRANCH   1  22
BRANCH   1  37
HETATM   37  C   UNL     1       1.797   8.885  -3.537  1.00  0.00     0.254 C 
BRANCH  37  38
HETATM   38  N   UNL     1       2.715  10.051  -3.434  1.00  0.00    -0.077 N 
HETATM   39  H   UNL     1       2.815  10.578  -4.307  1.00  0.00     0.274 HD
HETATM   40  H   UNL     1       2.323  10.726  -2.741  1.00  0.00     0.274 HD
HETATM   41  H   UNL     1       3.647   9.797  -3.089  1.00  0.00     0.274 HD
ENDBRANCH  37  38
ENDBRANCH   1  37
TORSDOF 11
