REMARK  4 active torsions:
REMARK  status: ('A' for Active; 'I' for Inactive)
REMARK    1  A    between atoms: C_8  and  N_9 
REMARK       I    between atoms: N_9  and  C_10 
REMARK       I    between atoms: C_10  and  N_11 
REMARK    2  A    between atoms: N_11  and  C_12 
REMARK    3  A    between atoms: C_15  and  O_16 
REMARK    4  A    between atoms: O_16  and  C_17 
ROOT
HETATM    1  C   UNL     1       0.587  -0.030  -0.327  1.00  0.00     0.054 A 
HETATM    2  C   UNL     1      -0.130   1.146  -0.122  1.00  0.00     0.149 A 
HETATM    3  N   UNL     1       0.223   2.354  -0.633  1.00  0.00    -0.235 NA
HETATM    4  C   UNL     1       1.339   2.398  -1.390  1.00  0.00     0.169 A 
HETATM    5  C   UNL     1       2.114   1.283  -1.667  1.00  0.00     0.060 A 
HETATM    6  C   UNL     1       1.730   0.055  -1.126  1.00  0.00     0.035 A 
ENDROOT
BRANCH   1   7
HETATM    7  N   UNL     1       0.257  -1.292   0.213  1.00  0.00    -0.307 N 
HETATM    8  C   UNL     1      -0.781  -1.572   1.090  1.00  0.00     0.325 C 
HETATM    9  N   UNL     1      -0.783  -2.912   1.431  1.00  0.00    -0.305 N 
HETATM   10  O   UNL     1      -1.578  -0.741   1.499  1.00  0.00    -0.247 OA
HETATM   11  H   UNL     1      -0.302  -3.545   0.813  1.00  0.00     0.171 HD
HETATM   12  H   UNL     1       0.904  -2.042   0.025  1.00  0.00     0.170 HD
BRANCH   9  13
HETATM   13  C   UNL     1      -1.555  -3.513   2.414  1.00  0.00     0.086 A 
HETATM   14  C   UNL     1      -1.639  -4.888   2.536  1.00  0.00     0.052 A 
HETATM   15  C   UNL     1      -1.038  -6.003   1.766  1.00  0.00     0.072 C 
HETATM   16  N   UNL     1      -2.470  -5.120   3.594  1.00  0.00    -0.280 N 
HETATM   17  H   UNL     1      -2.773  -6.011   3.972  1.00  0.00     0.189 HD
HETATM   18  N   UNL     1      -2.909  -4.009   4.190  1.00  0.00    -0.177 NA
HETATM   19  C   UNL     1      -2.354  -3.011   3.485  1.00  0.00     0.079 A 
HETATM   20  C   UNL     1      -2.614  -1.618   3.930  1.00  0.00     0.075 C 
ENDBRANCH   9  13
ENDBRANCH   1   7
BRANCH   4  21
HETATM   21  O   UNL     1       1.780   3.600  -1.936  1.00  0.00    -0.292 OA
BRANCH  21  22
HETATM   22  C   UNL     1       1.084   4.728  -1.578  1.00  0.00     0.080 A 
HETATM   23  C   UNL     1       1.670   5.614  -0.677  1.00  0.00     0.079 A 
HETATM   24  C   UNL     1       0.993   6.782  -0.347  1.00  0.00     0.119 A 
HETATM   25  F   UNL     1       1.543   7.638   0.525  1.00  0.00    -0.206 F 
HETATM   26  C   UNL     1      -0.243   7.083  -0.912  1.00  0.00     0.042 A 
HETATM   27  C   UNL     1      -0.815   6.202  -1.830  1.00  0.00     0.006 A 
HETATM   28  C   UNL     1      -0.146   5.026  -2.172  1.00  0.00     0.037 A 
ENDBRANCH  21  22
ENDBRANCH   4  21
TORSDOF 4
