REMARK  6 active torsions:
REMARK  status: ('A' for Active; 'I' for Inactive)
REMARK    1  A    between atoms: C_2  and  O_3 
REMARK    2  A    between atoms: C_2  and  C_4 
REMARK    3  A    between atoms: C_6  and  N_7 
REMARK       I    between atoms: N_7  and  C_8 
REMARK    4  A    between atoms: C_8  and  C_9 
REMARK    5  A    between atoms: C_14  and  C_15 
REMARK    6  A    between atoms: C_21  and  C_22 
ROOT
HETATM    1  C   UNL     1       4.219   1.113  -3.888  1.00  0.00     0.148 A 
HETATM    2  N   UNL     1       3.045   1.425  -3.294  1.00  0.00    -0.165 NA
HETATM    3  N   UNL     1       3.372   2.412  -2.440  1.00  0.00    -0.240 N 
HETATM    4  C   UNL     1       4.686   2.793  -2.520  1.00  0.00     0.123 A 
HETATM    5  N   UNL     1       5.184   3.784  -1.750  1.00  0.00    -0.364 N 
HETATM    6  C   UNL     1       4.315   4.620  -0.922  1.00  0.00     0.143 C 
HETATM    7  C   UNL     1       3.114   3.794  -0.434  1.00  0.00     0.068 C 
HETATM    8  C   UNL     1       2.395   3.083  -1.598  1.00  0.00     0.221 C 
HETATM    9  C   UNL     1       5.262   1.973  -3.452  1.00  0.00     0.089 A 
HETATM   10  H   UNL     1       6.106   4.175  -1.939  1.00  0.00     0.162 HD
ENDROOT
BRANCH   1  11
HETATM   11  C   UNL     1       4.343  -0.005  -4.843  1.00  0.00     0.276 C 
HETATM   12  N   UNL     1       3.158  -0.702  -4.979  1.00  0.00    -0.322 N 
HETATM   13  H   UNL     1       2.392  -0.308  -4.437  1.00  0.00     0.169 HD
HETATM   14  O   UNL     1       5.406  -0.247  -5.403  1.00  0.00    -0.266 OA
BRANCH  12  15
HETATM   15  C   UNL     1       2.911  -1.870  -5.721  1.00  0.00     0.035 A 
HETATM   16  C   UNL     1       3.889  -2.544  -6.458  1.00  0.00     0.039 A 
HETATM   17  C   UNL     1       3.585  -3.723  -7.161  1.00  0.00    -0.028 A 
HETATM   18  C   UNL     1       2.272  -4.212  -7.128  1.00  0.00     0.010 A 
HETATM   19  C   UNL     1       1.290  -3.547  -6.396  1.00  0.00     0.003 A 
HETATM   20  C   UNL     1       1.610  -2.384  -5.694  1.00  0.00     0.029 A 
BRANCH  17  21
HETATM   21  C   UNL     1       4.666  -4.431  -7.950  1.00  0.00     0.147 C 
HETATM   22  C   UNL     1       4.536  -4.194  -9.447  1.00  0.00     0.044 C 
BRANCH  21  23
HETATM   23  O   UNL     1       4.618  -5.836  -7.700  1.00  0.00    -0.391 OA
HETATM   24  H   UNL     1       4.439  -5.944  -6.750  1.00  0.00     0.210 HD
ENDBRANCH  21  23
ENDBRANCH  17  21
ENDBRANCH  12  15
ENDBRANCH   1  11
BRANCH   8  25
HETATM   25  C   UNL     1       1.356   2.130  -1.051  1.00  0.00     0.409 C 
HETATM   26  F   UNL     1       0.578   1.581  -2.009  1.00  0.00    -0.169 F 
HETATM   27  F   UNL     1       1.901   1.130  -0.322  1.00  0.00    -0.169 F 
HETATM   28  F   UNL     1       0.512   2.799  -0.220  1.00  0.00    -0.169 F 
ENDBRANCH   8  25
BRANCH   6  29
HETATM   29  C   UNL     1       3.875   5.899  -1.562  1.00  0.00     0.075 A 
HETATM   30  O   UNL     1       3.503   6.899  -0.709  1.00  0.00    -0.325 OA
HETATM   31  C   UNL     1       3.157   7.967  -1.472  1.00  0.00     0.142 A 
HETATM   32  C   UNL     1       3.291   7.667  -2.807  1.00  0.00     0.027 A 
HETATM   33  C   UNL     1       3.755   6.331  -2.868  1.00  0.00     0.037 A 
ENDBRANCH   6  29
TORSDOF 6
