REMARK  11 active torsions:
REMARK  status: ('A' for Active; 'I' for Inactive)
REMARK    1  A    between atoms: C_2  and  O_3 
REMARK    2  A    between atoms: O_3  and  C_4 
REMARK    3  A    between atoms: C_5  and  O_6 
REMARK    4  A    between atoms: C_9  and  C_10 
REMARK    5  A    between atoms: N_11  and  C_12 
REMARK    6  A    between atoms: C_12  and  C_13 
REMARK    7  A    between atoms: C_13  and  C_14 
REMARK    8  A    between atoms: C_14  and  N_15 
REMARK    9  A    between atoms: C_27  and  O_28 
REMARK   10  A    between atoms: C_27  and  C_29 
REMARK   11  A    between atoms: C_30  and  C_31 
ROOT
HETATM    1  C   UNL     1       7.481  -0.827   0.580  1.00  0.00     0.161 C 
HETATM    2  N   UNL     1       6.941  -2.190   0.577  1.00  0.00    -0.332 N 
HETATM    3  C   UNL     1       7.576  -3.028   1.464  1.00  0.00     0.295 C 
HETATM    4  O   UNL     1       7.347  -4.211   1.628  1.00  0.00    -0.264 OA
HETATM    5  C   UNL     1       8.387  -0.786   1.785  1.00  0.00     0.058 C 
HETATM    6  C   UNL     1       8.618  -2.185   2.202  1.00  0.00     0.250 C 
HETATM    7  O   UNL     1       9.442  -2.596   2.987  1.00  0.00    -0.282 OA
HETATM    8  C   UNL     1       8.777   0.240   2.557  1.00  0.00     0.078 C 
ENDROOT
BRANCH   1   9
HETATM    9  C   UNL     1       8.195  -0.533  -0.731  1.00  0.00    -0.028 A 
HETATM   10  C   UNL     1       7.866   0.631  -1.447  1.00  0.00     0.012 A 
HETATM   11  C   UNL     1       8.481   0.914  -2.666  1.00  0.00     0.040 A 
HETATM   12  C   UNL     1       9.412   0.026  -3.184  1.00  0.00     0.099 A 
HETATM   13  C   UNL     1       9.758  -1.145  -2.509  1.00  0.00     0.102 A 
HETATM   14  C   UNL     1       9.171  -1.406  -1.268  1.00  0.00     0.049 A 
BRANCH  12  15
HETATM   15  O   UNL     1       9.981   0.324  -4.391  1.00  0.00    -0.358 OA
HETATM   16  H   UNL     1      10.653  -0.367  -4.549  1.00  0.00     0.218 HD
ENDBRANCH  12  15
BRANCH  13  17
HETATM   17  O   UNL     1      10.665  -1.942  -3.156  1.00  0.00    -0.349 OA
BRANCH  17  18
HETATM   18  C   UNL     1      10.810  -3.281  -2.688  1.00  0.00     0.171 C 
HETATM   19  C   UNL     1      11.589  -4.065  -3.728  1.00  0.00     0.034 C 
ENDBRANCH  17  18
ENDBRANCH  13  17
ENDBRANCH   1   9
BRANCH   2  20
HETATM   20  C   UNL     1       5.739  -2.554  -0.155  1.00  0.00     0.129 C 
BRANCH  20  21
HETATM   21  C   UNL     1       5.978  -3.285  -1.478  1.00  0.00     0.048 C 
BRANCH  21  22
HETATM   22  C   UNL     1       6.811  -4.568  -1.438  1.00  0.00     0.236 C 
BRANCH  22  23
HETATM   23  N   UNL     1       6.353  -5.580  -0.425  1.00  0.00    -0.067 N 
HETATM   24  H   UNL     1       6.428  -5.137   0.514  1.00  0.00     0.280 HD
HETATM   25  C   UNL     1       4.939  -6.098  -0.623  1.00  0.00     0.261 C 
HETATM   26  C   UNL     1       4.597  -7.118   0.470  1.00  0.00     0.195 C 
HETATM   27  O   UNL     1       5.537  -8.198   0.478  1.00  0.00    -0.388 OA
HETATM   28  C   UNL     1       6.864  -7.733   0.750  1.00  0.00     0.195 C 
HETATM   29  C   UNL     1       7.328  -6.760  -0.338  1.00  0.00     0.261 C 
ENDBRANCH  22  23
ENDBRANCH  21  22
ENDBRANCH  20  21
ENDBRANCH   2  20
BRANCH   8  30
HETATM   30  O   UNL     1       9.551   0.076   3.690  1.00  0.00    -0.360 OA
HETATM   31  H   UNL     1       9.849  -0.853   3.771  1.00  0.00     0.217 HD
ENDBRANCH   8  30
BRANCH   8  32
HETATM   32  C   UNL     1       8.362   1.611   2.321  1.00  0.00     0.038 C 
HETATM   33  C   UNL     1       8.438   2.596   3.230  1.00  0.00     0.014 C 
BRANCH  33  34
HETATM   34  C   UNL     1       7.851   3.914   2.979  1.00  0.00    -0.036 A 
HETATM   35  C   UNL     1       6.714   4.298   3.699  1.00  0.00     0.011 A 
HETATM   36  C   UNL     1       6.115   5.537   3.465  1.00  0.00     0.001 A 
HETATM   37  C   UNL     1       6.655   6.402   2.515  1.00  0.00     0.000 A 
HETATM   38  C   UNL     1       7.794   6.030   1.800  1.00  0.00     0.001 A 
HETATM   39  C   UNL     1       8.391   4.788   2.030  1.00  0.00     0.011 A 
ENDBRANCH  33  34
ENDBRANCH   8  32
TORSDOF 11
