REMARK  7 active torsions:
REMARK  status: ('A' for Active; 'I' for Inactive)
REMARK    1  A    between atoms: C_3  and  C_4 
REMARK       I    between atoms: C_4  and  N_5 
REMARK    2  A    between atoms: C_8  and  N_9 
REMARK       I    between atoms: N_9  and  C_10 
REMARK    3  A    between atoms: C_10  and  C_11 
REMARK    4  A    between atoms: C_11  and  N_12 
REMARK       I    between atoms: N_15  and  C_16 
REMARK    5  A    between atoms: C_16  and  C_17 
REMARK    6  A    between atoms: C_32  and  C_33 
REMARK    7  A    between atoms: C_33  and  O_34 
ROOT
HETATM    1  C   UNL     1       4.146  -3.098  -1.250  1.00  0.00     0.375 C 
ENDROOT
BRANCH   1   2
HETATM    2  C   UNL     1       4.806  -3.323   0.118  1.00  0.00     0.251 C 
HETATM    3  N   UNL     1       4.145  -4.283   0.863  1.00  0.00    -0.319 N 
HETATM    4  H   UNL     1       3.393  -4.776   0.394  1.00  0.00     0.169 HD
HETATM    5  O   UNL     1       5.864  -2.774   0.410  1.00  0.00    -0.271 OA
BRANCH   3   6
HETATM    6  C   UNL     1       4.636  -4.826   2.028  1.00  0.00     0.094 C 
HETATM    7  S   UNL     1       4.090  -6.415   2.253  1.00  0.00    -0.065 SA
HETATM    8  C   UNL     1       5.163  -6.682   3.563  1.00  0.00     0.081 C 
HETATM    9  C   UNL     1       5.813  -5.504   3.926  1.00  0.00    -0.020 C 
HETATM   10  C   UNL     1       6.748  -5.371   5.095  1.00  0.00     0.051 C 
HETATM   11  C   UNL     1       5.470  -4.394   3.038  1.00  0.00     0.080 C 
BRANCH   8  12
HETATM   12  C   UNL     1       5.292  -8.010   4.159  1.00  0.00     0.256 C 
HETATM   13  N   UNL     1       4.448  -8.983   3.698  1.00  0.00    -0.365 N 
HETATM   14  H   UNL     1       3.769  -8.806   2.973  1.00  0.00     0.159 HD
HETATM   15  H   UNL     1       4.538  -9.909   4.091  1.00  0.00     0.159 HD
HETATM   16  O   UNL     1       6.102  -8.313   5.031  1.00  0.00    -0.267 OA
ENDBRANCH   8  12
BRANCH  11  17
HETATM   17  C   UNL     1       5.925  -3.015   3.222  1.00  0.00     0.296 C 
HETATM   18  O   UNL     1       7.037  -2.723   3.650  1.00  0.00    -0.259 OA
BRANCH  17  19
HETATM   19  O   UNL     1       4.923  -2.108   3.007  1.00  0.00    -0.322 OA
HETATM   20  C   UNL     1       5.312  -0.756   3.239  1.00  0.00     0.213 C 
ENDBRANCH  17  19
ENDBRANCH  11  17
ENDBRANCH   3   6
ENDBRANCH   1   2
BRANCH   1  21
HETATM   21  N   UNL     1       2.677  -2.976  -1.114  1.00  0.00     0.100 N 
HETATM   22  C   UNL     1       2.294  -1.645  -0.580  1.00  0.00     0.293 C 
HETATM   23  C   UNL     1       2.506  -0.461  -1.546  1.00  0.00     0.156 C 
HETATM   24  N   UNL     1       1.979  -0.707  -2.892  1.00  0.00    -0.344 N 
HETATM   25  C   UNL     1       1.715   0.420  -3.688  1.00  0.00     0.262 C 
HETATM   26  C   UNL     1       2.207  -2.048  -3.441  1.00  0.00     0.156 C 
HETATM   27  O   UNL     1       1.773   1.556  -3.219  1.00  0.00    -0.267 OA
HETATM   28  C   UNL     1       1.992  -3.168  -2.408  1.00  0.00     0.293 C 
BRANCH  25  29
HETATM   29  C   UNL     1       1.334   0.202  -5.066  1.00  0.00     0.096 A 
HETATM   30  S   UNL     1       2.528  -0.055  -6.253  1.00  0.00    -0.082 SA
HETATM   31  C   UNL     1       1.360  -0.177  -7.513  1.00  0.00     0.019 A 
HETATM   32  C   UNL     1       0.063   0.034  -7.032  1.00  0.00     0.004 A 
HETATM   33  C   UNL     1       1.614  -0.442  -8.874  1.00  0.00     0.043 A 
HETATM   34  C   UNL     1       0.071   0.260  -5.610  1.00  0.00     0.068 A 
HETATM   35  C   UNL     1      -1.004  -0.005  -7.969  1.00  0.00     0.016 A 
HETATM   36 CL   UNL     1      -1.366   0.544  -4.712  1.00  0.00    -0.082 Cl
HETATM   37  C   UNL     1      -0.758  -0.262  -9.322  1.00  0.00     0.025 A 
HETATM   38  C   UNL     1       0.538  -0.483  -9.761  1.00  0.00     0.035 A 
HETATM   39 CL   UNL     1       0.827  -0.811 -11.426  1.00  0.00    -0.084 Cl
ENDBRANCH  25  29
ENDBRANCH   1  21
TORSDOF 7
