REMARK  7 active torsions:
REMARK  status: ('A' for Active; 'I' for Inactive)
REMARK    1  A    between atoms: C_2  and  N_3 
REMARK    2  A    between atoms: C_2  and  C_17 
REMARK       I    between atoms: N_3  and  C_4 
REMARK    3  A    between atoms: C_4  and  C_5 
REMARK    4  A    between atoms: C_7  and  N_8 
REMARK    5  A    between atoms: C_17  and  O_18 
REMARK    6  A    between atoms: C_17  and  C_19 
REMARK    7  A    between atoms: C_22  and  O_23 
ROOT
HETATM    1  N   UNL     1       2.933   0.788   1.280  1.00  0.00    -0.349 N 
HETATM    2  C   UNL     1       3.008   0.403   2.600  1.00  0.00     0.270 C 
HETATM    3  O   UNL     1       2.661  -0.697   3.014  1.00  0.00    -0.266 OA
HETATM    4  H   UNL     1       3.283   1.718   1.066  1.00  0.00     0.163 HD
ENDROOT
BRANCH   1   5
HETATM    5  C   UNL     1       2.413  -0.047   0.199  1.00  0.00     0.114 C 
HETATM    6  C   UNL     1       0.898  -0.222   0.349  1.00  0.00     0.035 C 
BRANCH   5   7
HETATM    7  C   UNL     1       3.139  -1.417   0.038  1.00  0.00     0.173 C 
BRANCH   7   8
HETATM    8  O   UNL     1       2.545  -2.171  -1.029  1.00  0.00    -0.389 OA
HETATM    9  H   UNL     1       1.815  -2.676  -0.632  1.00  0.00     0.210 HD
ENDBRANCH   7   8
BRANCH   7  10
HETATM   10  C   UNL     1       4.618  -1.259  -0.269  1.00  0.00    -0.028 A 
HETATM   11  C   UNL     1       5.562  -1.347   0.763  1.00  0.00     0.012 A 
HETATM   12  C   UNL     1       6.925  -1.195   0.495  1.00  0.00     0.037 A 
HETATM   13  C   UNL     1       7.373  -0.964  -0.806  1.00  0.00     0.068 A 
HETATM   14  C   UNL     1       6.442  -0.865  -1.839  1.00  0.00     0.037 A 
HETATM   15  C   UNL     1       5.076  -1.008  -1.571  1.00  0.00     0.012 A 
BRANCH  13  16
HETATM   16  O   UNL     1       8.731  -0.849  -0.933  1.00  0.00    -0.356 OA
HETATM   17  C   UNL     1       9.246  -0.819  -2.258  1.00  0.00     0.210 C 
ENDBRANCH  13  16
ENDBRANCH   7  10
ENDBRANCH   5   7
ENDBRANCH   1   5
BRANCH   2  18
HETATM   18  C   UNL     1       3.578   1.442   3.518  1.00  0.00     0.126 A 
HETATM   19  N   UNL     1       3.814   2.667   2.969  1.00  0.00    -0.224 NA
HETATM   20  C   UNL     1       4.327   3.616   3.799  1.00  0.00     0.151 A 
HETATM   21  C   UNL     1       4.620   3.371   5.142  1.00  0.00     0.052 A 
HETATM   22  C   UNL     1       4.370   2.105   5.666  1.00  0.00     0.006 A 
HETATM   23  C   UNL     1       3.834   1.120   4.844  1.00  0.00     0.037 A 
BRANCH  20  24
HETATM   24  N   UNL     1       4.561   4.922   3.269  1.00  0.00    -0.227 N 
HETATM   25  N   UNL     1       5.067   5.938   4.022  1.00  0.00    -0.179 NA
HETATM   26  C   UNL     1       5.122   6.976   3.185  1.00  0.00     0.141 A 
HETATM   27  C   UNL     1       4.662   6.659   1.898  1.00  0.00     0.040 A 
HETATM   28  C   UNL     1       4.309   5.334   1.976  1.00  0.00     0.122 A 
ENDBRANCH  20  24
ENDBRANCH   2  18
TORSDOF 7
