REMARK  8 active torsions:
REMARK  status: ('A' for Active; 'I' for Inactive)
REMARK    1  A    between atoms: N_3  and  C_4 
REMARK    2  A    between atoms: C_7  and  O_8 
REMARK    3  A    between atoms: C_13  and  C_14 
REMARK    4  A    between atoms: N_15  and  N_16 
REMARK       I    between atoms: N_16  and  C_17 
REMARK    5  A    between atoms: C_17  and  C_18 
REMARK    6  A    between atoms: C_18  and  O_19 
REMARK    7  A    between atoms: C_18  and  C_20 
REMARK    8  A    between atoms: C_18  and  C_26 
ROOT
HETATM    1  N   UNL     1       7.119  -3.254   0.148  1.00  0.00    -0.244 N 
HETATM    2  C   UNL     1       8.398  -2.928  -0.296  1.00  0.00     0.282 C 
HETATM    3  O   UNL     1       8.699  -1.874  -0.867  1.00  0.00    -0.268 OA
HETATM    4  H   UNL     1       6.929  -4.216   0.415  1.00  0.00     0.192 HD
ENDROOT
BRANCH   1   5
HETATM    5  N   UNL     1       5.984  -2.495   0.033  1.00  0.00    -0.184 NA
HETATM    6  C   UNL     1       6.080  -1.206  -0.026  1.00  0.00     0.152 C 
BRANCH   6   7
HETATM    7  C   UNL     1       4.855  -0.429  -0.120  1.00  0.00     0.008 A 
HETATM    8  C   UNL     1       4.771   0.957  -0.192  1.00  0.00     0.025 A 
HETATM    9  N   UNL     1       3.422   1.321  -0.181  1.00  0.00    -0.319 N 
HETATM   10  C   UNL     1       5.892   1.936  -0.340  1.00  0.00     0.070 C 
HETATM   11  C   UNL     1       2.661   0.156  -0.193  1.00  0.00     0.014 A 
HETATM   12  C   UNL     1       1.172   0.102  -0.123  1.00  0.00     0.068 C 
HETATM   13  C   UNL     1       3.527  -0.918  -0.159  1.00  0.00     0.040 A 
BRANCH   9  14
HETATM   14  C   UNL     1       2.913   2.653  -0.121  1.00  0.00     0.039 A 
HETATM   15  C   UNL     1       3.478   3.577   0.770  1.00  0.00     0.033 A 
HETATM   16  C   UNL     1       2.970   4.877   0.850  1.00  0.00     0.039 A 
HETATM   17  C   UNL     1       1.904   5.247   0.037  1.00  0.00     0.065 A 
HETATM   18  C   UNL     1       1.339   4.341  -0.853  1.00  0.00     0.039 A 
HETATM   19  C   UNL     1       1.841   3.040  -0.934  1.00  0.00     0.033 A 
BRANCH  17  20
HETATM   20  O   UNL     1       1.376   6.503   0.084  1.00  0.00    -0.361 OA
HETATM   21  H   UNL     1       1.862   7.019   0.749  1.00  0.00     0.217 HD
ENDBRANCH  17  20
ENDBRANCH   9  14
ENDBRANCH   6   7
ENDBRANCH   1   5
BRANCH   2  22
HETATM   22  C   UNL     1       9.481  -4.045  -0.073  1.00  0.00     0.195 C 
BRANCH  22  23
HETATM   23  O   UNL     1      10.768  -3.403  -0.230  1.00  0.00    -0.371 OA
HETATM   24  H   UNL     1      10.619  -2.696  -0.889  1.00  0.00     0.212 HD
ENDBRANCH  22  23
BRANCH  22  25
HETATM   25  C   UNL     1       9.402  -4.581   1.369  1.00  0.00    -0.010 A 
HETATM   26  C   UNL     1       8.672  -5.741   1.696  1.00  0.00     0.011 A 
HETATM   27  C   UNL     1       8.566  -6.175   3.020  1.00  0.00     0.001 A 
HETATM   28  C   UNL     1       9.186  -5.460   4.041  1.00  0.00     0.000 A 
HETATM   29  C   UNL     1       9.912  -4.311   3.742  1.00  0.00     0.001 A 
HETATM   30  C   UNL     1      10.014  -3.872   2.420  1.00  0.00     0.011 A 
ENDBRANCH  22  25
BRANCH  22  31
HETATM   31  C   UNL     1       9.474  -5.137  -1.155  1.00  0.00    -0.010 A 
HETATM   32  C   UNL     1       8.536  -5.178  -2.202  1.00  0.00     0.011 A 
HETATM   33  C   UNL     1       8.571  -6.199  -3.157  1.00  0.00     0.001 A 
HETATM   34  C   UNL     1       9.543  -7.194  -3.089  1.00  0.00     0.000 A 
HETATM   35  C   UNL     1      10.492  -7.166  -2.073  1.00  0.00     0.001 A 
HETATM   36  C   UNL     1      10.461  -6.145  -1.121  1.00  0.00     0.011 A 
ENDBRANCH  22  31
ENDBRANCH   2  22
TORSDOF 8
