REMARK  8 active torsions:
REMARK  status: ('A' for Active; 'I' for Inactive)
REMARK    1  A    between atoms: C_4  and  C_5 
REMARK    2  A    between atoms: C_5  and  N_6 
REMARK    3  A    between atoms: C_5  and  C_31 
REMARK       I    between atoms: N_6  and  C_7 
REMARK    4  A    between atoms: N_6  and  C_21 
REMARK    5  A    between atoms: C_7  and  C_8 
REMARK    6  A    between atoms: C_11  and  C_12 
REMARK    7  A    between atoms: C_21  and  C_22 
REMARK       I    between atoms: C_31  and  N_32 
REMARK    8  A    between atoms: N_32  and  C_33 
ROOT
HETATM    1  N   UNL     1       5.704   2.572   1.352  1.00  0.00    -0.323 N 
HETATM    2  C   UNL     1       6.572   2.319   2.415  1.00  0.00     0.271 C 
HETATM    3  O   UNL     1       7.284   1.313   2.426  1.00  0.00    -0.266 OA
ENDROOT
BRANCH   1   4
HETATM    4  C   UNL     1       5.801   1.760   0.113  1.00  0.00     0.237 C 
BRANCH   4   5
HETATM    5  C   UNL     1       7.183   1.762  -0.468  1.00  0.00     0.085 A 
HETATM    6  O   UNL     1       7.605   2.943  -1.015  1.00  0.00    -0.317 OA
HETATM    7  C   UNL     1       8.858   2.738  -1.506  1.00  0.00     0.049 A 
HETATM    8  C   UNL     1       9.512   3.891  -2.155  1.00  0.00     0.076 C 
HETATM    9  C   UNL     1       9.249   1.438  -1.281  1.00  0.00     0.035 A 
HETATM   10  C   UNL     1       8.173   0.808  -0.613  1.00  0.00     0.038 A 
ENDBRANCH   4   5
BRANCH   4  11
HETATM   11  C   UNL     1       5.240   0.312   0.204  1.00  0.00     0.247 C 
HETATM   12  N   UNL     1       5.352  -0.304   1.437  1.00  0.00    -0.354 N 
HETATM   13  H   UNL     1       6.093   0.069   2.028  1.00  0.00     0.162 HD
HETATM   14  O   UNL     1       4.790  -0.278  -0.779  1.00  0.00    -0.271 OA
BRANCH  12  15
HETATM   15  C   UNL     1       4.987  -1.696   1.658  1.00  0.00     0.084 C 
HETATM   16  C   UNL     1       6.146  -2.637   1.300  1.00  0.00     0.025 C 
HETATM   17  C   UNL     1       7.296  -2.562   2.305  1.00  0.00     0.002 C 
HETATM   18  C   UNL     1       6.814  -2.786   3.735  1.00  0.00     0.000 C 
HETATM   19  C   UNL     1       5.686  -1.831   4.110  1.00  0.00     0.002 C 
HETATM   20  C   UNL     1       4.533  -1.900   3.109  1.00  0.00     0.025 C 
ENDBRANCH  12  15
ENDBRANCH   4  11
ENDBRANCH   1   4
BRANCH   1  21
HETATM   21  C   UNL     1       4.396   3.190   1.584  1.00  0.00     0.166 C 
BRANCH  21  22
HETATM   22  C   UNL     1       4.119   4.467   0.819  1.00  0.00    -0.037 A 
HETATM   23  C   UNL     1       2.806   4.974   0.842  1.00  0.00     0.048 A 
HETATM   24  C   UNL     1       2.537   6.144   0.164  1.00  0.00     0.105 A 
HETATM   25  C   UNL     1       3.513   6.821  -0.525  1.00  0.00     0.105 A 
HETATM   26  O   UNL     1       1.326   6.758   0.091  1.00  0.00    -0.323 OA
HETATM   27  O   UNL     1       3.040   7.946  -1.123  1.00  0.00    -0.323 OA
HETATM   28  C   UNL     1       4.812   6.368  -0.566  1.00  0.00     0.040 A 
HETATM   29  C   UNL     1       1.652   7.898  -0.731  1.00  0.00     0.352 A 
HETATM   30  C   UNL     1       5.116   5.186   0.120  1.00  0.00     0.012 A 
ENDBRANCH  21  22
ENDBRANCH   1  21
BRANCH   2  31
HETATM   31  C   UNL     1       6.533   3.179   3.578  1.00  0.00     0.101 C 
HETATM   32  N   UNL     1       6.717   2.668   4.844  1.00  0.00    -0.351 N 
HETATM   33  H   UNL     1       6.888   1.688   5.029  1.00  0.00     0.166 HD
HETATM   34  C   UNL     1       6.501   3.628   5.805  1.00  0.00     0.043 C 
HETATM   35  C   UNL     1       6.327   4.819   5.121  1.00  0.00     0.033 C 
HETATM   36  C   UNL     1       6.368   4.543   3.731  1.00  0.00     0.037 C 
BRANCH  34  37
HETATM   37  C   UNL     1       6.449   3.320   7.236  1.00  0.00    -0.009 A 
HETATM   38  C   UNL     1       7.218   2.285   7.788  1.00  0.00     0.013 A 
HETATM   39  C   UNL     1       7.117   1.967   9.145  1.00  0.00     0.001 A 
HETATM   40  C   UNL     1       6.248   2.681   9.968  1.00  0.00     0.000 A 
HETATM   41  C   UNL     1       5.487   3.719   9.436  1.00  0.00     0.001 A 
HETATM   42  C   UNL     1       5.589   4.037   8.079  1.00  0.00     0.013 A 
ENDBRANCH  34  37
ENDBRANCH   2  31
TORSDOF 8
