REMARK  9 active torsions:
REMARK  status: ('A' for Active; 'I' for Inactive)
REMARK    1  A    between atoms: C_2  and  C_3 
REMARK    2  A    between atoms: C_3  and  C_4 
REMARK    3  A    between atoms: C_3  and  C_39 
REMARK    4  A    between atoms: C_6  and  C_7 
REMARK    5  A    between atoms: C_14  and  C_15 
REMARK    6  A    between atoms: C_18  and  C_19 
REMARK    7  A    between atoms: C_19  and  N_20 
REMARK       I    between atoms: N_20  and  C_21 
REMARK       I    between atoms: C_21  and  N_22 
REMARK    8  A    between atoms: N_22  and  C_23 
REMARK    9  A    between atoms: C_26  and  C_27 
ROOT
HETATM    1  C   UNL     1       0.304  -4.360  -2.513  1.00  0.00     0.068 C 
HETATM    2  C   UNL     1      -0.506  -4.164  -3.826  1.00  0.00     0.001 C 
HETATM    3  C   UNL     1      -0.492  -2.670  -4.228  1.00  0.00     0.040 C 
HETATM    4  C   UNL     1      -1.201  -1.815  -3.162  1.00  0.00     0.206 C 
HETATM    5  N   UNL     1      -1.511  -2.741  -1.990  1.00  0.00    -0.065 N 
HETATM    6  H   UNL     1      -1.874  -2.146  -1.214  1.00  0.00     0.280 HD
HETATM    7  C   UNL     1      -0.279  -3.435  -1.426  1.00  0.00     0.246 C 
HETATM    8  C   UNL     1      -1.971  -4.572  -3.547  1.00  0.00     0.033 C 
HETATM    9  C   UNL     1      -2.550  -3.755  -2.386  1.00  0.00     0.236 C 
ENDROOT
BRANCH   1  10
HETATM   10  C   UNL     1       1.792  -4.173  -2.730  1.00  0.00     0.045 A 
HETATM   11  N   UNL     1       2.333  -2.983  -2.400  1.00  0.00    -0.233 NA
HETATM   12  C   UNL     1       3.648  -2.813  -2.658  1.00  0.00     0.160 A 
HETATM   13  N   UNL     1       4.417  -3.726  -3.274  1.00  0.00    -0.233 NA
HETATM   14  C   UNL     1       3.856  -4.906  -3.608  1.00  0.00     0.043 A 
HETATM   15  C   UNL     1       2.532  -5.180  -3.324  1.00  0.00     0.055 A 
BRANCH  12  16
HETATM   16  C   UNL     1       4.280  -1.550  -2.240  1.00  0.00     0.014 A 
HETATM   17  C   UNL     1       5.559  -1.190  -2.689  1.00  0.00     0.034 A 
HETATM   18  C   UNL     1       6.118   0.007  -2.270  1.00  0.00     0.117 A 
HETATM   19  N   UNL     1       5.499   0.869  -1.439  1.00  0.00    -0.273 NA
HETATM   20  C   UNL     1       4.280   0.513  -0.995  1.00  0.00     0.117 A 
HETATM   21  C   UNL     1       3.641  -0.661  -1.361  1.00  0.00     0.034 A 
ENDBRANCH  12  16
BRANCH  14  22
HETATM   22  C   UNL     1       4.761  -5.907  -4.305  1.00  0.00     0.037 C 
BRANCH  22  23
HETATM   23  C   UNL     1       4.118  -6.555  -5.553  1.00  0.00     0.006 C 
HETATM   24  C   UNL     1       3.714  -5.547  -6.622  1.00  0.00     0.006 C 
ENDBRANCH  22  23
BRANCH  22  25
HETATM   25  C   UNL     1       5.237  -7.004  -3.329  1.00  0.00     0.006 C 
HETATM   26  C   UNL     1       6.131  -6.472  -2.214  1.00  0.00     0.006 C 
ENDBRANCH  22  25
ENDBRANCH  14  22
ENDBRANCH   1  10
BRANCH   4  27
HETATM   27  C   UNL     1      -0.414  -0.539  -2.762  1.00  0.00     0.157 C 
BRANCH  27  28
HETATM   28  N   UNL     1      -1.180   0.462  -2.014  1.00  0.00    -0.341 N 
HETATM   29  C   UNL     1      -1.653   0.225  -0.745  1.00  0.00     0.320 C 
HETATM   30  N   UNL     1      -2.184   1.346  -0.167  1.00  0.00    -0.309 N 
HETATM   31  O   UNL     1      -1.623  -0.903  -0.262  1.00  0.00    -0.247 OA
HETATM   32  H   UNL     1      -2.419   2.109  -0.786  1.00  0.00     0.170 HD
HETATM   33  H   UNL     1      -0.903   1.423  -2.174  1.00  0.00     0.164 HD
BRANCH  30  34
HETATM   34  C   UNL     1      -2.640   1.462   1.165  1.00  0.00     0.036 A 
HETATM   35  C   UNL     1      -2.347   0.527   2.162  1.00  0.00     0.030 A 
HETATM   36  C   UNL     1      -2.830   0.694   3.466  1.00  0.00     0.017 A 
HETATM   37  C   UNL     1      -3.611   1.805   3.790  1.00  0.00     0.009 A 
HETATM   38  C   UNL     1      -3.887   2.754   2.798  1.00  0.00     0.017 A 
HETATM   39  C   UNL     1      -3.399   2.587   1.496  1.00  0.00     0.030 A 
BRANCH  37  40
HETATM   40  C   UNL     1      -4.163   2.018   5.160  1.00  0.00     0.155 C 
HETATM   41  C   UNL     1      -3.914   0.978   6.220  1.00  0.00     0.096 C 
HETATM   42  O   UNL     1      -4.811   3.034   5.401  1.00  0.00    -0.293 OA
ENDBRANCH  37  40
ENDBRANCH  30  34
ENDBRANCH  27  28
ENDBRANCH   4  27
TORSDOF 9
