REMARK  4 active torsions:
REMARK  status: ('A' for Active; 'I' for Inactive)
REMARK    1  A    between atoms: O_2  and  C_3 
REMARK    2  A    between atoms: C_5  and  C_6 
REMARK    3  A    between atoms: C_10  and  N_11 
REMARK    4  A    between atoms: C_14  and  C_15 
ROOT
HETATM    1  C   UNL     1       2.271   4.728  -0.096  1.00  0.00     0.164 C 
HETATM    2  N   UNL     1       3.085   5.913   0.165  1.00  0.00    -0.074 N 
HETATM    3  C   UNL     1       2.783   7.166  -0.305  1.00  0.00     0.736 C 
HETATM    4  N   UNL     1       3.620   8.028   0.209  1.00  0.00     0.131 NA
HETATM    5  C   UNL     1       4.395   7.256   1.023  1.00  0.00     0.753 C 
HETATM    6  N   UNL     1       4.061   5.970   1.090  1.00  0.00     0.037 NA
HETATM    7  N   UNL     1       1.743   7.373  -1.140  1.00  0.00    -0.214 N 
HETATM    8  C   UNL     1       0.693   6.363  -1.198  1.00  0.00     0.135 C 
HETATM    9  C   UNL     1       1.331   4.969  -1.293  1.00  0.00     0.063 C 
HETATM   10  H   UNL     1       1.430   8.337  -1.228  1.00  0.00     0.178 HD
ENDROOT
BRANCH   1  11
HETATM   11  C   UNL     1       3.065   3.448  -0.326  1.00  0.00    -0.030 A 
HETATM   12  C   UNL     1       2.482   2.215   0.034  1.00  0.00     0.046 A 
HETATM   13  C   UNL     1       3.139   1.008  -0.219  1.00  0.00     0.068 A 
HETATM   14  C   UNL     1       4.396   1.029  -0.822  1.00  0.00     0.037 A 
HETATM   15  C   UNL     1       4.985   2.238  -1.190  1.00  0.00     0.003 A 
HETATM   16  C   UNL     1       4.320   3.440  -0.954  1.00  0.00     0.009 A 
BRANCH  13  17
HETATM   17  O   UNL     1       2.664  -0.241   0.071  1.00  0.00    -0.356 OA
HETATM   18  C   UNL     1       1.319  -0.331   0.524  1.00  0.00     0.210 C 
ENDBRANCH  13  17
ENDBRANCH   1  11
BRANCH   8  19
HETATM   19  C   UNL     1      -0.226   6.607  -2.381  1.00  0.00    -0.035 A 
HETATM   20  C   UNL     1       0.273   7.016  -3.630  1.00  0.00     0.010 A 
HETATM   21  C   UNL     1      -0.585   7.195  -4.718  1.00  0.00     0.019 A 
HETATM   22  C   UNL     1      -1.949   6.957  -4.568  1.00  0.00     0.011 A 
HETATM   23 BR   UNL     1      -3.110   7.188  -6.042  1.00  0.00    -0.051 Br
HETATM   24  C   UNL     1      -2.463   6.544  -3.342  1.00  0.00     0.019 A 
HETATM   25  C   UNL     1      -1.604   6.369  -2.253  1.00  0.00     0.010 A 
ENDBRANCH   8  19
BRANCH   5  26
HETATM   26  N   UNL     1       5.366   7.841   1.718  1.00  0.00    -0.229 N 
HETATM   27  H   UNL     1       5.318   8.845   1.813  1.00  0.00     0.174 HD
HETATM   28  H   UNL     1       5.713   7.346   2.527  1.00  0.00     0.174 HD
ENDBRANCH   5  26
TORSDOF 4
