REMARK  5 active torsions:
REMARK  status: ('A' for Active; 'I' for Inactive)
REMARK    1  A    between atoms: C_3  and  C_4 
REMARK    2  A    between atoms: C_9  and  N_10 
REMARK       I    between atoms: N_10  and  C_11 
REMARK    3  A    between atoms: C_11  and  C_12 
REMARK    4  A    between atoms: C_14  and  C_15 
REMARK    5  A    between atoms: C_17  and  O_18 
ROOT
HETATM    1  C   UNL     1       3.035  -3.745   0.171  1.00  0.00     0.149 A 
HETATM    2  N   UNL     1       2.607  -4.991   0.619  1.00  0.00    -0.223 NA
HETATM    3  C   UNL     1       1.299  -5.026   0.429  1.00  0.00     0.139 A 
HETATM    4  N   UNL     1       0.872  -3.831  -0.104  1.00  0.00    -0.342 N 
HETATM    5  H   UNL     1      -0.090  -3.596  -0.305  1.00  0.00     0.167 HD
HETATM    6  C   UNL     1       1.953  -3.009  -0.275  1.00  0.00     0.041 A 
HETATM    7  C   UNL     1       1.849  -1.638  -0.824  1.00  0.00     0.071 C 
ENDROOT
BRANCH   1   8
HETATM    8  C   UNL     1       4.445  -3.327   0.201  1.00  0.00     0.276 C 
HETATM    9  N   UNL     1       5.257  -4.330   0.692  1.00  0.00    -0.322 N 
HETATM   10  H   UNL     1       4.753  -5.180   0.934  1.00  0.00     0.169 HD
HETATM   11  O   UNL     1       4.800  -2.217  -0.177  1.00  0.00    -0.266 OA
BRANCH   9  12
HETATM   12  C   UNL     1       6.649  -4.300   0.892  1.00  0.00     0.035 A 
HETATM   13  C   UNL     1       7.446  -3.190   0.623  1.00  0.00     0.030 A 
HETATM   14  C   UNL     1       8.822  -3.225   0.870  1.00  0.00     0.018 A 
HETATM   15  C   UNL     1       9.429  -4.379   1.384  1.00  0.00     0.015 A 
HETATM   16  C   UNL     1       8.641  -5.516   1.648  1.00  0.00    -0.046 A 
HETATM   17  C   UNL     1       9.219  -6.791   2.201  1.00  0.00     0.049 C 
HETATM   18  C   UNL     1       7.254  -5.455   1.404  1.00  0.00     0.037 A 
BRANCH  15  19
HETATM   19  C   UNL     1      10.898  -4.357   1.665  1.00  0.00     0.156 C 
HETATM   20  C   UNL     1      11.783  -3.511   0.785  1.00  0.00     0.097 C 
HETATM   21  O   UNL     1      11.365  -4.990   2.608  1.00  0.00    -0.293 OA
ENDBRANCH  15  19
ENDBRANCH   9  12
ENDBRANCH   1   8
BRANCH   3  22
HETATM   22  C   UNL     1       0.394  -6.130   0.763  1.00  0.00     0.013 A 
HETATM   23  C   UNL     1       0.731  -7.012   1.804  1.00  0.00     0.052 A 
HETATM   24  C   UNL     1      -0.126  -8.055   2.162  1.00  0.00     0.069 A 
HETATM   25  C   UNL     1      -1.322  -8.229   1.464  1.00  0.00     0.037 A 
HETATM   26  C   UNL     1      -1.665  -7.373   0.419  1.00  0.00     0.004 A 
HETATM   27  C   UNL     1      -0.810  -6.327   0.070  1.00  0.00     0.015 A 
BRANCH  24  28
HETATM   28  O   UNL     1       0.084  -8.964   3.163  1.00  0.00    -0.356 OA
HETATM   29  C   UNL     1       1.260  -8.799   3.945  1.00  0.00     0.210 C 
ENDBRANCH  24  28
ENDBRANCH   3  22
TORSDOF 5
