REMARK  5 active torsions:
REMARK  status: ('A' for Active; 'I' for Inactive)
REMARK    1  A    between atoms: C_2  and  C_3 
REMARK    2  A    between atoms: C_5  and  N_6 
REMARK       I    between atoms: N_6  and  C_7 
REMARK    3  A    between atoms: C_7  and  C_8 
REMARK    4  A    between atoms: C_16  and  C_17 
REMARK    5  A    between atoms: C_20  and  O_21 
ROOT
HETATM    1  C   UNL     1       5.551   2.663   2.148  1.00  0.00     0.047 A 
HETATM    2  C   UNL     1       5.439   4.069   2.096  1.00  0.00     0.008 A 
HETATM    3  C   UNL     1       4.700   4.580   1.015  1.00  0.00     0.068 A 
HETATM    4  C   UNL     1       4.519   5.953   0.913  1.00  0.00     0.032 A 
HETATM    5  C   UNL     1       5.073   6.844   1.835  1.00  0.00     0.002 A 
HETATM    6  C   UNL     1       5.842   6.357   2.881  1.00  0.00     0.001 A 
HETATM    7  C   UNL     1       6.031   4.983   3.010  1.00  0.00     0.015 A 
HETATM    8  N   UNL     1       4.170   3.803   0.056  1.00  0.00    -0.248 NA
HETATM    9  C   UNL     1       4.353   2.460   0.078  1.00  0.00     0.068 A 
HETATM   10  C   UNL     1       5.032   1.862   1.125  1.00  0.00     0.050 A 
ENDROOT
BRANCH   1  11
HETATM   11  C   UNL     1       6.224   1.926   3.250  1.00  0.00     0.257 C 
HETATM   12  N   UNL     1       5.822   2.279   4.525  1.00  0.00    -0.323 N 
HETATM   13  H   UNL     1       5.139   3.024   4.605  1.00  0.00     0.169 HD
HETATM   14  O   UNL     1       7.023   1.049   2.946  1.00  0.00    -0.267 OA
BRANCH  12  15
HETATM   15  C   UNL     1       6.264   1.717   5.742  1.00  0.00     0.035 A 
HETATM   16  C   UNL     1       7.077   0.582   5.823  1.00  0.00     0.044 A 
HETATM   17  C   UNL     1       7.467   0.072   7.070  1.00  0.00     0.011 A 
HETATM   18  C   UNL     1       7.058   0.721   8.241  1.00  0.00     0.015 A 
HETATM   19  C   UNL     1       6.248   1.852   8.168  1.00  0.00     0.003 A 
HETATM   20  C   UNL     1       5.844   2.341   6.924  1.00  0.00     0.029 A 
BRANCH  17  21
HETATM   21  C   UNL     1       8.304  -1.158   7.194  1.00  0.00     0.155 C 
HETATM   22  C   UNL     1       8.568  -1.991   5.966  1.00  0.00     0.096 C 
HETATM   23  O   UNL     1       8.757  -1.480   8.291  1.00  0.00    -0.293 OA
ENDBRANCH  17  21
ENDBRANCH  12  15
ENDBRANCH   1  11
BRANCH   9  24
HETATM   24  C   UNL     1       3.829   1.713  -1.093  1.00  0.00    -0.007 A 
HETATM   25  C   UNL     1       3.510   2.386  -2.288  1.00  0.00     0.016 A 
HETATM   26  C   UNL     1       3.076   1.698  -3.428  1.00  0.00     0.037 A 
HETATM   27  C   UNL     1       2.958   0.312  -3.415  1.00  0.00     0.068 A 
HETATM   28  C   UNL     1       3.225  -0.377  -2.236  1.00  0.00     0.037 A 
HETATM   29  C   UNL     1       3.651   0.316  -1.092  1.00  0.00     0.016 A 
BRANCH  27  30
HETATM   30  O   UNL     1       2.559  -0.252  -4.594  1.00  0.00    -0.356 OA
HETATM   31  C   UNL     1       2.848  -1.636  -4.754  1.00  0.00     0.210 C 
ENDBRANCH  27  30
ENDBRANCH   9  24
TORSDOF 5
