REMARK  5 active torsions:
REMARK  status: ('A' for Active; 'I' for Inactive)
REMARK    1  A    between atoms: C_2  and  C_3 
REMARK    2  A    between atoms: C_3  and  C_4 
REMARK    3  A    between atoms: C_7  and  N_8 
REMARK       I    between atoms: N_8  and  C_9 
REMARK       I    between atoms: C_9  and  N_10 
REMARK    4  A    between atoms: N_10  and  N_11 
REMARK       I    between atoms: N_11  and  C_12 
REMARK    5  A    between atoms: C_12  and  C_13 
ROOT
HETATM    1  N   UNL     1       6.582  -2.109   0.254  1.00  0.00    -0.337 N 
HETATM    2  C   UNL     1       7.031  -2.979  -0.711  1.00  0.00     0.335 C 
HETATM    3  N   UNL     1       8.389  -2.997  -0.869  1.00  0.00    -0.249 N 
HETATM    4  O   UNL     1       6.301  -3.698  -1.385  1.00  0.00    -0.246 OA
HETATM    5  H   UNL     1       7.187  -1.307   0.365  1.00  0.00     0.164 HD
HETATM    6  H   UNL     1       8.783  -3.628  -1.566  1.00  0.00     0.192 HD
ENDROOT
BRANCH   3   7
HETATM    7  N   UNL     1       9.284  -2.424   0.051  1.00  0.00    -0.262 N 
HETATM    8  C   UNL     1      10.635  -2.562  -0.248  1.00  0.00     0.272 C 
HETATM    9  O   UNL     1      11.016  -2.976  -1.341  1.00  0.00    -0.266 OA
HETATM   10  H   UNL     1       9.003  -2.460   1.026  1.00  0.00     0.190 HD
BRANCH   8  11
HETATM   11  C   UNL     1      11.554  -2.231   0.840  1.00  0.00     0.061 A 
HETATM   12  C   UNL     1      12.955  -2.549   0.898  1.00  0.00     0.008 A 
HETATM   13  C   UNL     1      13.457  -2.043   2.098  1.00  0.00     0.043 A 
HETATM   14  C   UNL     1      13.846  -3.228   0.038  1.00  0.00     0.015 A 
HETATM   15  C   UNL     1      14.798  -2.179   2.479  1.00  0.00     0.030 A 
HETATM   16  N   UNL     1      12.411  -1.433   2.747  1.00  0.00    -0.364 N 
HETATM   17  C   UNL     1      15.655  -2.858   1.608  1.00  0.00     0.002 A 
HETATM   18  C   UNL     1      15.189  -3.377   0.404  1.00  0.00     0.001 A 
HETATM   19  H   UNL     1      12.491  -0.967   3.641  1.00  0.00     0.165 HD
HETATM   20  C   UNL     1      11.262  -1.540   2.006  1.00  0.00     0.106 A 
ENDBRANCH   8  11
ENDBRANCH   3   7
BRANCH   1  21
HETATM   21  C   UNL     1       5.147  -1.901   0.433  1.00  0.00     0.086 C 
HETATM   22  C   UNL     1       4.835  -1.406   1.850  1.00  0.00     0.026 C 
HETATM   23  C   UNL     1       5.160   0.073   2.060  1.00  0.00     0.006 C 
HETATM   24  C   UNL     1       4.509   0.983   1.007  1.00  0.00    -0.014 C 
HETATM   25  C   UNL     1       4.924   0.507  -0.396  1.00  0.00     0.006 C 
HETATM   26  C   UNL     1       4.583  -0.964  -0.648  1.00  0.00     0.026 C 
BRANCH  24  27
HETATM   27  C   UNL     1       2.970   1.076   1.117  1.00  0.00     0.004 C 
BRANCH  27  28
HETATM   28  C   UNL     1       2.477   1.687   2.430  1.00  0.00    -0.004 C 
HETATM   29  C   UNL     1       0.964   1.858   2.421  1.00  0.00     0.005 C 
ENDBRANCH  27  28
ENDBRANCH  24  27
ENDBRANCH   1  21
TORSDOF 5
