REMARK  8 active torsions:
REMARK  status: ('A' for Active; 'I' for Inactive)
REMARK    1  A    between atoms: O_2  and  C_3 
REMARK    2  A    between atoms: C_4  and  O_5 
REMARK    3  A    between atoms: C_8  and  C_9 
REMARK    4  A    between atoms: C_9  and  C_10 
REMARK    5  A    between atoms: C_10  and  N_11 
REMARK       I    between atoms: N_11  and  C_12 
REMARK    6  A    between atoms: C_12  and  C_13 
REMARK    7  A    between atoms: C_13  and  S_14 
REMARK    8  A    between atoms: S_14  and  C_15 
ROOT
HETATM    1  N   UNL     1       6.233  -4.778  -4.894  1.00  0.00    -0.360 N 
HETATM    2  C   UNL     1       6.001  -4.835  -6.249  1.00  0.00     0.227 C 
HETATM    3  O   UNL     1       5.350  -3.984  -6.852  1.00  0.00    -0.273 OA
HETATM    4  H   UNL     1       6.636  -5.597  -4.436  1.00  0.00     0.162 HD
ENDROOT
BRANCH   2   5
HETATM    5  C   UNL     1       6.667  -5.999  -6.962  1.00  0.00     0.185 C 
BRANCH   5   6
HETATM    6  S   UNL     1       5.729  -7.539  -6.771  1.00  0.00    -0.080 SA
BRANCH   6   7
HETATM    7  C   UNL     1       6.414  -8.186  -5.317  1.00  0.00     0.197 A 
HETATM    8  N   UNL     1       6.439  -9.511  -4.914  1.00  0.00    -0.271 N 
HETATM    9  C   UNL     1       6.949  -9.442  -3.617  1.00  0.00     0.159 A 
HETATM   10  C   UNL     1       6.089 -10.747  -5.531  1.00  0.00     0.053 A 
HETATM   11  C   UNL     1       7.063 -10.618  -2.840  1.00  0.00     0.054 A 
HETATM   12  N   UNL     1       7.265  -8.201  -3.317  1.00  0.00    -0.129 NA
HETATM   13  C   UNL     1       6.715 -11.805  -3.352  1.00  0.00     0.017 A 
HETATM   14  C   UNL     1       6.228 -11.905  -4.733  1.00  0.00    -0.009 A 
HETATM   15  C   UNL     1       5.912 -13.162  -5.263  1.00  0.00     0.014 A 
HETATM   16  C   UNL     1       5.472 -13.275  -6.580  1.00  0.00     0.001 A 
HETATM   17  C   UNL     1       5.350 -12.135  -7.371  1.00  0.00     0.002 A 
HETATM   18  C   UNL     1       5.657 -10.873  -6.853  1.00  0.00     0.031 A 
HETATM   19  N   UNL     1       6.939  -7.419  -4.385  1.00  0.00    -0.122 NA
ENDBRANCH   6   7
ENDBRANCH   5   6
ENDBRANCH   2   5
BRANCH   1  20
HETATM   20  C   UNL     1       5.781  -3.683  -4.065  1.00  0.00     0.127 C 
BRANCH  20  21
HETATM   21  C   UNL     1       4.278  -3.713  -3.777  1.00  0.00     0.058 C 
BRANCH  21  22
HETATM   22  C   UNL     1       3.912  -2.641  -2.776  1.00  0.00    -0.054 A 
HETATM   23  C   UNL     1       3.818  -2.950  -1.408  1.00  0.00     0.046 A 
HETATM   24  C   UNL     1       3.561  -1.950  -0.464  1.00  0.00     0.102 A 
HETATM   25  C   UNL     1       3.422  -0.623  -0.900  1.00  0.00     0.101 A 
HETATM   26  C   UNL     1       3.476  -0.313  -2.262  1.00  0.00     0.040 A 
HETATM   27  C   UNL     1       3.727  -1.318  -3.196  1.00  0.00     0.010 A 
BRANCH  24  28
HETATM   28  O   UNL     1       3.473  -2.156   0.889  1.00  0.00    -0.353 OA
HETATM   29  C   UNL     1       3.415  -3.502   1.338  1.00  0.00     0.210 C 
ENDBRANCH  24  28
BRANCH  25  30
HETATM   30  O   UNL     1       3.170   0.350   0.037  1.00  0.00    -0.353 OA
HETATM   31  C   UNL     1       4.112   1.419  -0.027  1.00  0.00     0.210 C 
ENDBRANCH  25  30
ENDBRANCH  21  22
ENDBRANCH  20  21
ENDBRANCH   1  20
TORSDOF 8
