REMARK  9 active torsions:
REMARK  status: ('A' for Active; 'I' for Inactive)
REMARK    1  A    between atoms: C_2  and  C_3 
REMARK    2  A    between atoms: C_8  and  O_9 
REMARK    3  A    between atoms: C_10  and  C_11 
REMARK    4  A    between atoms: C_11  and  N_12 
REMARK       I    between atoms: N_12  and  C_13 
REMARK    5  A    between atoms: N_12  and  C_23 
REMARK       I    between atoms: C_13  and  N_14 
REMARK    6  A    between atoms: N_14  and  C_15 
REMARK    7  A    between atoms: C_23  and  C_24 
REMARK    8  A    between atoms: C_24  and  C_25 
REMARK    9  A    between atoms: C_25  and  N_26 
ROOT
HETATM    1  N   UNL     1       3.379  -7.501   4.563  1.00  0.00    -0.330 N 
HETATM    2  C   UNL     1       4.329  -6.886   5.393  1.00  0.00     0.323 C 
HETATM    3  N   UNL     1       4.289  -7.336   6.697  1.00  0.00    -0.309 N 
HETATM    4  O   UNL     1       5.053  -5.990   4.977  1.00  0.00    -0.247 OA
HETATM    5  H   UNL     1       3.504  -7.911   6.932  1.00  0.00     0.170 HD
ENDROOT
BRANCH   1   6
HETATM    6  C   UNL     1       2.998  -6.783   3.335  1.00  0.00     0.170 C 
BRANCH   6   7
HETATM    7  C   UNL     1       2.096  -5.612   3.618  1.00  0.00     0.013 A 
HETATM    8  C   UNL     1       0.718  -5.693   3.597  1.00  0.00     0.170 A 
HETATM    9  N   UNL     1      -0.139  -4.708   3.915  1.00  0.00    -0.224 NA
HETATM   10  C   UNL     1       0.389  -3.524   4.283  1.00  0.00     0.070 A 
HETATM   11  C   UNL     1       1.779  -3.299   4.310  1.00  0.00    -0.006 A 
HETATM   12  C   UNL     1      -0.445  -2.477   4.655  1.00  0.00     0.033 A 
HETATM   13  C   UNL     1       2.295  -2.046   4.688  1.00  0.00     0.021 A 
HETATM   14  C   UNL     1       2.621  -4.364   3.963  1.00  0.00     0.027 A 
HETATM   15  C   UNL     1       1.441  -1.003   5.060  1.00  0.00    -0.058 A 
HETATM   16  C   UNL     1       0.063  -1.232   5.043  1.00  0.00     0.009 A 
BRANCH   8  17
HETATM   17  O   UNL     1       0.064  -6.822   3.222  1.00  0.00    -0.344 OA
HETATM   18  H   UNL     1      -0.841  -6.448   3.236  1.00  0.00     0.219 HD
ENDBRANCH   8  17
BRANCH  15  19
HETATM   19  C   UNL     1       1.996   0.341   5.460  1.00  0.00     0.034 C 
HETATM   20  C   UNL     1       1.815   1.384   4.367  1.00  0.00     0.010 C 
ENDBRANCH  15  19
ENDBRANCH   6   7
ENDBRANCH   1   6
BRANCH   1  21
HETATM   21  C   UNL     1       2.990  -8.905   4.693  1.00  0.00     0.129 C 
BRANCH  21  22
HETATM   22  C   UNL     1       1.616  -9.089   5.336  1.00  0.00     0.048 C 
BRANCH  22  23
HETATM   23  C   UNL     1       1.235 -10.554   5.537  1.00  0.00     0.236 C 
BRANCH  23  24
HETATM   24  N   UNL     1       0.827 -11.254   4.257  1.00  0.00    -0.067 N 
HETATM   25  H   UNL     1       1.545 -11.107   3.537  1.00  0.00     0.280 HD
HETATM   26  C   UNL     1       0.734 -12.771   4.490  1.00  0.00     0.261 C 
HETATM   27  C   UNL     1       0.270 -13.477   3.214  1.00  0.00     0.195 C 
HETATM   28  O   UNL     1      -0.989 -12.959   2.778  1.00  0.00    -0.388 OA
HETATM   29  C   UNL     1      -0.904 -11.568   2.460  1.00  0.00     0.195 C 
HETATM   30  C   UNL     1      -0.505 -10.745   3.690  1.00  0.00     0.261 C 
ENDBRANCH  23  24
ENDBRANCH  22  23
ENDBRANCH  21  22
ENDBRANCH   1  21
BRANCH   3  31
HETATM   31  C   UNL     1       4.984  -6.805   7.805  1.00  0.00     0.036 A 
HETATM   32  C   UNL     1       4.574  -7.238   9.075  1.00  0.00     0.031 A 
HETATM   33  C   UNL     1       5.165  -6.721  10.232  1.00  0.00     0.026 A 
HETATM   34  C   UNL     1       6.176  -5.772  10.124  1.00  0.00     0.034 A 
HETATM   35 CL   UNL     1       6.889  -5.119  11.545  1.00  0.00    -0.084 Cl
HETATM   36  C   UNL     1       6.606  -5.348   8.870  1.00  0.00     0.026 A 
HETATM   37  C   UNL     1       6.014  -5.868   7.713  1.00  0.00     0.031 A 
ENDBRANCH   3  31
TORSDOF 9
