REMARK  5 active torsions:
REMARK  status: ('A' for Active; 'I' for Inactive)
REMARK    1  A    between atoms: C_10  and  C_11 
REMARK    2  A    between atoms: C_13  and  O_14 
REMARK    3  A    between atoms: C_16  and  O_17 
REMARK    4  A    between atoms: O_17  and  C_18 
REMARK    5  A    between atoms: C_18  and  C_19 
ROOT
HETATM    1  C   UNL     1      10.090  -0.941  -0.298  1.00  0.00    -0.013 A 
HETATM    2  C   UNL     1       9.452  -1.128   0.945  1.00  0.00     0.050 A 
HETATM    3  C   UNL     1      10.164  -1.045   2.145  1.00  0.00     0.102 A 
HETATM    4  C   UNL     1      11.527  -0.725   2.100  1.00  0.00     0.112 A 
HETATM    5  C   UNL     1      12.191  -0.573   0.884  1.00  0.00     0.041 A 
HETATM    6  C   UNL     1      11.471  -0.670  -0.307  1.00  0.00     0.014 A 
ENDROOT
BRANCH   1   7
HETATM    7  C   UNL     1       9.329  -0.939  -1.614  1.00  0.00     0.219 C 
HETATM    8  N   UNL     1       8.238  -1.894  -1.638  1.00  0.00    -0.358 N 
HETATM    9  C   UNL     1       6.977  -1.480  -1.398  1.00  0.00     0.088 A 
HETATM   10  H   UNL     1       8.507  -2.860  -1.473  1.00  0.00     0.162 HD
HETATM   11  C   UNL     1       6.609  -0.156  -1.385  1.00  0.00     0.073 A 
HETATM   12  S   UNL     1       5.678  -2.523  -1.057  1.00  0.00    -0.074 SA
HETATM   13  C   UNL     1       5.218   0.008  -1.087  1.00  0.00    -0.023 A 
HETATM   14  C   UNL     1       7.610   0.857  -1.664  1.00  0.00     0.256 C 
HETATM   15  C   UNL     1       4.605  -1.214  -0.880  1.00  0.00     0.018 A 
HETATM   16  C   UNL     1       4.462   1.299  -0.974  1.00  0.00     0.068 C 
HETATM   17  C   UNL     1       3.161  -1.403  -0.565  1.00  0.00     0.281 C 
HETATM   18  N   UNL     1       2.547  -0.089  -0.097  1.00  0.00    -0.070 N 
HETATM   19  C   UNL     1       1.067  -0.197   0.088  1.00  0.00     0.270 C 
HETATM   20  H   UNL     1       2.961   0.104   0.825  1.00  0.00     0.279 HD
HETATM   21  C   UNL     1       2.940   1.072  -1.008  1.00  0.00     0.239 C 
HETATM   22  N   UNL     1       8.862   0.386  -1.937  1.00  0.00    -0.332 N 
HETATM   23  O   UNL     1       7.348   2.054  -1.687  1.00  0.00    -0.267 OA
HETATM   24  H   UNL     1       9.557   1.109  -2.054  1.00  0.00     0.165 HD
ENDBRANCH   1   7
BRANCH   3  25
HETATM   25  O   UNL     1       9.622  -1.219   3.390  1.00  0.00    -0.353 OA
HETATM   26  C   UNL     1       8.368  -1.883   3.461  1.00  0.00     0.210 C 
ENDBRANCH   3  25
BRANCH   4  27
HETATM   27  O   UNL     1      12.206  -0.619   3.326  1.00  0.00    -0.272 OA
BRANCH  27  28
HETATM   28  C   UNL     1      12.857   0.576   3.551  1.00  0.00     0.300 C 
HETATM   29  O   UNL     1      13.148   1.460   2.765  1.00  0.00    -0.259 OA
BRANCH  28  30
HETATM   30  C   UNL     1      13.209   0.612   4.975  1.00  0.00     0.061 A 
HETATM   31  C   UNL     1      12.263   0.977   5.939  1.00  0.00     0.051 A 
HETATM   32 CL   UNL     1      10.641   1.404   5.527  1.00  0.00    -0.083 Cl
HETATM   33  C   UNL     1      12.630   1.022   7.286  1.00  0.00     0.048 A 
HETATM   34  C   UNL     1      13.938   0.710   7.656  1.00  0.00     0.035 A 
HETATM   35 CL   UNL     1      14.387   0.767   9.315  1.00  0.00    -0.084 Cl
HETATM   36  C   UNL     1      14.886   0.358   6.694  1.00  0.00     0.025 A 
HETATM   37  C   UNL     1      14.525   0.312   5.346  1.00  0.00     0.021 A 
ENDBRANCH  28  30
ENDBRANCH  27  28
ENDBRANCH   4  27
TORSDOF 5
