REMARK  6 active torsions:
REMARK  status: ('A' for Active; 'I' for Inactive)
REMARK    1  A    between atoms: C_2  and  C_3 
REMARK    2  A    between atoms: C_3  and  C_4 
REMARK    3  A    between atoms: C_4  and  C_5 
REMARK    4  A    between atoms: C_4  and  C_21 
REMARK       I    between atoms: C_5  and  N_6 
REMARK    5  A    between atoms: N_6  and  C_7 
REMARK    6  A    between atoms: C_14  and  C_15 
REMARK       I    between atoms: C_15  and  N_16 
ROOT
HETATM    1  C   UNL     1       2.314  -5.763   0.374  1.00  0.00     0.035 A 
HETATM    2  C   UNL     1       2.939  -6.799  -0.334  1.00  0.00     0.046 A 
HETATM    3  C   UNL     1       2.881  -8.119   0.167  1.00  0.00     0.030 A 
HETATM    4  C   UNL     1       2.216  -8.354   1.364  1.00  0.00     0.063 A 
HETATM    5  N   UNL     1       2.333  -9.697   1.586  1.00  0.00    -0.277 N 
HETATM    6  H   UNL     1       1.969 -10.222   2.373  1.00  0.00     0.189 HD
HETATM    7  N   UNL     1       3.002 -10.364   0.632  1.00  0.00    -0.168 NA
HETATM    8  C   UNL     1       3.346  -9.402  -0.255  1.00  0.00     0.156 A 
HETATM    9  C   UNL     1       1.590  -7.346   2.099  1.00  0.00     0.034 A 
HETATM   10  C   UNL     1       1.648  -6.049   1.573  1.00  0.00     0.032 A 
ENDROOT
BRANCH   1  11
HETATM   11  N   UNL     1       2.283  -4.422  -0.063  1.00  0.00    -0.327 N 
HETATM   12  C   UNL     1       2.896  -3.875  -1.186  1.00  0.00     0.231 C 
HETATM   13  O   UNL     1       3.671  -4.469  -1.927  1.00  0.00    -0.272 OA
HETATM   14  H   UNL     1       1.709  -3.790   0.483  1.00  0.00     0.169 HD
BRANCH  12  15
HETATM   15  C   UNL     1       2.512  -2.392  -1.396  1.00  0.00     0.115 C 
BRANCH  15  16
HETATM   16  C   UNL     1       3.313  -1.643  -2.505  1.00  0.00    -0.001 C 
HETATM   17  C   UNL     1       3.080  -2.190  -3.922  1.00  0.00     0.011 C 
BRANCH  16  18
HETATM   18  C   UNL     1       4.833  -1.560  -2.233  1.00  0.00     0.001 C 
HETATM   19  C   UNL     1       5.193  -0.864  -0.927  1.00  0.00     0.005 C 
ENDBRANCH  16  18
ENDBRANCH  15  16
BRANCH  15  20
HETATM   20  C   UNL     1       1.003  -2.191  -1.566  1.00  0.00    -0.045 A 
HETATM   21  C   UNL     1       0.400  -1.028  -1.061  1.00  0.00     0.008 A 
HETATM   22  C   UNL     1      -0.973  -0.817  -1.205  1.00  0.00     0.001 A 
HETATM   23  C   UNL     1      -1.759  -1.763  -1.858  1.00  0.00     0.000 A 
HETATM   24  C   UNL     1      -1.174  -2.917  -2.373  1.00  0.00     0.001 A 
HETATM   25  C   UNL     1       0.199  -3.129  -2.234  1.00  0.00     0.008 A 
ENDBRANCH  15  20
ENDBRANCH  12  15
ENDBRANCH   1  11
BRANCH   8  26
HETATM   26  C   UNL     1       4.092  -9.728  -1.478  1.00  0.00     0.270 C 
HETATM   27  N   UNL     1       4.390 -11.057  -1.613  1.00  0.00    -0.365 N 
HETATM   28  H   UNL     1       4.077 -11.699  -0.894  1.00  0.00     0.159 HD
HETATM   29  H   UNL     1       4.883 -11.377  -2.431  1.00  0.00     0.159 HD
HETATM   30  O   UNL     1       4.430  -8.914  -2.331  1.00  0.00    -0.266 OA
ENDBRANCH   8  26
TORSDOF 6
