REMARK  6 active torsions:
REMARK  status: ('A' for Active; 'I' for Inactive)
REMARK    1  A    between atoms: C_2  and  C_3 
REMARK    2  A    between atoms: C_7  and  C_8 
REMARK       I    between atoms: C_8  and  N_9 
REMARK    3  A    between atoms: N_9  and  C_10 
REMARK    4  A    between atoms: C_11  and  O_12 
REMARK    5  A    between atoms: O_12  and  C_13 
REMARK    6  A    between atoms: C_13  and  C_14 
ROOT
HETATM    1  C   UNL     1       1.456  -4.643  -0.811  1.00  0.00     0.068 A 
HETATM    2  C   UNL     1       1.299  -5.203  -2.090  1.00  0.00     0.096 A 
HETATM    3  C   UNL     1       1.003  -4.404  -3.197  1.00  0.00     0.046 A 
HETATM    4  C   UNL     1       0.807  -3.029  -3.030  1.00  0.00    -0.059 A 
HETATM    5  C   UNL     1       0.525  -2.149  -4.212  1.00  0.00     0.048 C 
HETATM    6  C   UNL     1       0.947  -2.471  -1.753  1.00  0.00     0.009 A 
HETATM    7  C   UNL     1       1.269  -3.272  -0.650  1.00  0.00     0.033 A 
ENDROOT
BRANCH   1   8
HETATM    8  N   UNL     1       1.822  -5.519   0.233  1.00  0.00    -0.319 N 
HETATM    9  C   UNL     1       1.857  -5.261   1.588  1.00  0.00     0.274 C 
HETATM   10  O   UNL     1       1.432  -4.244   2.123  1.00  0.00    -0.266 OA
HETATM   11  H   UNL     1       1.962  -6.477  -0.068  1.00  0.00     0.169 HD
BRANCH   9  12
HETATM   12  C   UNL     1       2.411  -6.351   2.354  1.00  0.00     0.120 A 
HETATM   13  N   UNL     1       3.453  -7.147   1.961  1.00  0.00    -0.273 N 
HETATM   14  N   UNL     1       3.768  -8.109   2.840  1.00  0.00    -0.179 NA
HETATM   15  H   UNL     1       4.001  -7.080   1.110  1.00  0.00     0.189 HD
HETATM   16  C   UNL     1       2.937  -7.894   3.867  1.00  0.00     0.056 A 
HETATM   17  C   UNL     1       2.091  -6.788   3.623  1.00  0.00     0.065 A 
BRANCH  16  18
HETATM   18  C   UNL     1       2.976  -8.775   5.068  1.00  0.00     0.056 C 
HETATM   19  C   UNL     1       2.196 -10.065   4.860  1.00  0.00     0.011 C 
ENDBRANCH  16  18
ENDBRANCH   9  12
ENDBRANCH   1   8
BRANCH   2  20
HETATM   20  O   UNL     1       1.495  -6.559  -2.219  1.00  0.00    -0.340 OA
BRANCH  20  21
HETATM   21  C   UNL     1       0.337  -7.217  -2.771  1.00  0.00     0.293 C 
BRANCH  21  22
HETATM   22  C   UNL     1       0.306  -8.671  -2.329  1.00  0.00     0.408 C 
HETATM   23  F   UNL     1       0.302  -8.772  -0.980  1.00  0.00    -0.169 F 
HETATM   24  F   UNL     1      -0.807  -9.287  -2.788  1.00  0.00    -0.169 F 
HETATM   25  F   UNL     1       1.373  -9.356  -2.793  1.00  0.00    -0.169 F 
ENDBRANCH  21  22
ENDBRANCH  20  21
ENDBRANCH   2  20
TORSDOF 6
