REMARK  5 active torsions:
REMARK  status: ('A' for Active; 'I' for Inactive)
REMARK    1  A    between atoms: N_1  and  C_2 
REMARK    2  A    between atoms: C_2  and  C_3 
REMARK    3  A    between atoms: C_2  and  C_12 
REMARK    4  A    between atoms: C_3  and  C_4 
REMARK    5  A    between atoms: C_17  and  C_23 
ROOT
HETATM    1  C   UNL     1       2.866  -1.402  -0.661  1.00  0.00     0.141 A 
HETATM    2  N   UNL     1       2.385  -2.513  -0.200  1.00  0.00    -0.232 NA
HETATM    3  C   UNL     1       2.691  -3.696  -0.895  1.00  0.00     0.074 A 
HETATM    4  C   UNL     1       2.224  -4.910  -0.392  1.00  0.00     0.033 A 
HETATM    5  C   UNL     1       2.530  -6.114  -1.039  1.00  0.00     0.014 A 
HETATM    6  C   UNL     1       3.308  -6.127  -2.207  1.00  0.00    -0.022 A 
HETATM    7  C   UNL     1       3.773  -4.909  -2.717  1.00  0.00     0.031 A 
HETATM    8  C   UNL     1       3.462  -3.713  -2.060  1.00  0.00     0.061 A 
HETATM    9  C   UNL     1       3.953  -2.421  -2.569  1.00  0.00     0.259 A 
HETATM   10  O   UNL     1       4.632  -2.335  -3.583  1.00  0.00    -0.267 OA
HETATM   11  N   UNL     1       3.601  -1.332  -1.818  1.00  0.00    -0.309 N 
HETATM   12  H   UNL     1       3.929  -0.417  -2.107  1.00  0.00     0.170 HD
ENDROOT
BRANCH   1  13
HETATM   13  C   UNL     1       2.596  -0.048   0.013  1.00  0.00     0.291 C 
BRANCH  13  14
HETATM   14  N   UNL     1       3.585   0.949  -0.471  1.00  0.00     0.090 N 
HETATM   15  H   UNL     1       4.495   0.728  -0.059  1.00  0.00     0.313 HD
HETATM   16  H   UNL     1       3.337   1.863  -0.089  1.00  0.00     0.313 HD
ENDBRANCH  13  14
BRANCH  13  17
HETATM   17  C   UNL     1       2.501  -0.136   1.551  1.00  0.00     0.082 C 
BRANCH  17  18
HETATM   18  C   UNL     1       3.793  -0.471   2.269  1.00  0.00    -0.053 A 
HETATM   19  C   UNL     1       4.146  -1.808   2.518  1.00  0.00     0.010 A 
HETATM   20  C   UNL     1       5.343  -2.122   3.167  1.00  0.00     0.046 A 
HETATM   21  C   UNL     1       6.190  -1.100   3.576  1.00  0.00     0.154 A 
HETATM   22  F   UNL     1       7.338  -1.404   4.197  1.00  0.00    -0.203 F 
HETATM   23  C   UNL     1       5.848   0.226   3.346  1.00  0.00     0.155 A 
HETATM   24  F   UNL     1       6.665   1.213   3.741  1.00  0.00    -0.203 F 
HETATM   25  C   UNL     1       4.657   0.548   2.699  1.00  0.00     0.052 A 
ENDBRANCH  17  18
ENDBRANCH  13  17
ENDBRANCH   1  13
BRANCH   6  26
HETATM   26  C   UNL     1       3.630  -7.387  -2.855  1.00  0.00     0.010 A 
HETATM   27  C   UNL     1       3.740  -8.697  -2.331  1.00  0.00     0.152 A 
HETATM   28  N   UNL     1       4.049  -9.604  -3.261  1.00  0.00    -0.187 NA
HETATM   29  N   UNL     1       4.139  -8.880  -4.387  1.00  0.00    -0.289 N 
HETATM   30  H   UNL     1       4.368  -9.359  -5.252  1.00  0.00     0.188 HD
HETATM   31  C   UNL     1       3.894  -7.550  -4.199  1.00  0.00     0.123 A 
ENDBRANCH   6  26
TORSDOF 5
