REMARK  3 active torsions:
REMARK  status: ('A' for Active; 'I' for Inactive)
REMARK    1  A    between atoms: C_9  and  C_10 
REMARK       I    between atoms: C_10  and  N_11 
REMARK    2  A    between atoms: N_11  and  C_12 
REMARK    3  A    between atoms: C_13  and  O_14 
ROOT
HETATM    1  C   UNL     1       4.056   5.499  -1.395  1.00  0.00     0.268 C 
HETATM    2  N   UNL     1       5.249   4.830  -1.337  1.00  0.00    -0.344 N 
HETATM    3  O   UNL     1       3.023   4.942  -1.764  1.00  0.00    -0.266 OA
HETATM    4  H   UNL     1       6.068   5.293  -0.972  1.00  0.00     0.163 HD
ENDROOT
BRANCH   1   5
HETATM    5  C   UNL     1       4.102   6.891  -1.018  1.00  0.00     0.102 A 
HETATM    6  N   UNL     1       3.000   7.707  -1.144  1.00  0.00    -0.351 N 
HETATM    7  C   UNL     1       3.302   9.005  -0.808  1.00  0.00     0.043 A 
HETATM    8  H   UNL     1       2.102   7.387  -1.482  1.00  0.00     0.166 HD
HETATM    9  C   UNL     1       4.631   9.029  -0.394  1.00  0.00    -0.001 A 
HETATM   10  C   UNL     1       2.498  10.144  -0.843  1.00  0.00     0.031 A 
HETATM   11  C   UNL     1       5.216  10.254   0.023  1.00  0.00    -0.043 A 
HETATM   12  C   UNL     1       5.115   7.690  -0.519  1.00  0.00     0.049 A 
HETATM   13  C   UNL     1       4.416  11.427  -0.039  1.00  0.00    -0.055 A 
HETATM   14  C   UNL     1       6.647  10.338   0.489  1.00  0.00     0.049 C 
HETATM   15  C   UNL     1       4.972  12.769   0.363  1.00  0.00     0.049 C 
HETATM   16  C   UNL     1       3.079  11.352  -0.457  1.00  0.00     0.009 A 
ENDBRANCH   1   5
BRANCH   2  17
HETATM   17  C   UNL     1       5.394   3.478  -1.836  1.00  0.00     0.147 C 
HETATM   18  C   UNL     1       4.837   2.365  -0.892  1.00  0.00     0.149 C 
HETATM   19  C   UNL     1       6.015   1.921  -0.002  1.00  0.00     0.073 C 
HETATM   20  C   UNL     1       7.196   2.234  -0.868  1.00  0.00    -0.047 A 
HETATM   21  C   UNL     1       6.847   3.106  -1.905  1.00  0.00    -0.027 A 
HETATM   22  C   UNL     1       8.502   1.804  -0.708  1.00  0.00     0.008 A 
HETATM   23  C   UNL     1       7.799   3.565  -2.803  1.00  0.00     0.010 A 
HETATM   24  C   UNL     1       9.116   3.129  -2.655  1.00  0.00     0.001 A 
HETATM   25  C   UNL     1       9.465   2.254  -1.614  1.00  0.00     0.001 A 
BRANCH  18  26
HETATM   26  O   UNL     1       3.728   2.763  -0.092  1.00  0.00    -0.393 OA
HETATM   27  H   UNL     1       3.145   3.303  -0.665  1.00  0.00     0.210 HD
ENDBRANCH  18  26
ENDBRANCH   2  17
TORSDOF 3
