REMARK  8 active torsions:
REMARK  status: ('A' for Active; 'I' for Inactive)
REMARK    1  A    between atoms: C_4  and  N_5 
REMARK    2  A    between atoms: N_8  and  C_10 
REMARK    3  A    between atoms: C_10  and  C_11 
REMARK    4  A    between atoms: C_11  and  C_12 
REMARK       I    between atoms: C_12  and  N_13 
REMARK    5  A    between atoms: N_13  and  N_14 
REMARK    6  A    between atoms: N_14  and  C_15 
REMARK    7  A    between atoms: C_15  and  N_16 
REMARK    8  A    between atoms: N_16  and  C_17 
ROOT
HETATM    1  C   UNL     1       7.930   1.234   3.790  1.00  0.00     0.237 C 
HETATM    2  N   UNL     1       7.408   1.521   5.025  1.00  0.00    -0.268 N 
HETATM    3  O   UNL     1       9.036   0.715   3.667  1.00  0.00    -0.272 OA
HETATM    4  H   UNL     1       8.045   1.491   5.824  1.00  0.00     0.190 HD
ENDROOT
BRANCH   1   5
HETATM    5  C   UNL     1       7.062   1.485   2.580  1.00  0.00     0.132 C 
BRANCH   5   6
HETATM    6  C   UNL     1       6.055   0.357   2.464  1.00  0.00     0.244 C 
BRANCH   6   7
HETATM    7  N   UNL     1       5.296   0.407   1.151  1.00  0.00    -0.068 N 
HETATM    8  C   UNL     1       4.439  -0.860   0.977  1.00  0.00     0.254 C 
HETATM    9  C   UNL     1       3.668  -0.830  -0.359  1.00  0.00     0.150 C 
HETATM   10  N   UNL     1       2.889   0.412  -0.502  1.00  0.00    -0.378 N 
HETATM   11  C   UNL     1       3.697   1.641  -0.375  1.00  0.00     0.150 C 
HETATM   12  C   UNL     1       4.432   1.666   0.983  1.00  0.00     0.254 C 
HETATM   13  H   UNL     1       5.983   0.402   0.384  1.00  0.00     0.280 HD
BRANCH  10  14
HETATM   14  C   UNL     1       1.559   0.480  -0.080  1.00  0.00     0.030 A 
HETATM   15  C   UNL     1       0.956  -0.486   0.740  1.00  0.00     0.029 A 
HETATM   16  C   UNL     1      -0.384  -0.383   1.139  1.00  0.00     0.002 A 
HETATM   17  C   UNL     1      -1.164   0.684   0.710  1.00  0.00     0.000 A 
HETATM   18  C   UNL     1      -0.606   1.640  -0.127  1.00  0.00     0.002 A 
HETATM   19  C   UNL     1       0.734   1.532  -0.517  1.00  0.00     0.029 A 
ENDBRANCH  10  14
ENDBRANCH   6   7
ENDBRANCH   5   6
ENDBRANCH   1   5
BRANCH   2  20
HETATM   20  N   UNL     1       6.190   2.199   5.186  1.00  0.00    -0.274 N 
HETATM   21  H   UNL     1       5.417   1.591   5.446  1.00  0.00     0.189 HD
BRANCH  20  22
HETATM   22  C   UNL     1       6.146   3.418   5.813  1.00  0.00     0.191 C 
HETATM   23  S   UNL     1       7.490   4.266   6.343  1.00  0.00    -0.039 SA
BRANCH  22  24
HETATM   24  N   UNL     1       4.937   4.054   5.892  1.00  0.00    -0.331 N 
HETATM   25  H   UNL     1       5.067   5.028   6.157  1.00  0.00     0.168 HD
BRANCH  24  26
HETATM   26  C   UNL     1       3.661   3.739   5.359  1.00  0.00     0.056 A 
HETATM   27  C   UNL     1       3.034   2.481   5.316  1.00  0.00     0.060 A 
HETATM   28 CL   UNL     1       3.637   1.076   6.126  1.00  0.00    -0.082 Cl
HETATM   29  C   UNL     1       1.785   2.330   4.694  1.00  0.00     0.026 A 
HETATM   30  C   UNL     1       1.130   3.428   4.143  1.00  0.00     0.002 A 
HETATM   31  C   UNL     1       1.707   4.688   4.237  1.00  0.00     0.002 A 
HETATM   32  C   UNL     1       2.953   4.843   4.852  1.00  0.00     0.031 A 
ENDBRANCH  24  26
ENDBRANCH  22  24
ENDBRANCH  20  22
ENDBRANCH   2  20
TORSDOF 8
