REMARK  5 active torsions:
REMARK  status: ('A' for Active; 'I' for Inactive)
REMARK    1  A    between atoms: C_2  and  O_3 
REMARK    2  A    between atoms: O_3  and  C_4 
REMARK    3  A    between atoms: C_8  and  N_9 
REMARK       I    between atoms: N_9  and  C_10 
REMARK       I    between atoms: C_10  and  N_11 
REMARK    4  A    between atoms: N_11  and  C_12 
REMARK    5  A    between atoms: C_12  and  C_13 
ROOT
HETATM    1  N   UNL     1       8.579   1.379   1.778  1.00  0.00    -0.309 N 
HETATM    2  C   UNL     1       9.361   2.485   1.866  1.00  0.00     0.321 C 
HETATM    3  N   UNL     1       8.837   3.683   1.522  1.00  0.00    -0.337 N 
HETATM    4  O   UNL     1      10.530   2.356   2.226  1.00  0.00    -0.247 OA
HETATM    5  H   UNL     1       9.145   0.550   1.920  1.00  0.00     0.170 HD
HETATM    6  H   UNL     1       8.115   3.688   0.816  1.00  0.00     0.164 HD
ENDROOT
BRANCH   1   7
HETATM    7  C   UNL     1       7.204   1.164   1.580  1.00  0.00     0.038 A 
HETATM    8  C   UNL     1       6.218   2.147   1.633  1.00  0.00     0.056 A 
HETATM    9  C   UNL     1       4.874   1.812   1.405  1.00  0.00     0.069 A 
HETATM   10  C   UNL     1       4.487   0.488   1.142  1.00  0.00     0.090 A 
HETATM   11 CL   UNL     1       3.704   3.089   1.462  1.00  0.00    -0.081 Cl
HETATM   12  C   UNL     1       5.472  -0.499   1.133  1.00  0.00     0.041 A 
HETATM   13  C   UNL     1       6.813  -0.162   1.352  1.00  0.00     0.032 A 
BRANCH  10  14
HETATM   14  O   UNL     1       3.155   0.255   0.922  1.00  0.00    -0.350 OA
BRANCH  14  15
HETATM   15  C   UNL     1       2.757  -1.075   0.598  1.00  0.00     0.171 C 
HETATM   16  C   UNL     1       1.265  -1.067   0.315  1.00  0.00     0.034 C 
ENDBRANCH  14  15
ENDBRANCH  10  14
ENDBRANCH   1   7
BRANCH   3  17
HETATM   17  C   UNL     1       9.669   4.867   1.525  1.00  0.00     0.183 C 
BRANCH  17  18
HETATM   18  C   UNL     1       8.881   6.131   1.254  1.00  0.00     0.053 A 
HETATM   19  N   UNL     1       7.596   6.012   0.821  1.00  0.00    -0.264 NA
HETATM   20  C   UNL     1       6.903   7.150   0.593  1.00  0.00     0.118 A 
HETATM   21  C   UNL     1       7.433   8.415   0.751  1.00  0.00     0.043 A 
HETATM   22  C   UNL     1       8.753   8.510   1.168  1.00  0.00     0.037 A 
HETATM   23 CL   UNL     1       9.476  10.059   1.370  1.00  0.00    -0.084 Cl
HETATM   24  C   UNL     1       9.496   7.366   1.426  1.00  0.00     0.052 A 
ENDBRANCH  17  18
ENDBRANCH   3  17
TORSDOF 5
