REMARK  14 active torsions:
REMARK  status: ('A' for Active; 'I' for Inactive)
REMARK    1  A    between atoms: C_2  and  O_3 
REMARK    2  A    between atoms: O_3  and  C_4 
REMARK    3  A    between atoms: C_5  and  O_6 
REMARK    4  A    between atoms: C_9  and  C_10 
REMARK    5  A    between atoms: N_11  and  C_12 
REMARK    6  A    between atoms: C_12  and  C_13 
REMARK    7  A    between atoms: C_13  and  C_14 
REMARK    8  A    between atoms: C_14  and  N_15 
REMARK    9  A    between atoms: C_21  and  O_22 
REMARK   10  A    between atoms: C_23  and  C_24 
REMARK   11  A    between atoms: C_24  and  C_25 
REMARK   12  A    between atoms: C_29  and  O_30 
REMARK   13  A    between atoms: O_30  and  C_31 
REMARK   14  A    between atoms: C_31  and  C_32 
ROOT
HETATM    1  C   UNL     1       7.450  -0.589  -1.419  1.00  0.00     0.161 A 
HETATM    2  N   UNL     1       7.773  -1.999  -1.205  1.00  0.00    -0.333 N 
HETATM    3  C   UNL     1       8.610  -2.166  -0.127  1.00  0.00     0.278 A 
HETATM    4  O   UNL     1       8.992  -3.225   0.347  1.00  0.00    -0.265 OA
HETATM    5  C   UNL     1       8.987  -0.828   0.362  1.00  0.00     0.146 A 
HETATM    6  C   UNL     1       8.305   0.065  -0.366  1.00  0.00     0.059 A 
ENDROOT
BRANCH   6   7
HETATM    7  C   UNL     1       8.294   1.536  -0.225  1.00  0.00     0.193 C 
HETATM    8  O   UNL     1       7.831   2.251  -1.107  1.00  0.00    -0.287 OA
BRANCH   7   9
HETATM    9  C   UNL     1       8.824   2.168   0.995  1.00  0.00     0.015 A 
HETATM   10  C   UNL     1       8.220   1.931   2.233  1.00  0.00     0.025 A 
HETATM   11  C   UNL     1       8.699   2.579   3.381  1.00  0.00    -0.028 A 
HETATM   12  C   UNL     1       8.035   2.340   4.709  1.00  0.00     0.051 C 
HETATM   13  C   UNL     1       9.769   3.487   3.267  1.00  0.00     0.074 A 
HETATM   14  C   UNL     1      10.369   3.710   2.023  1.00  0.00     0.038 A 
HETATM   15  C   UNL     1       9.887   3.064   0.883  1.00  0.00     0.018 A 
BRANCH  13  16
HETATM   16  O   UNL     1      10.160   4.093   4.430  1.00  0.00    -0.350 OA
BRANCH  16  17
HETATM   17  C   UNL     1      10.850   5.339   4.312  1.00  0.00     0.179 C 
BRANCH  17  18
HETATM   18  C   UNL     1      10.746   6.113   5.636  1.00  0.00     0.002 C 
HETATM   19  C   UNL     1       9.289   6.454   5.957  1.00  0.00     0.011 C 
HETATM   20  C   UNL     1      11.367   5.332   6.794  1.00  0.00     0.011 C 
ENDBRANCH  17  18
ENDBRANCH  16  17
ENDBRANCH  13  16
ENDBRANCH   7   9
ENDBRANCH   6   7
BRANCH   1  21
HETATM   21  C   UNL     1       7.678  -0.191  -2.865  1.00  0.00    -0.028 A 
HETATM   22  C   UNL     1       6.562  -0.083  -3.719  1.00  0.00     0.012 A 
HETATM   23  C   UNL     1       6.718   0.262  -5.059  1.00  0.00     0.040 A 
HETATM   24  C   UNL     1       7.989   0.519  -5.549  1.00  0.00     0.099 A 
HETATM   25  C   UNL     1       9.115   0.444  -4.725  1.00  0.00     0.102 A 
HETATM   26  C   UNL     1       8.961   0.059  -3.391  1.00  0.00     0.049 A 
BRANCH  24  27
HETATM   27  O   UNL     1       8.112   0.871  -6.864  1.00  0.00    -0.358 OA
HETATM   28  H   UNL     1       9.058   1.082  -6.990  1.00  0.00     0.218 HD
ENDBRANCH  24  27
BRANCH  25  29
HETATM   29  O   UNL     1      10.305   0.742  -5.336  1.00  0.00    -0.349 OA
BRANCH  29  30
HETATM   30  C   UNL     1      11.347   1.211  -4.479  1.00  0.00     0.171 C 
HETATM   31  C   UNL     1      12.389   1.896  -5.345  1.00  0.00     0.034 C 
ENDBRANCH  29  30
ENDBRANCH  25  29
ENDBRANCH   1  21
BRANCH   5  32
HETATM   32  O   UNL     1       9.858  -0.621   1.386  1.00  0.00    -0.355 OA
HETATM   33  H   UNL     1      10.099  -1.494   1.751  1.00  0.00     0.218 HD
ENDBRANCH   5  32
BRANCH   2  34
HETATM   34  C   UNL     1       7.029  -3.083  -1.821  1.00  0.00     0.129 C 
BRANCH  34  35
HETATM   35  C   UNL     1       7.801  -3.834  -2.910  1.00  0.00     0.048 C 
BRANCH  35  36
HETATM   36  C   UNL     1       9.133  -4.475  -2.515  1.00  0.00     0.235 C 
BRANCH  36  37
HETATM   37  N   UNL     1       9.063  -5.358  -1.292  1.00  0.00    -0.079 N 
HETATM   38  H   UNL     1       8.781  -4.741  -0.503  1.00  0.00     0.278 HD
HETATM   39  C   UNL     1       8.100  -6.501  -1.388  1.00  0.00     0.269 C 
HETATM   40  C   UNL     1      10.431  -5.841  -0.885  1.00  0.00     0.269 C 
ENDBRANCH  36  37
ENDBRANCH  35  36
ENDBRANCH  34  35
ENDBRANCH   2  34
TORSDOF 14
