REMARK  3 active torsions:
REMARK  status: ('A' for Active; 'I' for Inactive)
REMARK    1  A    between atoms: C_6  and  C_7 
REMARK       I    between atoms: C_7  and  N_8 
REMARK    2  A    between atoms: N_8  and  C_9 
REMARK    3  A    between atoms: C_12  and  C_13 
REMARK       I    between atoms: C_13  and  N_14 
ROOT
HETATM    1  C   UNL     1      -3.530  -0.074  -0.212  1.00  0.00     0.280 C 
HETATM    2  N   UNL     1      -4.276   1.091  -0.249  1.00  0.00    -0.321 N 
HETATM    3  O   UNL     1      -2.312  -0.143  -0.338  1.00  0.00    -0.265 OA
HETATM    4  H   UNL     1      -5.269   0.962  -0.085  1.00  0.00     0.169 HD
ENDROOT
BRANCH   2   5
HETATM    5  C   UNL     1      -3.837   2.399  -0.524  1.00  0.00     0.035 A 
HETATM    6  C   UNL     1      -2.517   2.730  -0.839  1.00  0.00     0.030 A 
HETATM    7  C   UNL     1      -2.164   4.052  -1.143  1.00  0.00     0.019 A 
HETATM    8  C   UNL     1      -3.133   5.059  -1.138  1.00  0.00     0.032 A 
HETATM    9  C   UNL     1      -4.450   4.737  -0.795  1.00  0.00     0.019 A 
HETATM   10  C   UNL     1      -4.799   3.416  -0.496  1.00  0.00     0.030 A 
BRANCH   8  11
HETATM   11  C   UNL     1      -2.815   6.473  -1.471  1.00  0.00     0.249 C 
HETATM   12  N   UNL     1      -1.695   6.711  -2.218  1.00  0.00    -0.366 N 
HETATM   13  H   UNL     1      -1.202   5.984  -2.715  1.00  0.00     0.159 HD
HETATM   14  H   UNL     1      -1.555   7.666  -2.523  1.00  0.00     0.159 HD
HETATM   15  O   UNL     1      -3.543   7.394  -1.125  1.00  0.00    -0.268 OA
ENDBRANCH   8  11
ENDBRANCH   2   5
BRANCH   1  16
HETATM   16  C   UNL     1      -4.348  -1.257  -0.017  1.00  0.00     0.144 A 
HETATM   17  O   UNL     1      -5.711  -1.125   0.084  1.00  0.00    -0.304 OA
HETATM   18  C   UNL     1      -6.226  -2.380   0.211  1.00  0.00     0.086 A 
HETATM   19  C   UNL     1      -5.208  -3.325   0.206  1.00  0.00     0.001 A 
HETATM   20  C   UNL     1      -7.579  -2.690   0.322  1.00  0.00     0.038 A 
HETATM   21  C   UNL     1      -5.550  -4.684   0.319  1.00  0.00     0.014 A 
HETATM   22  C   UNL     1      -4.002  -2.592   0.069  1.00  0.00     0.057 A 
HETATM   23  C   UNL     1      -6.905  -5.029   0.427  1.00  0.00     0.001 A 
HETATM   24  C   UNL     1      -7.900  -4.048   0.429  1.00  0.00     0.003 A 
ENDBRANCH   1  16
TORSDOF 3
