REMARK  7 active torsions:
REMARK  status: ('A' for Active; 'I' for Inactive)
REMARK    1  A    between atoms: N_6  and  C_7 
REMARK    2  A    between atoms: C_11  and  N_12 
REMARK    3  A    between atoms: N_12  and  C_13 
REMARK    4  A    between atoms: C_13  and  N_14 
REMARK       I    between atoms: N_14  and  C_15 
REMARK    5  A    between atoms: C_15  and  C_16 
REMARK    6  A    between atoms: C_17  and  C_18 
REMARK    7  A    between atoms: C_20  and  C_21 
ROOT
HETATM    1  C   UNL     1       7.958   1.800   7.350  1.00  0.00     0.179 C 
HETATM    2  S   UNL     1       8.248   2.168   8.953  1.00  0.00    -0.040 SA
ENDROOT
BRANCH   1   3
HETATM    3  N   UNL     1       8.080   0.476   7.019  1.00  0.00    -0.333 N 
HETATM    4  H   UNL     1       8.189  -0.097   7.854  1.00  0.00     0.168 HD
BRANCH   3   5
HETATM    5  C   UNL     1       8.214  -0.214   5.798  1.00  0.00     0.036 A 
HETATM    6  C   UNL     1       8.222  -1.609   5.876  1.00  0.00     0.055 A 
HETATM    7  C   UNL     1       8.437  -2.394   4.737  1.00  0.00     0.062 A 
HETATM    8  C   UNL     1       8.640  -1.814   3.465  1.00  0.00     0.052 A 
HETATM    9 CL   UNL     1       8.573  -4.108   4.991  1.00  0.00    -0.082 Cl
HETATM   10  C   UNL     1       8.618  -0.412   3.408  1.00  0.00     0.033 A 
HETATM   11  C   UNL     1       8.420   0.379   4.554  1.00  0.00     0.032 A 
BRANCH   8  12
HETATM   12  N   UNL     1       8.920  -2.584   2.338  1.00  0.00    -0.376 N 
HETATM   13  C   UNL     1       7.875  -3.498   1.846  1.00  0.00     0.150 C 
HETATM   14  C   UNL     1       8.553  -4.743   1.235  1.00  0.00     0.254 C 
HETATM   15  N   UNL     1       9.552  -4.332   0.143  1.00  0.00    -0.072 N 
HETATM   16  C   UNL     1      10.248  -5.526  -0.441  1.00  0.00     0.269 C 
HETATM   17  H   UNL     1       9.011  -3.883  -0.606  1.00  0.00     0.279 HD
HETATM   18  C   UNL     1      10.558  -3.296   0.658  1.00  0.00     0.254 C 
HETATM   19  C   UNL     1       9.840  -2.090   1.307  1.00  0.00     0.150 C 
ENDBRANCH   8  12
ENDBRANCH   3   5
ENDBRANCH   1   3
BRANCH   1  20
HETATM   20  N   UNL     1       7.550   2.659   6.347  1.00  0.00    -0.300 N 
HETATM   21  C   UNL     1       7.358   4.026   6.212  1.00  0.00     0.247 C 
HETATM   22  O   UNL     1       6.513   4.426   5.414  1.00  0.00    -0.268 OA
HETATM   23  H   UNL     1       6.944   2.199   5.681  1.00  0.00     0.171 HD
BRANCH  21  24
HETATM   24  C   UNL     1       8.155   4.958   7.041  1.00  0.00     0.077 C 
HETATM   25  C   UNL     1       8.702   6.102   6.603  1.00  0.00     0.042 C 
BRANCH  25  26
HETATM   26  C   UNL     1       8.693   6.523   5.250  1.00  0.00     0.076 A 
HETATM   27  O   UNL     1       9.087   5.733   4.192  1.00  0.00    -0.310 OA
HETATM   28  C   UNL     1       8.966   6.459   3.044  1.00  0.00     0.086 A 
HETATM   29  C   UNL     1       8.498   7.720   3.337  1.00  0.00     0.041 A 
HETATM   30  C   UNL     1       8.351   7.769   4.742  1.00  0.00     0.040 A 
BRANCH  28  31
HETATM   31  C   UNL     1       9.336   5.782   1.811  1.00  0.00    -0.002 A 
HETATM   32  C   UNL     1       8.651   6.053   0.618  1.00  0.00     0.016 A 
HETATM   33  C   UNL     1       9.015   5.418  -0.574  1.00  0.00     0.024 A 
HETATM   34  C   UNL     1      10.076   4.515  -0.579  1.00  0.00     0.034 A 
HETATM   35 CL   UNL     1      10.521   3.723  -2.040  1.00  0.00    -0.084 Cl
HETATM   36  C   UNL     1      10.775   4.242   0.594  1.00  0.00     0.024 A 
HETATM   37  C   UNL     1      10.401   4.869   1.786  1.00  0.00     0.016 A 
ENDBRANCH  28  31
ENDBRANCH  25  26
ENDBRANCH  21  24
ENDBRANCH   1  20
TORSDOF 7
