REMARK  2 active torsions:
REMARK  status: ('A' for Active; 'I' for Inactive)
REMARK    1  A    between atoms: O_2  and  C_3 
REMARK    2  A    between atoms: C_4  and  N_5 
REMARK       I    between atoms: N_5  and  C_6 
REMARK       I    between atoms: C_6  and  N_7 
ROOT
HETATM    1  N   UNL     1       0.629   2.980   0.211  1.00  0.00    -0.306 N 
HETATM    2  C   UNL     1       1.202   3.800   1.152  1.00  0.00     0.323 C 
HETATM    3  N   UNL     1       1.598   5.034   0.639  1.00  0.00    -0.328 N 
HETATM    4  C   UNL     1       2.003   6.036   1.630  1.00  0.00     0.185 C 
HETATM    5  C   UNL     1       2.051   7.367   0.967  1.00  0.00     0.035 A 
HETATM    6  C   UNL     1       2.011   7.623  -0.388  1.00  0.00    -0.020 A 
HETATM    7  C   UNL     1       1.861   6.520  -1.376  1.00  0.00     0.061 C 
HETATM    8  C   UNL     1       2.191   5.169  -0.713  1.00  0.00     0.132 C 
HETATM    9  N   UNL     1       2.157   8.563   1.621  1.00  0.00    -0.357 N 
HETATM   10  H   UNL     1       2.198   8.687   2.623  1.00  0.00     0.166 HD
HETATM   11  C   UNL     1       2.197   9.594   0.705  1.00  0.00     0.043 A 
HETATM   12  C   UNL     1       2.111   9.027  -0.570  1.00  0.00    -0.001 A 
HETATM   13  C   UNL     1       2.300  10.976   0.908  1.00  0.00     0.030 A 
HETATM   14  C   UNL     1       2.320  11.798  -0.222  1.00  0.00     0.002 A 
HETATM   15  C   UNL     1       2.238  11.260  -1.504  1.00  0.00     0.001 A 
HETATM   16  C   UNL     1       2.131   9.877  -1.692  1.00  0.00     0.014 A 
HETATM   17  O   UNL     1       1.307   3.525   2.344  1.00  0.00    -0.247 OA
HETATM   18  H   UNL     1       0.199   3.454  -0.572  1.00  0.00     0.171 HD
ENDROOT
BRANCH   1  19
HETATM   19  C   UNL     1       0.235   1.637   0.372  1.00  0.00     0.071 A 
HETATM   20  C   UNL     1      -0.699   1.126  -0.545  1.00  0.00     0.095 A 
HETATM   21  C   UNL     1      -1.098  -0.210  -0.501  1.00  0.00     0.041 A 
HETATM   22  C   UNL     1      -0.582  -1.043   0.490  1.00  0.00     0.026 A 
HETATM   23  C   UNL     1       0.331  -0.536   1.417  1.00  0.00     0.036 A 
HETATM   24  C   UNL     1       0.745   0.797   1.363  1.00  0.00     0.056 A 
HETATM   25 CL   UNL     1       0.969  -1.579   2.630  1.00  0.00    -0.084 Cl
BRANCH  20  26
HETATM   26  O   UNL     1      -1.196   1.961  -1.518  1.00  0.00    -0.354 OA
HETATM   27  C   UNL     1      -2.538   2.339  -1.199  1.00  0.00     0.210 C 
ENDBRANCH  20  26
ENDBRANCH   1  19
TORSDOF 2
