REMARK  6 active torsions:
REMARK  status: ('A' for Active; 'I' for Inactive)
REMARK    1  A    between atoms: C_4  and  C_5 
REMARK    2  A    between atoms: C_7  and  N_8 
REMARK    3  A    between atoms: N_11  and  C_13 
REMARK    4  A    between atoms: C_13  and  C_14 
REMARK       I    between atoms: C_14  and  N_15 
REMARK    5  A    between atoms: N_15  and  N_16 
REMARK       I    between atoms: N_16  and  C_17 
REMARK    6  A    between atoms: C_17  and  C_18 
ROOT
HETATM    1  N   UNL     1       6.295   1.564  -0.800  1.00  0.00    -0.357 N 
HETATM    2  C   UNL     1       7.652   1.337  -0.280  1.00  0.00     0.152 C 
HETATM    3  C   UNL     1       7.822   2.034   1.088  1.00  0.00     0.255 C 
HETATM    4  N   UNL     1       7.480   3.524   0.959  1.00  0.00    -0.060 N 
HETATM    5  H   UNL     1       8.155   3.904   0.275  1.00  0.00     0.280 HD
HETATM    6  C   UNL     1       6.071   3.722   0.402  1.00  0.00     0.255 C 
HETATM    7  C   UNL     1       5.935   2.986  -0.948  1.00  0.00     0.152 C 
ENDROOT
BRANCH   4   8
HETATM    8  C   UNL     1       7.744   4.304   2.243  1.00  0.00     0.338 C 
BRANCH   8   9
HETATM    9  C   UNL     1       9.248   4.493   2.464  1.00  0.00     0.262 C 
HETATM   10  N   UNL     1       9.604   4.897   3.732  1.00  0.00    -0.266 N 
HETATM   11  H   UNL     1       8.953   4.786   4.515  1.00  0.00     0.190 HD
HETATM   12  O   UNL     1      10.042   4.295   1.542  1.00  0.00    -0.270 OA
BRANCH  10  13
HETATM   13  N   UNL     1      10.941   4.683   4.124  1.00  0.00    -0.263 N 
HETATM   14  C   UNL     1      11.126   4.009   5.318  1.00  0.00     0.270 C 
HETATM   15  O   UNL     1      10.158   3.605   5.962  1.00  0.00    -0.266 OA
HETATM   16  H   UNL     1      11.681   5.125   3.583  1.00  0.00     0.190 HD
BRANCH  14  17
HETATM   17  C   UNL     1      12.518   3.816   5.803  1.00  0.00     0.033 A 
HETATM   18  C   UNL     1      13.627   3.838   4.947  1.00  0.00     0.018 A 
HETATM   19  C   UNL     1      14.913   3.637   5.463  1.00  0.00     0.020 A 
HETATM   20  C   UNL     1      15.089   3.412   6.829  1.00  0.00     0.011 A 
HETATM   21 BR   UNL     1      16.826   3.137   7.518  1.00  0.00    -0.051 Br
HETATM   22  C   UNL     1      13.992   3.380   7.686  1.00  0.00     0.020 A 
HETATM   23  C   UNL     1      12.707   3.578   7.173  1.00  0.00     0.018 A 
ENDBRANCH  14  17
ENDBRANCH  10  13
ENDBRANCH   8   9
ENDBRANCH   4   8
BRANCH   1  24
HETATM   24  C   UNL     1       5.278   0.696  -0.498  1.00  0.00     0.169 A 
HETATM   25  N   UNL     1       4.027   1.084  -0.369  1.00  0.00    -0.223 NA
HETATM   26  C   UNL     1       3.179   0.002  -0.156  1.00  0.00     0.076 A 
HETATM   27  C   UNL     1       3.821  -1.216  -0.070  1.00  0.00     0.085 A 
HETATM   28  S   UNL     1       5.502  -1.006  -0.278  1.00  0.00    -0.062 SA
BRANCH  26  29
HETATM   29  C   UNL     1       1.731   0.170  -0.083  1.00  0.00    -0.007 A 
HETATM   30  C   UNL     1       1.128   1.255  -0.736  1.00  0.00     0.014 A 
HETATM   31  C   UNL     1      -0.260   1.421  -0.714  1.00  0.00     0.001 A 
HETATM   32  C   UNL     1      -1.061   0.508  -0.033  1.00  0.00     0.000 A 
HETATM   33  C   UNL     1      -0.476  -0.569   0.630  1.00  0.00     0.001 A 
HETATM   34  C   UNL     1       0.912  -0.737   0.608  1.00  0.00     0.014 A 
ENDBRANCH  26  29
ENDBRANCH   1  24
TORSDOF 6
