REMARK  10 active torsions:
REMARK  status: ('A' for Active; 'I' for Inactive)
REMARK    1  A    between atoms: C_2  and  O_3 
REMARK    2  A    between atoms: O_3  and  C_4 
REMARK    3  A    between atoms: C_4  and  C_5 
REMARK    4  A    between atoms: C_6  and  N_7 
REMARK       I    between atoms: N_7  and  C_8 
REMARK    5  A    between atoms: C_14  and  O_15 
REMARK    6  A    between atoms: O_15  and  C_16 
REMARK    7  A    between atoms: C_16  and  C_17 
REMARK    8  A    between atoms: C_17  and  O_18 
REMARK    9  A    between atoms: C_17  and  C_19 
REMARK   10  A    between atoms: C_19  and  N_20 
ROOT
HETATM    1  C   UNL     1       5.224   0.167   0.484  1.00  0.00     0.085 A 
HETATM    2  C   UNL     1       6.344   0.433  -0.289  1.00  0.00     0.094 A 
HETATM    3  S   UNL     1       7.158  -0.977  -0.752  1.00  0.00    -0.068 SA
HETATM    4  C   UNL     1       6.071  -2.022   0.083  1.00  0.00     0.053 A 
HETATM    5  C   UNL     1       5.048  -1.272   0.674  1.00  0.00     0.003 A 
HETATM    6  C   UNL     1       6.163  -3.444   0.186  1.00  0.00     0.104 A 
HETATM    7  C   UNL     1       5.168  -4.091   0.948  1.00  0.00     0.045 A 
HETATM    8 BR   UNL     1       5.164  -5.940   1.408  1.00  0.00    -0.048 Br
HETATM    9  C   UNL     1       4.112  -3.371   1.502  1.00  0.00     0.023 A 
HETATM   10  C   UNL     1       4.044  -1.986   1.370  1.00  0.00     0.015 A 
ENDROOT
BRANCH   6  11
HETATM   11  O   UNL     1       7.267  -4.024  -0.392  1.00  0.00    -0.346 OA
BRANCH  11  12
HETATM   12  C   UNL     1       7.095  -5.288  -1.030  1.00  0.00     0.209 C 
BRANCH  12  13
HETATM   13  C   UNL     1       8.163  -5.455  -2.120  1.00  0.00     0.168 C 
BRANCH  13  14
HETATM   14  O   UNL     1       9.487  -5.331  -1.564  1.00  0.00    -0.392 OA
HETATM   15  H   UNL     1       9.473  -4.511  -1.021  1.00  0.00     0.210 HD
ENDBRANCH  13  14
BRANCH  13  16
HETATM   16  C   UNL     1       8.064  -6.862  -2.738  1.00  0.00     0.268 C 
BRANCH  16  17
HETATM   17  N   UNL     1       9.394  -7.221  -3.395  1.00  0.00    -0.069 N 
HETATM   18  H   UNL     1      10.087  -6.739  -2.788  1.00  0.00     0.280 HD
HETATM   19  C   UNL     1       9.674  -8.701  -3.333  1.00  0.00     0.235 C 
HETATM   20  C   UNL     1      11.058  -8.998  -3.889  1.00  0.00     0.028 C 
HETATM   21  C   UNL     1      11.227  -8.444  -5.298  1.00  0.00     0.003 C 
HETATM   22  C   UNL     1      10.920  -6.952  -5.331  1.00  0.00     0.028 C 
HETATM   23  C   UNL     1       9.533  -6.650  -4.781  1.00  0.00     0.235 C 
ENDBRANCH  16  17
ENDBRANCH  13  16
ENDBRANCH  12  13
ENDBRANCH  11  12
ENDBRANCH   6  11
BRANCH   2  24
HETATM   24  N   UNL     1       6.818   1.685  -0.663  1.00  0.00    -0.321 N 
HETATM   25  C   UNL     1       7.916   1.974  -1.454  1.00  0.00     0.218 C 
HETATM   26  C   UNL     1       8.148   3.461  -1.590  1.00  0.00     0.117 C 
HETATM   27  O   UNL     1       8.674   1.181  -2.000  1.00  0.00    -0.274 OA
HETATM   28  H   UNL     1       6.278   2.470  -0.308  1.00  0.00     0.169 HD
ENDBRANCH   2  24
BRANCH   1  29
HETATM   29  C   UNL     1       4.335   1.186   1.064  1.00  0.00     0.297 C 
HETATM   30  O   UNL     1       3.370   0.915   1.767  1.00  0.00    -0.259 OA
BRANCH  29  31
HETATM   31  O   UNL     1       4.701   2.471   0.757  1.00  0.00    -0.318 OA
BRANCH  31  32
HETATM   32  C   UNL     1       3.908   3.505   1.367  1.00  0.00     0.174 C 
HETATM   33  C   UNL     1       2.653   3.770   0.556  1.00  0.00     0.034 C 
ENDBRANCH  31  32
ENDBRANCH  29  31
ENDBRANCH   1  29
TORSDOF 10
