REMARK  3 active torsions:
REMARK  status: ('A' for Active; 'I' for Inactive)
REMARK    1  A    between atoms: C_6  and  N_7 
REMARK    2  A    between atoms: N_7  and  C_8 
REMARK    3  A    between atoms: C_8  and  C_9 
ROOT
HETATM    1  C   UNL     1       2.359   0.873   3.680  1.00  0.00     0.024 A 
HETATM    2  C   UNL     1       1.888   2.184   3.593  1.00  0.00     0.046 A 
HETATM    3  C   UNL     1       1.721   2.975   4.778  1.00  0.00     0.099 C 
HETATM    4  N   UNL     1       1.581   3.659   5.703  1.00  0.00    -0.191 NA
HETATM    5  C   UNL     1       1.591   2.748   2.340  1.00  0.00     0.047 A 
HETATM    6  C   UNL     1       1.729   2.006   1.159  1.00  0.00     0.032 A 
HETATM    7  C   UNL     1       2.244   0.693   1.274  1.00  0.00     0.055 A 
HETATM    8 CL   UNL     1       2.509  -0.264  -0.143  1.00  0.00    -0.082 Cl
HETATM    9  C   UNL     1       2.543   0.128   2.517  1.00  0.00     0.027 A 
ENDROOT
BRANCH   6  10
HETATM   10  N   UNL     1       1.527   2.567  -0.122  1.00  0.00    -0.286 NA
HETATM   11  H   UNL     1       1.354   1.799  -0.784  1.00  0.00     0.128 HD
BRANCH  10  12
HETATM   12  C   UNL     1       0.578   3.673  -0.314  1.00  0.00     0.149 C 
BRANCH  12  13
HETATM   13  C   UNL     1       1.375   4.964  -0.406  1.00  0.00     0.029 A 
HETATM   14  N   UNL     1       2.750   4.811  -0.450  1.00  0.00    -0.338 N 
HETATM   15  H   UNL     1       3.132   3.864  -0.405  1.00  0.00     0.168 HD
HETATM   16  C   UNL     1       3.539   5.850  -0.529  1.00  0.00     0.158 A 
HETATM   17  N   UNL     1       3.060   7.075  -0.570  1.00  0.00    -0.269 N 
HETATM   18  S   UNL     1       5.271   5.761  -0.584  1.00  0.00    -0.064 SA
HETATM   19  C   UNL     1       1.682   7.374  -0.531  1.00  0.00     0.255 A 
HETATM   20  C   UNL     1       4.051   8.033  -0.654  1.00  0.00     0.109 A 
HETATM   21  O   UNL     1       1.273   8.519  -0.574  1.00  0.00    -0.268 OA
HETATM   22  C   UNL     1       0.820   6.183  -0.435  1.00  0.00     0.101 A 
HETATM   23  C   UNL     1       5.286   7.510  -0.673  1.00  0.00     0.071 A 
ENDBRANCH  12  13
ENDBRANCH  10  12
ENDBRANCH   6  10
TORSDOF 3
