REMARK  9 active torsions:
REMARK  status: ('A' for Active; 'I' for Inactive)
REMARK    1  A    between atoms: C_3  and  N_4 
REMARK       I    between atoms: N_4  and  C_5 
REMARK    2  A    between atoms: C_5  and  C_6 
REMARK    3  A    between atoms: C_6  and  O_7 
REMARK    4  A    between atoms: O_7  and  C_8 
REMARK    5  A    between atoms: C_8  and  C_9 
REMARK    6  A    between atoms: C_9  and  N_10 
REMARK    7  A    between atoms: C_9  and  C_18 
REMARK       I    between atoms: N_10  and  C_11 
REMARK    8  A    between atoms: C_11  and  C_12 
REMARK    9  A    between atoms: C_18  and  C_19 
ROOT
HETATM    1  C   UNL     1      -0.628   1.425   0.014  1.00  0.00     0.189 C 
ENDROOT
BRANCH   1   2
HETATM    2  C   UNL     1       0.689   0.808   0.512  1.00  0.00     0.282 C 
HETATM    3  O   UNL     1       1.079  -0.326   0.246  1.00  0.00    -0.263 OA
BRANCH   2   4
HETATM    4  O   UNL     1       1.388   1.693   1.270  1.00  0.00    -0.311 OA
BRANCH   4   5
HETATM    5  C   UNL     1       2.653   1.250   1.756  1.00  0.00     0.281 C 
BRANCH   5   6
HETATM    6  C   UNL     1       3.814   1.180   0.746  1.00  0.00     0.246 C 
HETATM    7  N   UNL     1       3.651   0.180  -0.197  1.00  0.00    -0.324 N 
HETATM    8  H   UNL     1       2.895  -0.474   0.000  1.00  0.00     0.169 HD
HETATM    9  O   UNL     1       4.808   1.888   0.885  1.00  0.00    -0.271 OA
BRANCH   7  10
HETATM   10  C   UNL     1       4.575  -0.222  -1.188  1.00  0.00     0.046 A 
HETATM   11  C   UNL     1       4.698  -1.615  -1.426  1.00  0.00    -0.035 A 
HETATM   12  C   UNL     1       3.926  -2.637  -0.633  1.00  0.00     0.050 C 
HETATM   13  C   UNL     1       5.591  -2.079  -2.405  1.00  0.00     0.009 A 
HETATM   14  C   UNL     1       6.358  -1.186  -3.143  1.00  0.00     0.001 A 
HETATM   15  C   UNL     1       6.220   0.181  -2.929  1.00  0.00     0.009 A 
HETATM   16  C   UNL     1       5.313   0.685  -1.977  1.00  0.00    -0.035 A 
HETATM   17  C   UNL     1       5.158   2.180  -1.918  1.00  0.00     0.050 C 
ENDBRANCH   7  10
ENDBRANCH   5   6
ENDBRANCH   4   5
ENDBRANCH   2   4
ENDBRANCH   1   2
BRANCH   1  18
HETATM   18  N   UNL     1      -0.486   1.898  -1.360  1.00  0.00    -0.341 N 
HETATM   19  C   UNL     1       0.148   3.095  -1.630  1.00  0.00     0.276 C 
HETATM   20  O   UNL     1       0.809   3.686  -0.781  1.00  0.00    -0.265 OA
HETATM   21  H   UNL     1      -1.136   1.574  -2.070  1.00  0.00     0.163 HD
BRANCH  19  22
HETATM   22  C   UNL     1      -0.068   3.603  -2.967  1.00  0.00     0.142 A 
HETATM   23  O   UNL     1      -0.903   2.930  -3.822  1.00  0.00    -0.317 OA
HETATM   24  C   UNL     1      -0.946   3.642  -4.979  1.00  0.00     0.143 A 
HETATM   25  C   UNL     1      -0.152   4.760  -4.890  1.00  0.00     0.027 A 
HETATM   26  C   UNL     1       0.415   4.737  -3.594  1.00  0.00     0.045 A 
ENDBRANCH  19  22
ENDBRANCH   1  18
BRANCH   1  27
HETATM   27  C   UNL     1      -1.714   0.338   0.140  1.00  0.00     0.074 C 
BRANCH  27  28
HETATM   28  C   UNL     1      -3.104   0.727  -0.317  1.00  0.00    -0.056 A 
HETATM   29  C   UNL     1      -3.857  -0.185  -1.073  1.00  0.00     0.007 A 
HETATM   30  C   UNL     1      -5.155   0.125  -1.481  1.00  0.00     0.001 A 
HETATM   31  C   UNL     1      -5.720   1.348  -1.132  1.00  0.00     0.000 A 
HETATM   32  C   UNL     1      -4.989   2.257  -0.370  1.00  0.00     0.001 A 
HETATM   33  C   UNL     1      -3.691   1.947   0.042  1.00  0.00     0.007 A 
ENDBRANCH  27  28
ENDBRANCH   1  27
TORSDOF 9
