REMARK  9 active torsions:
REMARK  status: ('A' for Active; 'I' for Inactive)
REMARK    1  A    between atoms: C_2  and  O_3 
REMARK    2  A    between atoms: O_3  and  C_4 
REMARK    3  A    between atoms: C_7  and  N_8 
REMARK    4  A    between atoms: C_12  and  N_13 
REMARK       I    between atoms: N_13  and  C_14 
REMARK       I    between atoms: C_14  and  N_15 
REMARK    5  A    between atoms: N_15  and  C_16 
REMARK    6  A    between atoms: C_16  and  C_17 
REMARK    7  A    between atoms: C_17  and  C_18 
REMARK    8  A    between atoms: C_21  and  S_22 
REMARK    9  A    between atoms: S_22  and  N_23 
ROOT
HETATM    1  N   UNL     1      10.519  -4.381  -3.518  1.00  0.00    -0.336 N 
HETATM    2  C   UNL     1      10.376  -5.730  -3.312  1.00  0.00     0.316 C 
HETATM    3  N   UNL     1      10.747  -6.435  -4.423  1.00  0.00    -0.343 N 
HETATM    4  O   UNL     1       9.944  -6.227  -2.283  1.00  0.00    -0.248 OA
HETATM    5  H   UNL     1      11.334  -4.154  -4.073  1.00  0.00     0.164 HD
HETATM    6  H   UNL     1      10.672  -5.937  -5.299  1.00  0.00     0.164 HD
ENDROOT
BRANCH   1   7
HETATM    7  C   UNL     1      10.152  -3.441  -2.466  1.00  0.00     0.113 C 
HETATM    8  C   UNL     1      10.305  -1.999  -2.920  1.00  0.00     0.130 C 
HETATM    9  C   UNL     1       9.210  -1.259  -2.196  1.00  0.00     0.226 C 
HETATM   10  N   UNL     1       8.270  -2.189  -1.743  1.00  0.00    -0.316 N 
HETATM   11  O   UNL     1       9.190  -0.039  -2.123  1.00  0.00    -0.273 OA
HETATM   12  C   UNL     1       8.685  -3.539  -2.049  1.00  0.00     0.157 C 
BRANCH  10  13
HETATM   13  C   UNL     1       6.968  -1.905  -1.240  1.00  0.00     0.037 A 
HETATM   14  C   UNL     1       6.498  -0.595  -1.085  1.00  0.00     0.032 A 
HETATM   15  C   UNL     1       5.179  -0.334  -0.682  1.00  0.00     0.039 A 
HETATM   16  C   UNL     1       4.305  -1.385  -0.425  1.00  0.00     0.068 A 
HETATM   17  C   UNL     1       4.773  -2.691  -0.508  1.00  0.00     0.039 A 
HETATM   18  C   UNL     1       6.086  -2.949  -0.918  1.00  0.00     0.032 A 
BRANCH  16  19
HETATM   19  O   UNL     1       2.992  -1.251  -0.072  1.00  0.00    -0.352 OA
BRANCH  19  20
HETATM   20  C   UNL     1       2.339  -0.086  -0.580  1.00  0.00     0.171 C 
HETATM   21  C   UNL     1       0.843  -0.339  -0.546  1.00  0.00     0.034 C 
ENDBRANCH  19  20
ENDBRANCH  16  19
ENDBRANCH  10  13
ENDBRANCH   1   7
BRANCH   3  22
HETATM   22  C   UNL     1      10.641  -7.881  -4.451  1.00  0.00     0.129 C 
BRANCH  22  23
HETATM   23  C   UNL     1      10.878  -8.475  -5.844  1.00  0.00     0.058 C 
BRANCH  23  24
HETATM   24  C   UNL     1      12.167  -8.037  -6.505  1.00  0.00    -0.057 A 
HETATM   25  C   UNL     1      13.405  -8.239  -5.877  1.00  0.00     0.009 A 
HETATM   26  C   UNL     1      14.586  -7.811  -6.485  1.00  0.00     0.025 A 
HETATM   27  C   UNL     1      14.534  -7.195  -7.738  1.00  0.00     0.074 A 
HETATM   28  C   UNL     1      13.311  -6.992  -8.380  1.00  0.00     0.025 A 
HETATM   29  C   UNL     1      12.133  -7.420  -7.766  1.00  0.00     0.009 A 
BRANCH  27  30
HETATM   30  S   UNL     1      16.025  -6.606  -8.483  1.00  0.00     0.239 S 
HETATM   31  O   UNL     1      15.695  -5.639  -9.505  1.00  0.00    -0.206 OA
HETATM   32  O   UNL     1      16.996  -6.337  -7.449  1.00  0.00    -0.206 OA
BRANCH  30  33
HETATM   33  N   UNL     1      16.572  -7.968  -9.295  1.00  0.00    -0.225 NA
HETATM   34  H   UNL     1      16.589  -7.789 -10.300  1.00  0.00     0.136 HD
HETATM   35  H   UNL     1      17.471  -8.261  -8.913  1.00  0.00     0.136 HD
ENDBRANCH  30  33
ENDBRANCH  27  30
ENDBRANCH  23  24
ENDBRANCH  22  23
ENDBRANCH   3  22
TORSDOF 9
