REMARK  9 active torsions:
REMARK  status: ('A' for Active; 'I' for Inactive)
REMARK    1  A    between atoms: C_6  and  C_7 
REMARK    2  A    between atoms: C_7  and  C_8 
REMARK    3  A    between atoms: C_11  and  N_12 
REMARK       I    between atoms: N_12  and  C_13 
REMARK       I    between atoms: C_13  and  N_14 
REMARK    4  A    between atoms: N_14  and  C_15 
REMARK    5  A    between atoms: C_15  and  C_16 
REMARK    6  A    between atoms: C_16  and  C_17 
REMARK    7  A    between atoms: C_16  and  C_19 
REMARK    8  A    between atoms: C_17  and  O_18 
REMARK    9  A    between atoms: C_19  and  C_20 
ROOT
HETATM    1  N   UNL     1      12.048  -4.747  -3.931  1.00  0.00    -0.309 N 
HETATM    2  C   UNL     1      11.156  -5.451  -3.190  1.00  0.00     0.320 C 
HETATM    3  N   UNL     1      10.546  -4.840  -2.140  1.00  0.00    -0.342 N 
HETATM    4  O   UNL     1      10.910  -6.611  -3.518  1.00  0.00    -0.247 OA
HETATM    5  H   UNL     1      12.298  -5.282  -4.754  1.00  0.00     0.170 HD
HETATM    6  H   UNL     1      10.372  -3.849  -2.277  1.00  0.00     0.164 HD
ENDROOT
BRANCH   1   7
HETATM    7  C   UNL     1      12.711  -3.519  -3.772  1.00  0.00     0.036 A 
HETATM    8  C   UNL     1      12.712  -2.749  -2.610  1.00  0.00     0.030 A 
HETATM    9  C   UNL     1      13.431  -1.547  -2.554  1.00  0.00     0.010 A 
HETATM   10  C   UNL     1      14.178  -1.105  -3.655  1.00  0.00    -0.051 A 
HETATM   11  C   UNL     1      14.196  -1.888  -4.813  1.00  0.00     0.010 A 
HETATM   12  C   UNL     1      13.470  -3.080  -4.867  1.00  0.00     0.030 A 
BRANCH  10  13
HETATM   13  C   UNL     1      15.011   0.154  -3.567  1.00  0.00     0.118 C 
BRANCH  13  14
HETATM   14  C   UNL     1      16.386  -0.052  -3.024  1.00  0.00     0.126 A 
HETATM   15  N   UNL     1      16.860  -1.247  -2.555  1.00  0.00    -0.263 N 
HETATM   16  N   UNL     1      18.124  -1.139  -2.120  1.00  0.00    -0.158 NA
HETATM   17  H   UNL     1      16.388  -2.144  -2.505  1.00  0.00     0.190 HD
HETATM   18  C   UNL     1      18.377   0.154  -2.347  1.00  0.00     0.144 A 
HETATM   19  C   UNL     1      19.676   0.780  -2.034  1.00  0.00     0.095 C 
HETATM   20  N   UNL     1      17.337   0.852  -2.903  1.00  0.00    -0.217 NA
ENDBRANCH  13  14
ENDBRANCH  10  13
ENDBRANCH   1   7
BRANCH   3  21
HETATM   21  C   UNL     1       9.496  -5.544  -1.430  1.00  0.00     0.131 C 
BRANCH  21  22
HETATM   22  C   UNL     1       9.063  -4.877  -0.115  1.00  0.00     0.033 C 
BRANCH  22  23
HETATM   23  C   UNL     1       8.459  -3.488  -0.367  1.00  0.00     0.170 C 
BRANCH  23  24
HETATM   24  O   UNL     1       9.451  -2.544  -0.755  1.00  0.00    -0.400 OA
HETATM   25  H   UNL     1       9.811  -2.176   0.075  1.00  0.00     0.209 HD
ENDBRANCH  23  24
ENDBRANCH  22  23
BRANCH  22  26
HETATM   26  C   UNL     1      10.228  -4.864   0.890  1.00  0.00     0.073 C 
BRANCH  26  27
HETATM   27  C   UNL     1       9.767  -4.545   2.267  1.00  0.00     0.053 A 
HETATM   28  O   UNL     1       9.670  -3.224   2.589  1.00  0.00    -0.327 OA
HETATM   29  C   UNL     1       9.223  -3.164   3.871  1.00  0.00     0.142 A 
HETATM   30  C   UNL     1       9.035  -4.429   4.376  1.00  0.00     0.027 A 
HETATM   31  C   UNL     1       9.389  -5.324   3.340  1.00  0.00     0.034 A 
ENDBRANCH  26  27
ENDBRANCH  22  26
ENDBRANCH  21  22
ENDBRANCH   3  21
TORSDOF 9
