REMARK  8 active torsions:
REMARK  status: ('A' for Active; 'I' for Inactive)
REMARK    1  A    between atoms: C_2  and  O_3 
REMARK    2  A    between atoms: O_3  and  C_4 
REMARK    3  A    between atoms: C_4  and  C_5 
REMARK    4  A    between atoms: C_6  and  C_8 
REMARK    5  A    between atoms: C_6  and  O_7 
REMARK    6  A    between atoms: C_16  and  C_17 
REMARK    7  A    between atoms: C_18  and  C_19 
REMARK    8  A    between atoms: N_26  and  C_27 
ROOT
HETATM    1  C   UNL     1       7.638   0.572  -1.556  1.00  0.00     0.177 C 
HETATM    2  C   UNL     1       7.275  -0.897  -1.892  1.00  0.00     0.250 C 
HETATM    3  N   UNL     1       6.880  -1.574  -0.675  1.00  0.00    -0.303 N 
HETATM    4  C   UNL     1       6.049  -1.003   0.237  1.00  0.00     0.319 C 
HETATM    5  O   UNL     1       5.482  -1.672   1.088  1.00  0.00    -0.247 OA
HETATM    6  N   UNL     1       5.925   0.349   0.184  1.00  0.00    -0.333 N 
HETATM    7  C   UNL     1       6.408   1.194  -0.892  1.00  0.00     0.142 C 
HETATM    8  H   UNL     1       6.873  -2.587  -0.675  1.00  0.00     0.167 HD
HETATM    9  H   UNL     1       5.255   0.716   0.852  1.00  0.00     0.165 HD
ENDROOT
BRANCH   7  10
HETATM   10  C   UNL     1       6.479   2.637  -0.462  1.00  0.00     0.015 A 
HETATM   11  C   UNL     1       5.430   3.442   0.095  1.00  0.00     0.097 A 
HETATM   12  N   UNL     1       5.860   4.676   0.381  1.00  0.00    -0.167 NA
HETATM   13  N   UNL     1       7.151   4.720  -0.007  1.00  0.00    -0.244 N 
HETATM   14  C   UNL     1       7.538   3.522  -0.568  1.00  0.00     0.130 A 
BRANCH  11  15
HETATM   15  C   UNL     1       4.043   3.078   0.385  1.00  0.00    -0.005 A 
HETATM   16  C   UNL     1       3.503   3.352   1.649  1.00  0.00     0.014 A 
HETATM   17  C   UNL     1       2.185   3.000   1.949  1.00  0.00     0.001 A 
HETATM   18  C   UNL     1       1.395   2.374   0.987  1.00  0.00     0.000 A 
HETATM   19  C   UNL     1       1.917   2.111  -0.278  1.00  0.00     0.001 A 
HETATM   20  C   UNL     1       3.233   2.468  -0.582  1.00  0.00     0.014 A 
ENDBRANCH  11  15
BRANCH  13  21
HETATM   21  C   UNL     1       7.929   5.897   0.180  1.00  0.00     0.058 A 
HETATM   22  C   UNL     1       7.332   7.031   0.753  1.00  0.00     0.031 A 
HETATM   23  C   UNL     1       8.075   8.196   0.954  1.00  0.00     0.002 A 
HETATM   24  C   UNL     1       9.418   8.237   0.587  1.00  0.00     0.000 A 
HETATM   25  C   UNL     1      10.020   7.115   0.019  1.00  0.00     0.002 A 
HETATM   26  C   UNL     1       9.282   5.946  -0.187  1.00  0.00     0.031 A 
ENDBRANCH  13  21
ENDBRANCH   7  10
BRANCH   1  27
HETATM   27  C   UNL     1       8.906   0.562  -0.722  1.00  0.00     0.270 C 
HETATM   28  O   UNL     1       9.962   0.130  -1.178  1.00  0.00    -0.265 OA
BRANCH  27  29
HETATM   29  O   UNL     1       8.761   1.008   0.546  1.00  0.00    -0.321 OA
BRANCH  29  30
HETATM   30  C   UNL     1       9.919   0.935   1.394  1.00  0.00     0.174 C 
HETATM   31  C   UNL     1      10.803   2.151   1.189  1.00  0.00     0.034 C 
ENDBRANCH  29  30
ENDBRANCH  27  29
ENDBRANCH   1  27
BRANCH   2  32
HETATM   32  C   UNL     1       6.146  -0.963  -2.997  1.00  0.00     0.439 C 
HETATM   33  F   UNL     1       6.456  -0.169  -4.052  1.00  0.00    -0.166 F 
HETATM   34  F   UNL     1       5.980  -2.223  -3.466  1.00  0.00    -0.166 F 
HETATM   35  F   UNL     1       4.937  -0.561  -2.545  1.00  0.00    -0.166 F 
ENDBRANCH   2  32
BRANCH   2  36
HETATM   36  O   UNL     1       8.393  -1.648  -2.389  1.00  0.00    -0.363 OA
HETATM   37  H   UNL     1       9.192  -1.432  -1.869  1.00  0.00     0.213 HD
ENDBRANCH   2  36
TORSDOF 8
