REMARK  8 active torsions:
REMARK  status: ('A' for Active; 'I' for Inactive)
REMARK    1  A    between atoms: N_4  and  C_5 
REMARK    2  A    between atoms: C_5  and  C_6 
REMARK    3  A    between atoms: C_8  and  C_9 
REMARK       I    between atoms: C_9  and  N_17 
REMARK    4  A    between atoms: N_17  and  CA_18 
REMARK    5  A    between atoms: CA_18  and  C_19 
REMARK    6  A    between atoms: CA_18  and  CB_21 
REMARK    7  A    between atoms: C_19  and  O_20 
REMARK    8  A    between atoms: CB_21  and  CG_22 
ROOT
HETATM    1  C   UNK A   0      10.868   1.559  -0.319  1.00  0.00     0.252 C 
HETATM    2  O   UNK A   0      10.918   2.726  -0.695  1.00  0.00    -0.268 OA
ATOM      3  N   TRP A   1      11.855   0.642  -0.609  1.00  0.00    -0.350 N 
ATOM      4  H   TRP A   1      11.837  -0.279  -0.197  1.00  0.00     0.163 HD
ENDROOT
BRANCH   3   5
ATOM      5  CA  TRP A   1      13.044   1.004  -1.392  1.00  0.00     0.112 C 
BRANCH   5   6
ATOM      6  C   TRP A   1      14.028   1.809  -0.524  1.00  0.00     0.189 C 
BRANCH   6   7
ATOM      7  O   TRP A   1      14.434   1.051   0.617  1.00  0.00    -0.399 OA
ATOM      8  H   TRP A   1      13.629   0.941   1.155  1.00  0.00     0.209 HD
ENDBRANCH   6   7
ENDBRANCH   5   6
BRANCH   5   9
ATOM      9  CB  TRP A   1      13.736  -0.250  -1.966  1.00  0.00     0.068 C 
BRANCH   9  10
ATOM     10  CG  TRP A   1      12.950  -0.898  -3.068  1.00  0.00    -0.028 A 
ATOM     11  CD2 TRP A   1      12.052  -2.010  -2.959  1.00  0.00    -0.002 A 
ATOM     12  CE2 TRP A   1      11.542  -2.260  -4.234  1.00  0.00     0.042 A 
ATOM     13  CE3 TRP A   1      11.622  -2.830  -1.896  1.00  0.00     0.014 A 
ATOM     14  CZ2 TRP A   1      10.622  -3.282  -4.498  1.00  0.00     0.030 A 
ATOM     15  NE1 TRP A   1      12.112  -1.343  -5.086  1.00  0.00    -0.365 N 
ATOM     16  CH2 TRP A   1      10.207  -4.074  -3.424  1.00  0.00     0.002 A 
ATOM     17  CZ3 TRP A   1      10.698  -3.853  -2.140  1.00  0.00     0.001 A 
ATOM     18  HE1 TRP A   1      11.924  -1.289  -6.077  1.00  0.00     0.165 HD
ATOM     19  CD1 TRP A   1      12.962  -0.522  -4.398  1.00  0.00     0.096 A 
ENDBRANCH   9  10
ENDBRANCH   5   9
ENDBRANCH   3   5
BRANCH   1  20
HETATM   20  C   UNK A   0       9.740   1.094   0.542  1.00  0.00     0.032 A 
HETATM   21  C   UNK A   0       9.445  -0.261   0.738  1.00  0.00     0.026 A 
HETATM   22  C   UNK A   0       8.416  -0.657   1.612  1.00  0.00    -0.037 A 
HETATM   23  C   UNK A   0       7.654   0.328   2.255  1.00  0.00     0.009 A 
HETATM   24  C   UNK A   0       7.919   1.680   2.036  1.00  0.00     0.002 A 
HETATM   25  C   UNK A   0       8.958   2.061   1.186  1.00  0.00     0.017 A 
BRANCH  22  26
HETATM   26  C   UNK A   0       8.146  -2.125   1.846  1.00  0.00     0.189 C 
BRANCH  26  27
HETATM   27  N   UNK A   0       9.256  -2.775   2.539  1.00  0.00    -0.270 N 
HETATM   28  N   UNK A   0      10.256  -3.322   1.808  1.00  0.00    -0.177 NA
HETATM   29  C   UNK A   0      11.093  -3.828   2.719  1.00  0.00     0.053 A 
HETATM   30  C   UNK A   0      12.338  -4.516   2.306  1.00  0.00     0.072 C 
HETATM   31  C   UNK A   0      10.620  -3.618   4.032  1.00  0.00     0.055 A 
HETATM   32  C   UNK A   0       9.428  -2.939   3.892  1.00  0.00     0.029 A 
HETATM   33  C   UNK A   0       8.481  -2.445   4.920  1.00  0.00     0.070 C 
ENDBRANCH  26  27
ENDBRANCH  22  26
ENDBRANCH   1  20
TORSDOF 8
