REMARK  6 active torsions:
REMARK  status: ('A' for Active; 'I' for Inactive)
REMARK    1  A    between atoms: C_2  and  N_3 
REMARK    2  A    between atoms: C_2  and  C_16 
REMARK    3  A    between atoms: N_3  and  C_6 
REMARK    4  A    between atoms: C_16  and  C_17 
REMARK       I    between atoms: C_17  and  N_18 
REMARK    5  A    between atoms: N_18  and  C_19 
REMARK    6  A    between atoms: C_21  and  O_22 
ROOT
HETATM    1  C   UNL     1       0.452   4.247  -2.216  1.00  0.00     0.040 C 
HETATM    2  C   UNL     1       0.566   2.751  -1.930  1.00  0.00     0.191 C 
ENDROOT
BRANCH   2   3
HETATM    3  N   UNL     1       0.962   2.504  -0.477  1.00  0.00    -0.063 N 
HETATM    4  H   UNL     1       1.350   1.552  -0.452  1.00  0.00     0.278 HD
HETATM    5  H   UNL     1       1.778   3.101  -0.283  1.00  0.00     0.278 HD
BRANCH   3   6
HETATM    6  C   UNL     1       0.025   2.616   0.721  1.00  0.00     0.221 C 
HETATM    7  C   UNL     1      -1.128   1.637   0.704  1.00  0.00    -0.011 A 
HETATM    8  C   UNL     1      -2.467   2.047   0.822  1.00  0.00     0.009 A 
HETATM    9  C   UNL     1      -0.860   0.254   0.605  1.00  0.00     0.011 A 
HETATM   10  C   UNL     1      -3.501   1.106   0.735  1.00  0.00     0.019 A 
HETATM   11  S   UNL     1      -2.926   3.741   1.110  1.00  0.00    -0.129 SA
HETATM   12  C   UNL     1      -3.217  -0.250   0.584  1.00  0.00     0.001 A 
HETATM   13  C   UNL     1      -1.897  -0.678   0.535  1.00  0.00     0.001 A 
HETATM   14  C   UNL     1      -1.430   4.291   1.968  1.00  0.00     0.082 C 
HETATM   15  C   UNL     1      -0.260   4.095   1.022  1.00  0.00     0.048 C 
ENDBRANCH   3   6
ENDBRANCH   2   3
BRANCH   2  16
HETATM   16  C   UNL     1      -0.672   1.962  -2.357  1.00  0.00     0.135 C 
BRANCH  16  17
HETATM   17  C   UNL     1      -0.803   1.913  -3.867  1.00  0.00     0.224 C 
HETATM   18  N   UNL     1      -2.064   1.516  -4.266  1.00  0.00    -0.327 N 
HETATM   19  H   UNL     1      -2.750   1.330  -3.543  1.00  0.00     0.169 HD
HETATM   20  O   UNL     1       0.159   2.172  -4.581  1.00  0.00    -0.273 OA
BRANCH  18  21
HETATM   21  C   UNL     1      -2.540   1.355  -5.587  1.00  0.00     0.037 A 
HETATM   22  C   UNL     1      -1.758   1.543  -6.732  1.00  0.00     0.066 A 
HETATM   23  C   UNL     1      -2.312   1.366  -8.005  1.00  0.00     0.070 A 
HETATM   24  C   UNL     1      -3.655   1.007  -8.128  1.00  0.00     0.037 A 
HETATM   25  C   UNL     1      -4.441   0.814  -6.996  1.00  0.00     0.005 A 
HETATM   26  C   UNL     1      -3.884   0.985  -5.730  1.00  0.00     0.029 A 
BRANCH  23  27
HETATM   27  O   UNL     1      -1.656   1.516  -9.196  1.00  0.00    -0.356 OA
HETATM   28  C   UNL     1      -0.262   1.789  -9.141  1.00  0.00     0.210 C 
ENDBRANCH  23  27
ENDBRANCH  18  21
ENDBRANCH  16  17
ENDBRANCH   2  16
TORSDOF 6
