REMARK  7 active torsions:
REMARK  status: ('A' for Active; 'I' for Inactive)
REMARK    1  A    between atoms: O_2  and  C_3 
REMARK    2  A    between atoms: C_6  and  C_7 
REMARK       I    between atoms: C_7  and  N_8 
REMARK    3  A    between atoms: N_8  and  C_9 
REMARK    4  A    between atoms: C_9  and  C_10 
REMARK    5  A    between atoms: C_10  and  N_11 
REMARK       I    between atoms: N_11  and  C_12 
REMARK    6  A    between atoms: C_12  and  C_13 
REMARK    7  A    between atoms: C_15  and  C_16 
ROOT
HETATM    1  N   UNL     1       1.404   8.066  -0.592  1.00  0.00    -0.355 N 
HETATM    2  C   UNL     1       0.415   8.154   0.364  1.00  0.00     0.251 C 
HETATM    3  O   UNL     1       0.640   8.087   1.568  1.00  0.00    -0.268 OA
HETATM    4  H   UNL     1       1.157   7.915  -1.561  1.00  0.00     0.162 HD
ENDROOT
BRANCH   1   5
HETATM    5  C   UNL     1       2.794   7.859  -0.222  1.00  0.00     0.142 C 
BRANCH   5   6
HETATM    6  C   UNL     1       3.081   6.416   0.208  1.00  0.00     0.142 C 
BRANCH   6   7
HETATM    7  N   UNL     1       4.477   6.190   0.532  1.00  0.00    -0.355 N 
HETATM    8  C   UNL     1       5.426   6.047  -0.459  1.00  0.00     0.251 C 
HETATM    9  O   UNL     1       5.158   6.127  -1.653  1.00  0.00    -0.268 OA
HETATM   10  H   UNL     1       4.762   6.321   1.492  1.00  0.00     0.162 HD
BRANCH   8  11
HETATM   11  C   UNL     1       6.830   5.815  -0.017  1.00  0.00     0.032 A 
HETATM   12  C   UNL     1       7.141   5.243   1.223  1.00  0.00     0.020 A 
HETATM   13  C   UNL     1       8.476   5.019   1.586  1.00  0.00     0.038 A 
HETATM   14  C   UNL     1       9.509   5.355   0.710  1.00  0.00     0.068 A 
HETATM   15  C   UNL     1       9.197   5.920  -0.529  1.00  0.00     0.038 A 
HETATM   16  C   UNL     1       7.868   6.144  -0.896  1.00  0.00     0.020 A 
BRANCH  14  17
HETATM   17  O   UNL     1      10.846   5.181   0.938  1.00  0.00    -0.356 OA
HETATM   18  C   UNL     1      11.213   4.508   2.136  1.00  0.00     0.210 C 
ENDBRANCH  14  17
ENDBRANCH   8  11
ENDBRANCH   6   7
ENDBRANCH   5   6
ENDBRANCH   1   5
BRANCH   2  19
HETATM   19  C   UNL     1      -0.983   8.292  -0.133  1.00  0.00     0.032 A 
HETATM   20  C   UNL     1      -2.026   7.842   0.690  1.00  0.00     0.029 A 
HETATM   21  C   UNL     1      -3.362   7.948   0.276  1.00  0.00    -0.023 A 
HETATM   22  C   UNL     1      -3.636   8.514  -0.976  1.00  0.00     0.012 A 
HETATM   23  C   UNL     1      -2.602   8.980  -1.792  1.00  0.00     0.002 A 
HETATM   24  C   UNL     1      -1.276   8.874  -1.371  1.00  0.00     0.017 A 
BRANCH  21  25
HETATM   25  C   UNL     1      -4.453   7.479   1.117  1.00  0.00    -0.002 A 
HETATM   26  C   UNL     1      -4.435   7.479   2.498  1.00  0.00     0.153 A 
HETATM   27  O   UNL     1      -5.601   6.995   2.998  1.00  0.00    -0.334 OA
HETATM   28  C   UNL     1      -6.385   6.683   1.936  1.00  0.00     0.142 A 
HETATM   29  C   UNL     1      -5.732   6.964   0.759  1.00  0.00     0.038 A 
ENDBRANCH  21  25
ENDBRANCH   2  19
TORSDOF 7
