REMARK  7 active torsions:
REMARK  status: ('A' for Active; 'I' for Inactive)
REMARK       I    between atoms: C_2  and  N_3 
REMARK    1  A    between atoms: N_3  and  C_4 
REMARK    2  A    between atoms: C_7  and  C_8 
REMARK    3  A    between atoms: C_8  and  C_9 
REMARK       I    between atoms: C_9  and  N_10 
REMARK    4  A    between atoms: N_10  and  C_11 
REMARK    5  A    between atoms: C_11  and  C_12 
REMARK    6  A    between atoms: C_14  and  O_15 
REMARK    7  A    between atoms: O_15  and  C_16 
ROOT
HETATM    1  C   UNL     1      -0.042  -5.485  -3.210  1.00  0.00     0.222 C 
HETATM    2  N   UNL     1       0.226  -4.310  -3.879  1.00  0.00    -0.357 N 
HETATM    3  O   UNL     1      -0.088  -5.567  -1.986  1.00  0.00    -0.273 OA
HETATM    4  H   UNL     1      -0.055  -4.239  -4.849  1.00  0.00     0.162 HD
ENDROOT
BRANCH   2   5
HETATM    5  C   UNL     1       0.396  -3.077  -3.143  1.00  0.00     0.161 C 
BRANCH   5   6
HETATM    6  C   UNL     1       1.040  -1.995  -3.971  1.00  0.00    -0.038 A 
HETATM    7  C   UNL     1       0.602  -0.666  -3.843  1.00  0.00     0.046 A 
HETATM    8  C   UNL     1       1.209   0.357  -4.579  1.00  0.00     0.078 A 
HETATM    9  C   UNL     1       2.287   0.067  -5.415  1.00  0.00     0.037 A 
HETATM   10  C   UNL     1       2.745  -1.244  -5.536  1.00  0.00     0.003 A 
HETATM   11  C   UNL     1       2.130  -2.267  -4.812  1.00  0.00     0.009 A 
BRANCH   8  12
HETATM   12  O   UNL     1       0.887   1.688  -4.440  1.00  0.00    -0.292 OA
BRANCH  12  13
HETATM   13  C   UNL     1      -0.452   2.040  -4.333  1.00  0.00     0.169 A 
HETATM   14  N   UNL     1      -1.400   1.298  -4.950  1.00  0.00    -0.237 NA
HETATM   15  C   UNL     1      -2.673   1.732  -4.837  1.00  0.00     0.119 A 
HETATM   16  C   UNL     1      -3.042   2.875  -4.145  1.00  0.00     0.019 A 
HETATM   17  C   UNL     1      -2.044   3.628  -3.535  1.00  0.00     0.006 A 
HETATM   18  C   UNL     1      -0.721   3.209  -3.635  1.00  0.00     0.058 A 
ENDBRANCH  12  13
ENDBRANCH   8  12
ENDBRANCH   5   6
ENDBRANCH   2   5
BRANCH   1  19
HETATM   19  C   UNL     1      -0.258  -6.684  -4.113  1.00  0.00     0.141 C 
BRANCH  19  20
HETATM   20  C   UNL     1      -1.651  -6.861  -4.673  1.00  0.00    -0.049 A 
HETATM   21  C   UNL     1      -2.757  -6.121  -4.240  1.00  0.00     0.010 A 
HETATM   22  C   UNL     1      -4.031  -6.346  -4.782  1.00  0.00     0.030 A 
HETATM   23  C   UNL     1      -4.228  -7.326  -5.754  1.00  0.00     0.034 A 
HETATM   24  C   UNL     1      -3.129  -8.079  -6.178  1.00  0.00     0.030 A 
HETATM   25  C   UNL     1      -1.857  -7.850  -5.645  1.00  0.00     0.010 A 
BRANCH  23  26
HETATM   26  N   UNL     1      -5.477  -7.623  -6.340  1.00  0.00    -0.328 N 
HETATM   27  C   UNL     1      -6.688  -7.001  -6.103  1.00  0.00     0.218 C 
HETATM   28  C   UNL     1      -7.824  -7.599  -6.897  1.00  0.00     0.117 C 
HETATM   29  O   UNL     1      -6.896  -6.057  -5.347  1.00  0.00    -0.274 OA
HETATM   30  H   UNL     1      -5.473  -8.376  -7.015  1.00  0.00     0.169 HD
ENDBRANCH  23  26
ENDBRANCH  19  20
ENDBRANCH   1  19
TORSDOF 7
