REMARK  6 active torsions:
REMARK  status: ('A' for Active; 'I' for Inactive)
REMARK    1  A    between atoms: C_2  and  C_3 
REMARK    2  A    between atoms: C_3  and  N_4 
REMARK    3  A    between atoms: C_3  and  C_17 
REMARK    4  A    between atoms: N_4  and  C_5 
REMARK    5  A    between atoms: C_5  and  C_6 
REMARK       I    between atoms: C_6  and  N_7 
REMARK    6  A    between atoms: N_7  and  C_8 
ROOT
HETATM    1  N   UNL     1       2.478   1.728   2.037  1.00  0.00     0.101 N 
HETATM    2  H   UNL     1       2.805   2.674   2.238  1.00  0.00     0.317 HD
ENDROOT
BRANCH   1   3
HETATM    3  C   UNL     1       2.892   1.359   0.668  1.00  0.00     0.256 C 
BRANCH   3   4
HETATM    4  C   UNL     1       4.426   1.177   0.619  1.00  0.00     0.036 C 
HETATM    5  C   UNL     1       4.920   0.024   1.485  1.00  0.00     0.007 C 
ENDBRANCH   3   4
BRANCH   3   6
HETATM    6  C   UNL     1       2.453   2.381  -0.371  1.00  0.00     0.013 A 
HETATM    7  C   UNL     1       1.595   1.993  -1.411  1.00  0.00     0.127 A 
HETATM    8  F   UNL     1       1.179   0.721  -1.494  1.00  0.00    -0.205 F 
HETATM    9  C   UNL     1       1.147   2.899  -2.366  1.00  0.00     0.085 A 
HETATM   10  C   UNL     1       1.563   4.219  -2.285  1.00  0.00     0.119 A 
HETATM   11  F   UNL     1       1.135   5.103  -3.195  1.00  0.00    -0.206 F 
HETATM   12  C   UNL     1       2.419   4.640  -1.273  1.00  0.00     0.043 A 
HETATM   13  C   UNL     1       2.867   3.725  -0.318  1.00  0.00     0.015 A 
ENDBRANCH   3   6
ENDBRANCH   1   3
BRANCH   1  14
HETATM   14  C   UNL     1       1.005   1.701   2.190  1.00  0.00     0.372 C 
BRANCH  14  15
HETATM   15  C   UNL     1       0.607   2.157   3.600  1.00  0.00     0.250 C 
HETATM   16  N   UNL     1       1.509   1.744   4.559  1.00  0.00    -0.322 N 
HETATM   17  H   UNL     1       2.257   1.149   4.216  1.00  0.00     0.169 HD
HETATM   18  O   UNL     1      -0.439   2.766   3.788  1.00  0.00    -0.271 OA
BRANCH  16  19
HETATM   19  C   UNL     1       1.489   2.029   5.910  1.00  0.00     0.085 A 
HETATM   20  C   UNL     1       0.740   2.941   6.712  1.00  0.00     0.079 A 
HETATM   21  C   UNL     1      -0.278   3.951   6.328  1.00  0.00     0.075 C 
HETATM   22  N   UNL     1       1.090   2.856   8.005  1.00  0.00    -0.177 NA
HETATM   23  N   UNL     1       2.040   1.917   8.029  1.00  0.00    -0.280 N 
HETATM   24  H   UNL     1       2.450   1.681   8.926  1.00  0.00     0.189 HD
HETATM   25  C   UNL     1       2.333   1.395   6.802  1.00  0.00     0.052 A 
HETATM   26  C   UNL     1       3.359   0.341   6.631  1.00  0.00     0.072 C 
ENDBRANCH  16  19
ENDBRANCH  14  15
ENDBRANCH   1  14
TORSDOF 6
