REMARK  4 active torsions:
REMARK  status: ('A' for Active; 'I' for Inactive)
REMARK    1  A    between atoms: N_5  and  C_6 
REMARK    2  A    between atoms: C_6  and  C_7 
REMARK    3  A    between atoms: C_7  and  C_8 
REMARK    4  A    between atoms: C_8  and  N_9 
ROOT
HETATM    1  C   UNL     1       1.483  -2.839  -4.131  1.00  0.00     0.236 C 
ENDROOT
BRANCH   1   2
HETATM    2  C   UNL     1       1.402  -1.645  -3.177  1.00  0.00     0.048 C 
BRANCH   2   3
HETATM    3  C   UNL     1       1.915  -0.310  -3.728  1.00  0.00     0.131 C 
BRANCH   3   4
HETATM    4  N   UNL     1       2.184   0.660  -2.640  1.00  0.00    -0.346 N 
HETATM    5  C   UNL     1       1.058   1.327  -2.090  1.00  0.00     0.041 A 
HETATM    6  C   UNL     1       0.860   1.575  -0.715  1.00  0.00    -0.031 A 
HETATM    7  C   UNL     1       0.096   1.869  -2.980  1.00  0.00     0.030 A 
HETATM    8  C   UNL     1      -0.275   2.313  -0.294  1.00  0.00     0.009 A 
HETATM    9  C   UNL     1       1.787   1.152   0.402  1.00  0.00     0.045 C 
HETATM   10  C   UNL     1      -1.213   2.801  -1.196  1.00  0.00     0.001 A 
HETATM   11  C   UNL     1      -1.024   2.582  -2.547  1.00  0.00     0.002 A 
HETATM   12  C   UNL     1       2.563  -0.135   0.173  1.00  0.00     0.045 C 
HETATM   13  C   UNL     1       3.711   0.103  -0.768  1.00  0.00    -0.031 A 
HETATM   14  C   UNL     1       3.481   0.527  -2.085  1.00  0.00     0.042 A 
HETATM   15  C   UNL     1       5.028  -0.080  -0.304  1.00  0.00     0.011 A 
HETATM   16  C   UNL     1       4.599   0.798  -2.898  1.00  0.00     0.054 A 
HETATM   17  C   UNL     1       5.899   0.605  -2.431  1.00  0.00     0.036 A 
HETATM   18 CL   UNL     1       7.227   0.852  -3.496  1.00  0.00    -0.084 Cl
HETATM   19  C   UNL     1       6.120   0.161  -1.136  1.00  0.00     0.024 A 
ENDBRANCH   3   4
ENDBRANCH   2   3
ENDBRANCH   1   2
BRANCH   1  20
HETATM   20  N   UNL     1       2.882  -3.211  -4.670  1.00  0.00    -0.071 N 
HETATM   21  H   UNL     1       2.785  -4.239  -4.796  1.00  0.00     0.279 HD
HETATM   22  C   UNL     1       4.020  -3.068  -3.681  1.00  0.00     0.238 C 
HETATM   23  C   UNL     1       5.334  -2.705  -4.376  1.00  0.00     0.077 C 
HETATM   24  C   UNL     1       5.528  -3.489  -5.667  1.00  0.00     0.212 C 
HETATM   25  N   UNL     1       6.887  -3.224  -6.315  1.00  0.00    -0.032 N 
HETATM   26  C   UNL     1       5.655  -4.984  -5.330  1.00  0.00     0.256 C 
HETATM   27  C   UNL     1       4.397  -3.275  -6.676  1.00  0.00     0.077 C 
HETATM   28  H   UNL     1       6.819  -3.569  -7.284  1.00  0.00     0.283 HD
HETATM   29  C   UNL     1       7.820  -4.205  -5.672  1.00  0.00     0.290 C 
HETATM   30  C   UNL     1       7.472  -1.848  -6.389  1.00  0.00     0.239 C 
HETATM   31  C   UNL     1       9.051  -4.356  -6.546  1.00  0.00     0.055 C 
HETATM   32  N   UNL     1       6.976  -5.338  -5.535  1.00  0.00    -0.331 N 
HETATM   33  C   UNL     1       9.719  -2.989  -6.745  1.00  0.00     0.005 C 
HETATM   34  C   UNL     1       8.735  -1.922  -7.243  1.00  0.00     0.028 C 
HETATM   35  H   UNL     1       7.306  -6.245  -5.210  1.00  0.00     0.164 HD
HETATM   36  O   UNL     1       4.745  -5.691  -4.940  1.00  0.00    -0.271 OA
HETATM   37  C   UNL     1       3.133  -2.679  -6.056  1.00  0.00     0.238 C 
ENDBRANCH   1  20
TORSDOF 4
