REMARK  5 active torsions:
REMARK  status: ('A' for Active; 'I' for Inactive)
REMARK    1  A    between atoms: C_2  and  N_3 
REMARK       I    between atoms: N_3  and  C_4 
REMARK       I    between atoms: C_4  and  N_5 
REMARK    2  A    between atoms: C_7  and  C_8 
REMARK    3  A    between atoms: C_13  and  N_14 
REMARK       I    between atoms: N_14  and  C_15 
REMARK    4  A    between atoms: C_15  and  C_16 
REMARK    5  A    between atoms: C_19  and  O_20 
ROOT
HETATM    1  C   UNL     1       3.429   4.476   0.920  1.00  0.00     0.088 A 
HETATM    2  N   UNL     1       4.111   3.513   0.286  1.00  0.00    -0.177 NA
HETATM    3  N   UNL     1       4.651   4.135  -0.768  1.00  0.00    -0.287 N 
HETATM    4  H   UNL     1       5.191   3.584  -1.428  1.00  0.00     0.188 HD
HETATM    5  C   UNL     1       4.382   5.473  -0.810  1.00  0.00     0.141 A 
HETATM    6  C   UNL     1       3.622   5.753   0.297  1.00  0.00     0.079 A 
ENDROOT
BRANCH   1   7
HETATM    7  C   UNL     1       2.550   4.163   2.113  1.00  0.00     0.060 C 
HETATM    8  C   UNL     1       2.929   2.877   2.867  1.00  0.00     0.138 C 
HETATM    9  N   UNL     1       2.465   1.636   2.226  1.00  0.00    -0.334 N 
HETATM   10  C   UNL     1       3.068   0.401   2.450  1.00  0.00     0.318 C 
HETATM   11  C   UNL     1       1.069   1.617   1.807  1.00  0.00     0.127 C 
HETATM   12  N   UNL     1       4.381   0.483   2.840  1.00  0.00    -0.339 N 
HETATM   13  O   UNL     1       2.476  -0.665   2.316  1.00  0.00    -0.247 OA
HETATM   14  H   UNL     1       4.863   1.234   2.365  1.00  0.00     0.164 HD
HETATM   15  C   UNL     1       0.692   2.848   0.992  1.00  0.00     0.021 C 
HETATM   16  C   UNL     1       1.061   4.134   1.727  1.00  0.00     0.014 C 
BRANCH  12  17
HETATM   17  C   UNL     1       5.208  -0.676   3.150  1.00  0.00     0.078 C 
HETATM   18  C   UNL     1       5.544  -1.488   1.902  1.00  0.00     0.032 C 
HETATM   19  C   UNL     1       4.622  -1.556   4.254  1.00  0.00     0.032 C 
ENDBRANCH  12  17
ENDBRANCH   1   7
BRANCH   6  20
HETATM   20  N   UNL     1       3.099   6.950   0.748  1.00  0.00    -0.320 N 
HETATM   21  C   UNL     1       3.115   8.224   0.241  1.00  0.00     0.256 C 
HETATM   22  O   UNL     1       2.494   9.113   0.823  1.00  0.00    -0.267 OA
HETATM   23  H   UNL     1       2.551   6.905   1.598  1.00  0.00     0.169 HD
BRANCH  21  24
HETATM   24  C   UNL     1       3.812   8.576  -1.002  1.00  0.00     0.032 A 
HETATM   25  C   UNL     1       5.205   8.645  -1.054  1.00  0.00     0.020 A 
HETATM   26  C   UNL     1       5.824   9.054  -2.239  1.00  0.00     0.038 A 
HETATM   27  C   UNL     1       5.061   9.429  -3.353  1.00  0.00     0.068 A 
HETATM   28  C   UNL     1       3.667   9.385  -3.279  1.00  0.00     0.038 A 
HETATM   29  C   UNL     1       3.042   8.965  -2.102  1.00  0.00     0.020 A 
BRANCH  27  30
HETATM   30  O   UNL     1       5.792   9.818  -4.443  1.00  0.00    -0.356 OA
HETATM   31  C   UNL     1       5.065  10.365  -5.537  1.00  0.00     0.210 C 
ENDBRANCH  27  30
ENDBRANCH  21  24
ENDBRANCH   6  20
TORSDOF 5
