REMARK  10 active torsions:
REMARK  status: ('A' for Active; 'I' for Inactive)
REMARK    1  A    between atoms: O_2  and  C_3 
REMARK    2  A    between atoms: C_3  and  C_4 
REMARK    3  A    between atoms: C_6  and  C_7 
REMARK    4  A    between atoms: C_7  and  C_8 
REMARK    5  A    between atoms: C_8  and  N_9 
REMARK       I    between atoms: N_9  and  C_10 
REMARK       I    between atoms: C_10  and  N_17 
REMARK    6  A    between atoms: N_17  and  CA_18 
REMARK    7  A    between atoms: CA_18  and  C_19 
REMARK    8  A    between atoms: CA_18  and  CB_21 
REMARK    9  A    between atoms: C_19  and  O_20 
REMARK   10  A    between atoms: CB_21  and  CG_22 
ROOT
HETATM    1  N   UNK A   0       3.775  -6.386  -0.064  1.00  0.00    -0.343 N 
HETATM    2  C   UNK A   0       4.683  -5.468  -0.484  1.00  0.00     0.316 C 
HETATM    3  O   UNK A   0       4.950  -5.267  -1.664  1.00  0.00    -0.248 OA
HETATM    4  H   UNK A   0       3.427  -6.320   0.877  1.00  0.00     0.164 HD
ATOM      5  N   TRP A   1       5.338  -4.782   0.482  1.00  0.00    -0.336 N 
ATOM      6  H   TRP A   1       5.968  -4.083   0.101  1.00  0.00     0.164 HD
ENDROOT
BRANCH   5   7
ATOM      7  CA  TRP A   1       5.190  -4.806   1.943  1.00  0.00     0.114 C 
BRANCH   7   8
ATOM      8  C   TRP A   1       5.967  -3.616   2.550  1.00  0.00     0.189 C 
BRANCH   8   9
ATOM      9  O   TRP A   1       5.646  -2.399   1.873  1.00  0.00    -0.399 OA
ATOM     10  H   TRP A   1       4.677  -2.321   1.849  1.00  0.00     0.209 HD
ENDBRANCH   8   9
ENDBRANCH   7   8
BRANCH   7  11
ATOM     11  CB  TRP A   1       5.662  -6.138   2.564  1.00  0.00     0.068 C 
BRANCH  11  12
ATOM     12  CG  TRP A   1       5.336  -6.247   4.024  1.00  0.00    -0.028 A 
ATOM     13  CD2 TRP A   1       6.265  -6.269   5.113  1.00  0.00    -0.002 A 
ATOM     14  CE2 TRP A   1       5.526  -6.358   6.293  1.00  0.00     0.042 A 
ATOM     15  CE3 TRP A   1       7.672  -6.217   5.208  1.00  0.00     0.014 A 
ATOM     16  CZ2 TRP A   1       6.118  -6.391   7.561  1.00  0.00     0.030 A 
ATOM     17  NE1 TRP A   1       4.199  -6.407   5.937  1.00  0.00    -0.365 N 
ATOM     18  CH2 TRP A   1       7.513  -6.337   7.626  1.00  0.00     0.002 A 
ATOM     19  CZ3 TRP A   1       8.281  -6.253   6.468  1.00  0.00     0.001 A 
ATOM     20  HE1 TRP A   1       3.434  -6.482   6.594  1.00  0.00     0.165 HD
ATOM     21  CD1 TRP A   1       4.072  -6.345   4.575  1.00  0.00     0.096 A 
ENDBRANCH  11  12
ENDBRANCH   7  11
ENDBRANCH   5   7
BRANCH   1  22
HETATM   22  C   UNK A   0       3.055  -7.244  -0.987  1.00  0.00     0.129 C 
BRANCH  22  23
HETATM   23  C   UNK A   0       3.940  -8.250  -1.739  1.00  0.00     0.058 C 
BRANCH  23  24
HETATM   24  C   UNK A   0       4.705  -9.178  -0.823  1.00  0.00    -0.056 A 
HETATM   25  C   UNK A   0       6.009  -8.846  -0.421  1.00  0.00     0.024 A 
HETATM   26  C   UNK A   0       6.724  -9.679   0.451  1.00  0.00     0.040 A 
HETATM   27  C   UNK A   0       6.129 -10.860   0.911  1.00  0.00     0.017 A 
HETATM   28  C   UNK A   0       4.835 -11.198   0.513  1.00  0.00     0.002 A 
HETATM   29  C   UNK A   0       4.124 -10.359  -0.347  1.00  0.00     0.007 A 
BRANCH  26  30
HETATM   30  C   UNK A   0       8.101  -9.355   0.912  1.00  0.00     0.292 C 
HETATM   31  O   UNK A   0       8.762 -10.087   1.632  1.00  0.00    -0.259 OA
BRANCH  30  32
HETATM   32  O   UNK A   0       8.497  -8.149   0.432  1.00  0.00    -0.323 OA
HETATM   33  C   UNK A   0       9.820  -7.774   0.816  1.00  0.00     0.213 C 
ENDBRANCH  30  32
ENDBRANCH  26  30
ENDBRANCH  23  24
ENDBRANCH  22  23
ENDBRANCH   1  22
TORSDOF 10
