REMARK  3 active torsions:
REMARK  status: ('A' for Active; 'I' for Inactive)
REMARK    1  A    between atoms: C_9  and  C_10 
REMARK    2  A    between atoms: C_10  and  C_11 
REMARK       I    between atoms: C_11  and  N_12 
REMARK    3  A    between atoms: N_12  and  C_13 
ROOT
HETATM    1  C   UNL     1       1.276   2.768   0.343  1.00  0.00     0.165 C 
ENDROOT
BRANCH   1   2
HETATM    2  C   UNL     1       1.135   1.282   0.629  1.00  0.00     0.074 A 
HETATM    3  C   UNL     1      -0.122   0.576   0.248  1.00  0.00     0.006 A 
HETATM    4  C   UNL     1      -1.228   1.210  -0.334  1.00  0.00     0.014 A 
HETATM    5  C   UNL     1      -0.190  -0.792   0.511  1.00  0.00     0.046 A 
HETATM    6  C   UNL     1      -2.367   0.471  -0.671  1.00  0.00     0.001 A 
HETATM    7  C   UNL     1      -2.416  -0.900  -0.423  1.00  0.00     0.001 A 
HETATM    8  C   UNL     1      -1.329  -1.534   0.173  1.00  0.00     0.018 A 
HETATM    9  C   UNL     1       0.942  -1.452   1.178  1.00  0.00     0.272 A 
HETATM   10  O   UNL     1       0.933  -2.652   1.425  1.00  0.00    -0.266 OA
HETATM   11  N   UNL     1       1.997  -0.643   1.520  1.00  0.00    -0.243 N 
HETATM   12  N   UNL     1       2.107   0.685   1.258  1.00  0.00    -0.175 NA
HETATM   13  H   UNL     1       2.775  -1.091   1.995  1.00  0.00     0.192 HD
ENDBRANCH   1   2
BRANCH   1  14
HETATM   14  C   UNL     1       2.653   3.327   0.029  1.00  0.00     0.227 C 
HETATM   15  N   UNL     1       3.699   2.748   0.713  1.00  0.00    -0.327 N 
HETATM   16  H   UNL     1       3.464   1.899   1.228  1.00  0.00     0.169 HD
HETATM   17  O   UNL     1       2.747   4.285  -0.737  1.00  0.00    -0.273 OA
BRANCH  15  18
HETATM   18  C   UNL     1       5.058   3.122   0.704  1.00  0.00     0.036 A 
HETATM   19  C   UNL     1       5.553   4.260   0.060  1.00  0.00     0.056 A 
HETATM   20  C   UNL     1       6.917   4.561   0.116  1.00  0.00     0.074 A 
HETATM   21 CL   UNL     1       7.508   5.972  -0.677  1.00  0.00    -0.081 Cl
HETATM   22  C   UNL     1       7.788   3.728   0.813  1.00  0.00     0.138 A 
HETATM   23  F   UNL     1       9.099   4.002   0.878  1.00  0.00    -0.204 F 
HETATM   24  C   UNL     1       7.310   2.594   1.458  1.00  0.00     0.046 A 
HETATM   25  C   UNL     1       5.947   2.293   1.406  1.00  0.00     0.032 A 
ENDBRANCH  15  18
ENDBRANCH   1  14
TORSDOF 3
