REMARK  6 active torsions:
REMARK  status: ('A' for Active; 'I' for Inactive)
REMARK    1  A    between atoms: C_4  and  C_5 
REMARK    2  A    between atoms: C_5  and  O_6 
REMARK    3  A    between atoms: O_6  and  C_7 
REMARK    4  A    between atoms: C_10  and  C_11 
REMARK    5  A    between atoms: C_17  and  C_18 
REMARK    6  A    between atoms: C_27  and  N_28 
ROOT
HETATM    1  C   UNL     1       8.879  -1.989  -1.646  1.00  0.00     0.072 A 
HETATM    2  N   UNL     1       9.751  -1.069  -2.194  1.00  0.00    -0.274 N 
HETATM    3  H   UNL     1       9.614  -0.067  -2.284  1.00  0.00     0.189 HD
HETATM    4  N   UNL     1      10.889  -1.602  -2.681  1.00  0.00    -0.148 NA
HETATM    5  C   UNL     1      10.722  -2.893  -2.437  1.00  0.00     0.199 A 
HETATM    6  C   UNL     1       9.529  -3.207  -1.779  1.00  0.00     0.040 A 
HETATM    7  C   UNL     1       9.220  -4.617  -1.418  1.00  0.00     0.107 A 
HETATM    8  C   UNL     1      10.265  -5.570  -1.986  1.00  0.00     0.081 A 
HETATM    9  C   UNL     1       9.993  -6.965  -1.855  1.00  0.00     0.100 C 
HETATM   10  N   UNL     1       9.760  -8.095  -1.740  1.00  0.00    -0.191 NA
HETATM   11  C   UNL     1      11.382  -5.142  -2.629  1.00  0.00     0.140 A 
HETATM   12  O   UNL     1      11.657  -3.781  -2.820  1.00  0.00    -0.277 OA
ENDROOT
BRANCH   7  13
HETATM   13  C   UNL     1       9.140  -4.668   0.096  1.00  0.00    -0.027 A 
HETATM   14  C   UNL     1      10.212  -4.324   0.923  1.00  0.00     0.124 A 
HETATM   15  N   UNL     1      10.195  -4.408   2.272  1.00  0.00    -0.273 NA
HETATM   16  C   UNL     1       9.057  -4.859   2.839  1.00  0.00     0.116 A 
HETATM   17  C   UNL     1       7.935  -5.228   2.119  1.00  0.00     0.020 A 
HETATM   18  C   UNL     1       7.980  -5.133   0.731  1.00  0.00     0.011 A 
ENDBRANCH   7  13
BRANCH  11  19
HETATM   19  N   UNL     1      12.356  -5.959  -3.161  1.00  0.00    -0.282 NA
HETATM   20  H   UNL     1      12.454  -6.874  -2.728  1.00  0.00     0.126 HD
HETATM   21  H   UNL     1      13.244  -5.473  -3.274  1.00  0.00     0.126 HD
ENDBRANCH  11  19
BRANCH   1  22
HETATM   22  C   UNL     1       7.581  -1.613  -1.094  1.00  0.00    -0.007 A 
HETATM   23  C   UNL     1       6.440  -2.372  -1.372  1.00  0.00     0.016 A 
HETATM   24  C   UNL     1       5.200  -2.009  -0.839  1.00  0.00     0.037 A 
HETATM   25  C   UNL     1       5.074  -0.881  -0.028  1.00  0.00     0.069 A 
HETATM   26  C   UNL     1       6.202  -0.109   0.240  1.00  0.00     0.037 A 
HETATM   27  C   UNL     1       7.448  -0.477  -0.285  1.00  0.00     0.016 A 
BRANCH  25  28
HETATM   28  O   UNL     1       3.809  -0.652   0.436  1.00  0.00    -0.347 OA
BRANCH  28  29
HETATM   29  C   UNL     1       3.626   0.453   1.325  1.00  0.00     0.214 C 
BRANCH  29  30
HETATM   30  C   UNL     1       2.214   0.448   1.860  1.00  0.00    -0.034 A 
HETATM   31  C   UNL     1       1.972   0.742   3.211  1.00  0.00     0.009 A 
HETATM   32  C   UNL     1       0.669   0.762   3.712  1.00  0.00     0.001 A 
HETATM   33  C   UNL     1      -0.407   0.497   2.869  1.00  0.00     0.000 A 
HETATM   34  C   UNL     1      -0.183   0.219   1.522  1.00  0.00     0.001 A 
HETATM   35  C   UNL     1       1.119   0.201   1.019  1.00  0.00     0.009 A 
ENDBRANCH  29  30
ENDBRANCH  28  29
ENDBRANCH  25  28
ENDBRANCH   1  22
TORSDOF 6
