REMARK  8 active torsions:
REMARK  status: ('A' for Active; 'I' for Inactive)
REMARK    1  A    between atoms: C_4  and  S_5 
REMARK    2  A    between atoms: S_5  and  C_6 
REMARK    3  A    between atoms: C_6  and  C_7 
REMARK       I    between atoms: C_7  and  N_8 
REMARK    4  A    between atoms: N_8  and  C_9 
REMARK    5  A    between atoms: C_20  and  C_21 
REMARK    6  A    between atoms: C_27  and  C_28 
REMARK       I    between atoms: C_28  and  N_29 
REMARK    7  A    between atoms: N_29  and  C_30 
REMARK    8  A    between atoms: C_31  and  O_32 
ROOT
HETATM    1  C   UNL     1       0.918  -0.001  -0.143  1.00  0.00     0.069 C 
HETATM    2  C   UNL     1       2.425  -0.087  -0.185  1.00  0.00     0.019 C 
HETATM    3  N   UNL     1       3.095   1.115  -0.023  1.00  0.00    -0.353 N 
HETATM    4  C   UNL     1       4.449   1.307  -0.219  1.00  0.00     0.087 C 
HETATM    5  C   UNL     1       5.231   0.222  -0.426  1.00  0.00     0.055 C 
HETATM    6  C   UNL     1       6.694   0.341  -0.821  1.00  0.00     0.019 C 
HETATM    7  N   UNL     1       7.907   0.439  -1.149  1.00  0.00    -0.096 N 
HETATM    8  C   UNL     1       4.662  -1.184  -0.242  1.00  0.00     0.104 C 
HETATM    9  C   UNL     1       3.135  -1.237  -0.319  1.00  0.00     0.046 C 
HETATM   10  H   UNL     1       2.543   1.962   0.085  1.00  0.00     0.166 HD
ENDROOT
BRANCH   4  11
HETATM   11  S   UNL     1       5.118   2.906   0.000  1.00  0.00    -0.102 SA
BRANCH  11  12
HETATM   12  C   UNL     1       5.503   3.451  -1.693  1.00  0.00     0.184 C 
BRANCH  12  13
HETATM   13  C   UNL     1       6.105   4.863  -1.712  1.00  0.00     0.231 C 
HETATM   14  N   UNL     1       6.735   5.233  -0.536  1.00  0.00    -0.326 N 
HETATM   15  H   UNL     1       6.668   4.553   0.215  1.00  0.00     0.169 HD
HETATM   16  O   UNL     1       6.038   5.544  -2.733  1.00  0.00    -0.272 OA
BRANCH  14  17
HETATM   17  C   UNL     1       7.360   6.452  -0.213  1.00  0.00     0.036 A 
HETATM   18  C   UNL     1       7.539   7.504  -1.110  1.00  0.00     0.053 A 
HETATM   19  C   UNL     1       8.164   8.681  -0.686  1.00  0.00     0.036 A 
HETATM   20 CL   UNL     1       8.387   9.979  -1.796  1.00  0.00    -0.084 Cl
HETATM   21  C   UNL     1       8.609   8.823   0.627  1.00  0.00     0.024 A 
HETATM   22  C   UNL     1       8.435   7.776   1.527  1.00  0.00     0.004 A 
HETATM   23  C   UNL     1       7.816   6.596   1.106  1.00  0.00     0.029 A 
ENDBRANCH  14  17
ENDBRANCH  12  13
ENDBRANCH  11  12
ENDBRANCH   4  11
BRANCH   8  24
HETATM   24  C   UNL     1       5.196  -1.736   1.092  1.00  0.00    -0.044 A 
HETATM   25  C   UNL     1       4.586  -1.403   2.318  1.00  0.00     0.008 A 
HETATM   26  C   UNL     1       5.115  -1.851   3.528  1.00  0.00     0.001 A 
HETATM   27  C   UNL     1       6.268  -2.629   3.538  1.00  0.00     0.000 A 
HETATM   28  C   UNL     1       6.893  -2.958   2.336  1.00  0.00     0.001 A 
HETATM   29  C   UNL     1       6.364  -2.516   1.120  1.00  0.00     0.008 A 
ENDBRANCH   8  24
BRANCH   9  30
HETATM   30  C   UNL     1       2.429  -2.543  -0.573  1.00  0.00     0.255 C 
HETATM   31  N   UNL     1       3.145  -3.683  -0.271  1.00  0.00    -0.321 N 
HETATM   32  H   UNL     1       4.148  -3.639  -0.195  1.00  0.00     0.169 HD
HETATM   33  O   UNL     1       1.333  -2.550  -1.130  1.00  0.00    -0.268 OA
BRANCH  31  34
HETATM   34  C   UNL     1       2.597  -4.988  -0.265  1.00  0.00     0.068 A 
HETATM   35  C   UNL     1       1.316  -5.288   0.244  1.00  0.00     0.095 A 
HETATM   36  C   UNL     1       0.848  -6.605   0.168  1.00  0.00     0.039 A 
HETATM   37  C   UNL     1       1.650  -7.615  -0.370  1.00  0.00     0.003 A 
HETATM   38  C   UNL     1       2.937  -7.326  -0.811  1.00  0.00     0.002 A 
HETATM   39  C   UNL     1       3.417  -6.018  -0.743  1.00  0.00     0.032 A 
BRANCH  35  40
HETATM   40  O   UNL     1       0.656  -4.278   0.896  1.00  0.00    -0.354 OA
HETATM   41  C   UNL     1      -0.662  -4.535   1.356  1.00  0.00     0.210 C 
ENDBRANCH  35  40
ENDBRANCH  31  34
ENDBRANCH   9  30
TORSDOF 8
