REMARK  2 active torsions:
REMARK  status: ('A' for Active; 'I' for Inactive)
REMARK    1  A    between atoms: C_8  and  S_9 
REMARK    2  A    between atoms: S_9  and  C_10 
ROOT
HETATM    1  C   UNL     1      -1.681  -0.611  -2.093  1.00  0.00     0.002 A 
HETATM    2  C   UNL     1      -0.551   0.207  -2.029  1.00  0.00     0.034 A 
HETATM    3  C   UNL     1       0.413   0.028  -1.045  1.00  0.00     0.087 A 
HETATM    4  C   UNL     1       0.241  -1.013  -0.092  1.00  0.00     0.087 A 
HETATM    5  N   UNL     1       1.146  -1.230   0.884  1.00  0.00    -0.231 NA
HETATM    6  C   UNL     1       2.233  -0.431   0.911  1.00  0.00     0.167 A 
HETATM    7 CL   UNL     1       3.299  -0.764   2.206  1.00  0.00    -0.059 Cl
HETATM    8  C   UNL     1       2.389   0.570  -0.018  1.00  0.00     0.193 A 
HETATM    9  N   UNL     1       1.491   0.843  -1.008  1.00  0.00    -0.232 NA
HETATM   10  C   UNL     1      -0.888  -1.818  -0.168  1.00  0.00     0.034 A 
HETATM   11  C   UNL     1      -1.849  -1.625  -1.160  1.00  0.00     0.002 A 
ENDROOT
BRANCH   8  12
HETATM   12  S   UNL     1       3.782   1.639   0.011  1.00  0.00     0.201 S 
HETATM   13  O   UNL     1       3.616   2.553   1.134  1.00  0.00    -0.221 OA
HETATM   14  O   UNL     1       4.972   0.830  -0.138  1.00  0.00    -0.221 OA
BRANCH  12  15
HETATM   15  C   UNL     1       3.656   2.670  -1.448  1.00  0.00     0.141 C 
HETATM   16  C   UNL     1       2.604   3.755  -1.224  1.00  0.00     0.252 C 
HETATM   17  N   UNL     1       3.107   4.815  -0.282  1.00  0.00    -0.074 N 
HETATM   18  H   UNL     1       3.261   4.376   0.652  1.00  0.00     0.277 HD
HETATM   19  H   UNL     1       2.379   5.526  -0.124  1.00  0.00     0.277 HD
HETATM   20  C   UNL     1       4.371   5.479  -0.710  1.00  0.00     0.232 C 
HETATM   21  C   UNL     1       5.450   4.423  -0.889  1.00  0.00     0.029 C 
HETATM   22  C   UNL     1       5.006   3.301  -1.831  1.00  0.00     0.024 C 
ENDBRANCH  12  15
ENDBRANCH   8  12
TORSDOF 2
