REMARK  9 active torsions:
REMARK  status: ('A' for Active; 'I' for Inactive)
REMARK    1  A    between atoms: C_2  and  N_3 
REMARK    2  A    between atoms: C_2  and  C_11 
REMARK    3  A    between atoms: N_3  and  C_4 
REMARK    4  A    between atoms: N_12  and  C_13 
REMARK    5  A    between atoms: C_19  and  S_20 
REMARK    6  A    between atoms: S_20  and  C_21 
REMARK    7  A    between atoms: C_21  and  C_22 
REMARK       I    between atoms: C_22  and  N_23 
REMARK    8  A    between atoms: N_23  and  C_24 
REMARK    9  A    between atoms: C_26  and  N_27 
REMARK       I    between atoms: N_27  and  C_28 
ROOT
HETATM    1  C   UNL     1       3.987   1.373  -0.162  1.00  0.00     0.158 A 
HETATM    2  N   UNL     1       3.682   2.734  -0.169  1.00  0.00    -0.274 N 
HETATM    3  C   UNL     1       4.613   3.273  -1.042  1.00  0.00     0.196 A 
HETATM    4  N   UNL     1       5.464   2.348  -1.429  1.00  0.00    -0.122 NA
HETATM    5  N   UNL     1       5.081   1.164  -0.875  1.00  0.00    -0.131 NA
ENDROOT
BRANCH   3   6
HETATM    6  S   UNL     1       4.787   4.956  -1.429  1.00  0.00    -0.080 SA
BRANCH   6   7
HETATM    7  C   UNL     1       6.414   4.979  -2.237  1.00  0.00     0.185 C 
BRANCH   7   8
HETATM    8  C   UNL     1       7.523   5.002  -1.196  1.00  0.00     0.231 C 
HETATM    9  N   UNL     1       7.843   3.745  -0.708  1.00  0.00    -0.326 N 
HETATM   10  H   UNL     1       7.266   2.973  -1.044  1.00  0.00     0.169 HD
HETATM   11  O   UNL     1       8.041   6.064  -0.861  1.00  0.00    -0.272 OA
BRANCH   9  12
HETATM   12  C   UNL     1       8.793   3.419   0.282  1.00  0.00     0.036 A 
HETATM   13  C   UNL     1       8.860   2.072   0.682  1.00  0.00     0.059 A 
HETATM   14  C   UNL     1       9.762   1.652   1.663  1.00  0.00     0.036 A 
HETATM   15  C   UNL     1      10.588   2.611   2.262  1.00  0.00     0.029 A 
HETATM   16  C   UNL     1      10.534   3.948   1.870  1.00  0.00     0.004 A 
HETATM   17  C   UNL     1       9.642   4.350   0.878  1.00  0.00     0.029 A 
BRANCH  14  18
HETATM   18  N   UNL     1       9.898   0.336   2.141  1.00  0.00    -0.327 N 
HETATM   19  C   UNL     1       9.417  -0.874   1.742  1.00  0.00     0.218 C 
HETATM   20  C   UNL     1       8.657  -1.043   0.461  1.00  0.00     0.117 C 
HETATM   21  O   UNL     1       9.648  -1.853   2.460  1.00  0.00    -0.274 OA
HETATM   22  H   UNL     1      10.478   0.223   2.965  1.00  0.00     0.169 HD
ENDBRANCH  14  18
ENDBRANCH   9  12
ENDBRANCH   7   8
ENDBRANCH   6   7
ENDBRANCH   3   6
BRANCH   2  23
HETATM   23  C   UNL     1       2.671   3.398   0.573  1.00  0.00     0.043 A 
HETATM   24  C   UNL     1       2.511   3.116   1.937  1.00  0.00     0.030 A 
HETATM   25  C   UNL     1       1.534   3.782   2.679  1.00  0.00     0.002 A 
HETATM   26  C   UNL     1       0.718   4.731   2.067  1.00  0.00     0.000 A 
HETATM   27  C   UNL     1       0.876   5.017   0.712  1.00  0.00     0.002 A 
HETATM   28  C   UNL     1       1.852   4.355  -0.037  1.00  0.00     0.030 A 
ENDBRANCH   2  23
BRANCH   1  29
HETATM   29  C   UNL     1       3.078   0.296   0.385  1.00  0.00     0.150 C 
HETATM   30  C   UNL     1       3.784  -1.068   0.353  1.00  0.00     0.040 C 
BRANCH  29  31
HETATM   31  N   UNL     1       1.832   0.208  -0.388  1.00  0.00    -0.379 N 
HETATM   32  H   UNL     1       2.014  -0.014  -1.365  1.00  0.00     0.160 HD
BRANCH  31  33
HETATM   33  C   UNL     1       0.686  -0.422   0.092  1.00  0.00     0.028 A 
HETATM   34  C   UNL     1       0.392  -0.585   1.451  1.00  0.00     0.030 A 
HETATM   35  C   UNL     1      -0.811  -1.168   1.871  1.00  0.00     0.021 A 
HETATM   36  C   UNL     1      -1.753  -1.569   0.930  1.00  0.00     0.011 A 
HETATM   37 BR   UNL     1      -3.375  -2.355   1.494  1.00  0.00    -0.051 Br
HETATM   38  C   UNL     1      -1.508  -1.378  -0.424  1.00  0.00     0.021 A 
HETATM   39  C   UNL     1      -0.303  -0.796  -0.832  1.00  0.00     0.030 A 
ENDBRANCH  31  33
ENDBRANCH  29  31
ENDBRANCH   1  29
TORSDOF 9
