REMARK  7 active torsions:
REMARK  status: ('A' for Active; 'I' for Inactive)
REMARK    1  A    between atoms: O_2  and  C_3 
REMARK    2  A    between atoms: C_5  and  C_6 
REMARK    3  A    between atoms: C_8  and  N_9 
REMARK    4  A    between atoms: N_12  and  C_14 
REMARK    5  A    between atoms: C_14  and  C_15 
REMARK       I    between atoms: C_15  and  N_16 
REMARK    6  A    between atoms: N_16  and  N_17 
REMARK       I    between atoms: N_17  and  C_18 
REMARK    7  A    between atoms: C_18  and  C_19 
ROOT
HETATM    1  N   UNL     1       8.439  -0.773  -4.597  1.00  0.00    -0.357 N 
HETATM    2  C   UNL     1       9.883  -0.889  -4.854  1.00  0.00     0.152 C 
HETATM    3  C   UNL     1      10.687  -0.007  -3.869  1.00  0.00     0.255 C 
HETATM    4  N   UNL     1      10.182   1.434  -3.949  1.00  0.00    -0.060 N 
HETATM    5  H   UNL     1      10.249   1.717  -4.932  1.00  0.00     0.280 HD
HETATM    6  C   UNL     1       8.685   1.491  -3.603  1.00  0.00     0.255 C 
HETATM    7  C   UNL     1       7.917   0.609  -4.613  1.00  0.00     0.152 C 
ENDROOT
BRANCH   4   8
HETATM    8  C   UNL     1      11.030   2.443  -3.174  1.00  0.00     0.338 C 
BRANCH   8   9
HETATM    9  C   UNL     1      11.182   2.202  -1.671  1.00  0.00     0.262 C 
HETATM   10  N   UNL     1      12.132   2.937  -0.997  1.00  0.00    -0.266 N 
HETATM   11  H   UNL     1      12.121   2.860   0.020  1.00  0.00     0.190 HD
HETATM   12  O   UNL     1      10.521   1.354  -1.073  1.00  0.00    -0.270 OA
BRANCH  10  13
HETATM   13  N   UNL     1      12.809   4.036  -1.559  1.00  0.00    -0.263 N 
HETATM   14  C   UNL     1      12.090   5.210  -1.751  1.00  0.00     0.270 C 
HETATM   15  O   UNL     1      10.864   5.250  -1.730  1.00  0.00    -0.266 OA
HETATM   16  H   UNL     1      13.799   4.109  -1.324  1.00  0.00     0.190 HD
BRANCH  14  17
HETATM   17  C   UNL     1      12.887   6.435  -2.014  1.00  0.00     0.033 A 
HETATM   18  C   UNL     1      12.403   7.661  -1.540  1.00  0.00     0.019 A 
HETATM   19  C   UNL     1      13.116   8.837  -1.787  1.00  0.00     0.025 A 
HETATM   20  C   UNL     1      14.300   8.789  -2.521  1.00  0.00     0.034 A 
HETATM   21 CL   UNL     1      15.171  10.236  -2.838  1.00  0.00    -0.084 Cl
HETATM   22  C   UNL     1      14.779   7.573  -3.009  1.00  0.00     0.025 A 
HETATM   23  C   UNL     1      14.075   6.392  -2.757  1.00  0.00     0.019 A 
ENDBRANCH  14  17
ENDBRANCH  10  13
ENDBRANCH   8   9
ENDBRANCH   4   8
BRANCH   1  24
HETATM   24  C   UNL     1       7.805  -1.649  -3.753  1.00  0.00     0.169 A 
HETATM   25  N   UNL     1       6.734  -1.315  -3.067  1.00  0.00    -0.223 NA
HETATM   26  C   UNL     1       6.237  -2.387  -2.340  1.00  0.00     0.076 A 
HETATM   27  C   UNL     1       6.971  -3.548  -2.461  1.00  0.00     0.085 A 
HETATM   28  S   UNL     1       8.296  -3.291  -3.510  1.00  0.00    -0.062 SA
BRANCH  26  29
HETATM   29  C   UNL     1       5.012  -2.264  -1.557  1.00  0.00    -0.004 A 
HETATM   30  C   UNL     1       4.757  -3.077  -0.444  1.00  0.00     0.050 A 
HETATM   31  C   UNL     1       3.568  -2.952   0.286  1.00  0.00     0.069 A 
HETATM   32  C   UNL     1       2.622  -2.004  -0.099  1.00  0.00     0.037 A 
HETATM   33  C   UNL     1       2.866  -1.182  -1.201  1.00  0.00     0.004 A 
HETATM   34  C   UNL     1       4.054  -1.310  -1.923  1.00  0.00     0.014 A 
BRANCH  31  35
HETATM   35  O   UNL     1       3.460  -3.813   1.344  1.00  0.00    -0.356 OA
HETATM   36  C   UNL     1       2.278  -3.720   2.132  1.00  0.00     0.210 C 
ENDBRANCH  31  35
ENDBRANCH  26  29
ENDBRANCH   1  24
TORSDOF 7
