REMARK  5 active torsions:
REMARK  status: ('A' for Active; 'I' for Inactive)
REMARK    1  A    between atoms: O_2  and  C_3 
REMARK    2  A    between atoms: C_4  and  C_5 
REMARK    3  A    between atoms: C_17  and  N_18 
REMARK       I    between atoms: N_18  and  C_19 
REMARK       I    between atoms: C_19  and  N_20 
REMARK    4  A    between atoms: N_20  and  C_21 
REMARK    5  A    between atoms: C_21  and  C_22 
ROOT
HETATM    1  C   UNL     1       3.861   0.950  -2.299  1.00  0.00    -0.022 A 
HETATM    2  C   UNL     1       4.952   1.644  -1.744  1.00  0.00     0.031 A 
HETATM    3  C   UNL     1       5.124   3.041  -1.889  1.00  0.00     0.059 A 
HETATM    4  C   UNL     1       4.188   3.760  -2.631  1.00  0.00     0.050 A 
HETATM    5  N   UNL     1       4.225   5.136  -2.865  1.00  0.00    -0.324 N 
HETATM    6  C   UNL     1       4.723   6.119  -2.062  1.00  0.00     0.245 C 
HETATM    7  O   UNL     1       4.580   7.283  -2.445  1.00  0.00    -0.271 OA
HETATM    8  C   UNL     1       5.278   5.739  -0.674  1.00  0.00     0.181 C 
HETATM    9  N   UNL     1       6.478   4.901  -0.838  1.00  0.00    -0.334 N 
HETATM   10  C   UNL     1       6.390   3.590  -1.335  1.00  0.00     0.256 C 
HETATM   11  O   UNL     1       7.353   2.821  -1.273  1.00  0.00    -0.267 OA
HETATM   12  C   UNL     1       5.480   7.043   0.119  1.00  0.00     0.060 C 
HETATM   13  C   UNL     1       6.451   6.908   1.281  1.00  0.00     0.090 C 
HETATM   14  C   UNL     1       7.781   6.448   0.709  1.00  0.00     0.045 C 
HETATM   15  C   UNL     1       7.652   5.104   0.017  1.00  0.00     0.129 C 
HETATM   16  C   UNL     1       3.122   3.076  -3.231  1.00  0.00     0.031 A 
HETATM   17  C   UNL     1       2.947   1.701  -3.045  1.00  0.00     0.014 A 
HETATM   18  H   UNL     1       3.683   5.513  -3.635  1.00  0.00     0.169 HD
ENDROOT
BRANCH   1  19
HETATM   19  C   UNL     1       3.691  -0.510  -2.088  1.00  0.00     0.009 A 
HETATM   20  C   UNL     1       3.370  -1.415  -3.132  1.00  0.00     0.079 A 
HETATM   21  C   UNL     1       3.212  -2.782  -2.855  1.00  0.00     0.039 A 
HETATM   22  C   UNL     1       3.383  -3.271  -1.559  1.00  0.00     0.026 A 
HETATM   23  C   UNL     1       3.707  -2.397  -0.532  1.00  0.00     0.035 A 
HETATM   24  C   UNL     1       3.855  -1.035  -0.787  1.00  0.00     0.039 A 
HETATM   25 CL   UNL     1       3.928  -2.997   1.066  1.00  0.00    -0.084 Cl
BRANCH  20  26
HETATM   26  O   UNL     1       3.244  -0.882  -4.392  1.00  0.00    -0.355 OA
HETATM   27  C   UNL     1       2.958  -1.765  -5.468  1.00  0.00     0.210 C 
ENDBRANCH  20  26
ENDBRANCH   1  19
BRANCH  13  28
HETATM   28  N   UNL     1       5.953   6.030   2.332  1.00  0.00    -0.338 N 
HETATM   29  C   UNL     1       4.983   6.458   3.205  1.00  0.00     0.316 C 
HETATM   30  N   UNL     1       4.551   5.432   4.003  1.00  0.00    -0.340 N 
HETATM   31  O   UNL     1       4.543   7.598   3.242  1.00  0.00    -0.247 OA
HETATM   32  H   UNL     1       5.253   4.742   4.225  1.00  0.00     0.164 HD
HETATM   33  H   UNL     1       5.937   5.036   2.153  1.00  0.00     0.164 HD
BRANCH  30  34
HETATM   34  C   UNL     1       3.579   5.693   5.035  1.00  0.00     0.150 C 
BRANCH  34  35
HETATM   35  C   UNL     1       2.951   4.384   5.392  1.00  0.00    -0.018 C 
HETATM   36  C   UNL     1       3.070   3.776   6.580  1.00  0.00     0.008 C 
ENDBRANCH  34  35
ENDBRANCH  30  34
ENDBRANCH  13  28
TORSDOF 5
