REMARK  9 active torsions:
REMARK  status: ('A' for Active; 'I' for Inactive)
REMARK    1  A    between atoms: C_7  and  C_8 
REMARK    2  A    between atoms: C_9  and  O_10 
REMARK    3  A    between atoms: C_12  and  N_13 
REMARK    4  A    between atoms: N_13  and  C_14 
REMARK    5  A    between atoms: C_14  and  N_15 
REMARK       I    between atoms: N_15  and  C_16 
REMARK    6  A    between atoms: C_16  and  C_17 
REMARK    7  A    between atoms: C_19  and  O_20 
REMARK    8  A    between atoms: O_20  and  C_21 
REMARK    9  A    between atoms: C_21  and  C_22 
ROOT
HETATM    1  N   UNL     1      11.404  -3.697  -1.478  1.00  0.00    -0.337 N 
HETATM    2  H   UNL     1      11.296  -4.694  -1.636  1.00  0.00     0.168 HD
ENDROOT
BRANCH   1   3
HETATM    3  C   UNL     1      10.561  -2.893  -2.272  1.00  0.00     0.036 A 
HETATM    4  C   UNL     1       9.414  -3.499  -2.793  1.00  0.00     0.067 A 
HETATM    5  C   UNL     1       8.555  -2.794  -3.640  1.00  0.00     0.082 A 
HETATM    6  C   UNL     1       8.829  -1.470  -4.014  1.00  0.00     0.050 A 
HETATM    7  C   UNL     1       9.994  -0.878  -3.494  1.00  0.00     0.021 A 
HETATM    8  C   UNL     1      10.851  -1.579  -2.632  1.00  0.00     0.030 A 
BRANCH   5   9
HETATM    9  O   UNL     1       7.460  -3.500  -4.069  1.00  0.00    -0.360 OA
HETATM   10  H   UNL     1       6.895  -2.906  -4.597  1.00  0.00     0.217 HD
ENDBRANCH   5   9
BRANCH   6  11
HETATM   11  C   UNL     1       7.992  -0.688  -4.923  1.00  0.00     0.183 A 
HETATM   12  N   UNL     1       8.219   0.502  -5.453  1.00  0.00    -0.221 NA
HETATM   13  C   UNL     1       7.112   0.734  -6.230  1.00  0.00     0.093 A 
HETATM   14  C   UNL     1       6.239  -0.335  -6.136  1.00  0.00     0.107 A 
HETATM   15  C   UNL     1       6.765   1.819  -7.043  1.00  0.00     0.035 A 
HETATM   16  C   UNL     1       5.017  -0.425  -6.792  1.00  0.00     0.046 A 
HETATM   17  O   UNL     1       6.796  -1.256  -5.299  1.00  0.00    -0.289 OA
HETATM   18  C   UNL     1       4.675   0.663  -7.613  1.00  0.00    -0.059 A 
HETATM   19  C   UNL     1       3.362   0.672  -8.344  1.00  0.00     0.048 C 
HETATM   20  C   UNL     1       5.539   1.769  -7.727  1.00  0.00     0.009 A 
ENDBRANCH   6  11
ENDBRANCH   1   3
BRANCH   1  21
HETATM   21  C   UNL     1      12.505  -3.381  -0.766  1.00  0.00     0.157 C 
HETATM   22  S   UNL     1      13.732  -4.514  -0.631  1.00  0.00    -0.047 SA
BRANCH  21  23
HETATM   23  N   UNL     1      12.644  -2.222  -0.070  1.00  0.00    -0.201 NA
HETATM   24  C   UNL     1      11.618  -1.717   0.721  1.00  0.00     0.237 C 
HETATM   25  O   UNL     1      10.519  -1.351   0.321  1.00  0.00    -0.274 OA
HETATM   26  H   UNL     1      13.530  -2.287   0.409  1.00  0.00     0.139 HD
BRANCH  24  27
HETATM   27  C   UNL     1      11.913  -1.589   2.179  1.00  0.00     0.029 A 
HETATM   28  C   UNL     1      13.190  -1.292   2.683  1.00  0.00     0.053 A 
HETATM   29  C   UNL     1      13.402  -1.272   4.064  1.00  0.00     0.069 A 
HETATM   30  C   UNL     1      12.331  -1.503   4.933  1.00  0.00     0.037 A 
HETATM   31  C   UNL     1      11.056  -1.765   4.438  1.00  0.00     0.004 A 
HETATM   32  C   UNL     1      10.848  -1.810   3.063  1.00  0.00     0.017 A 
BRANCH  29  33
HETATM   33  O   UNL     1      14.592  -1.038   4.693  1.00  0.00    -0.351 OA
BRANCH  33  34
HETATM   34  C   UNL     1      15.777  -1.030   3.897  1.00  0.00     0.179 C 
BRANCH  34  35
HETATM   35  C   UNL     1      17.012  -1.119   4.810  1.00  0.00     0.002 C 
HETATM   36  C   UNL     1      17.073   0.050   5.794  1.00  0.00     0.011 C 
HETATM   37  C   UNL     1      17.034  -2.445   5.574  1.00  0.00     0.011 C 
ENDBRANCH  34  35
ENDBRANCH  33  34
ENDBRANCH  29  33
ENDBRANCH  24  27
ENDBRANCH  21  23
ENDBRANCH   1  21
TORSDOF 9
