REMARK  8 active torsions:
REMARK  status: ('A' for Active; 'I' for Inactive)
REMARK    1  A    between atoms: C_3  and  S_4 
REMARK    2  A    between atoms: S_4  and  C_5 
REMARK    3  A    between atoms: C_5  and  C_6 
REMARK       I    between atoms: C_6  and  N_7 
REMARK    4  A    between atoms: N_7  and  C_8 
REMARK    5  A    between atoms: C_8  and  C_9 
REMARK    6  A    between atoms: C_9  and  C_10 
REMARK    7  A    between atoms: C_19  and  C_20 
REMARK    8  A    between atoms: C_25  and  O_26 
ROOT
HETATM    1  C   UNL     1       1.249  -0.033  -0.337  1.00  0.00     0.160 C 
HETATM    2  N   UNL     1       2.639  -0.055   0.037  1.00  0.00    -0.310 N 
HETATM    3  C   UNL     1       3.490   0.998   0.231  1.00  0.00     0.191 A 
HETATM    4  N   UNL     1       4.674   0.554   0.586  1.00  0.00    -0.122 NA
HETATM    5  N   UNL     1       4.624  -0.814   0.594  1.00  0.00    -0.126 NA
HETATM    6  C   UNL     1       3.397  -1.180   0.273  1.00  0.00     0.188 A 
ENDROOT
BRANCH   3   7
HETATM    7  S   UNL     1       3.071   2.660   0.011  1.00  0.00    -0.081 SA
BRANCH   7   8
HETATM    8  C   UNL     1       4.435   3.495   0.871  1.00  0.00     0.185 C 
BRANCH   8   9
HETATM    9  C   UNL     1       5.644   3.697  -0.027  1.00  0.00     0.227 C 
HETATM   10  N   UNL     1       6.390   2.566  -0.263  1.00  0.00    -0.360 N 
HETATM   11  H   UNL     1       6.058   1.675   0.106  1.00  0.00     0.162 HD
HETATM   12  O   UNL     1       5.956   4.805  -0.459  1.00  0.00    -0.273 OA
BRANCH  10  13
HETATM   13  C   UNL     1       7.645   2.580  -0.987  1.00  0.00     0.127 C 
BRANCH  13  14
HETATM   14  C   UNL     1       8.822   2.846  -0.047  1.00  0.00     0.058 C 
BRANCH  14  15
HETATM   15  C   UNL     1      10.151   2.704  -0.744  1.00  0.00    -0.057 A 
HETATM   16  C   UNL     1      10.743   3.805  -1.376  1.00  0.00     0.007 A 
HETATM   17  C   UNL     1      11.969   3.669  -2.028  1.00  0.00     0.001 A 
HETATM   18  C   UNL     1      12.610   2.432  -2.061  1.00  0.00     0.000 A 
HETATM   19  C   UNL     1      12.025   1.328  -1.442  1.00  0.00     0.001 A 
HETATM   20  C   UNL     1      10.800   1.463  -0.788  1.00  0.00     0.007 A 
ENDBRANCH  14  15
ENDBRANCH  13  14
ENDBRANCH  10  13
ENDBRANCH   8   9
ENDBRANCH   7   8
ENDBRANCH   3   7
BRANCH   6  21
HETATM   21  C   UNL     1       2.964  -2.540   0.191  1.00  0.00     0.125 A 
HETATM   22  O   UNL     1       1.652  -2.912   0.054  1.00  0.00    -0.303 OA
HETATM   23  C   UNL     1       1.598  -4.275   0.026  1.00  0.00     0.119 A 
HETATM   24  C   UNL     1       2.880  -4.799   0.131  1.00  0.00     0.003 A 
HETATM   25  C   UNL     1       0.432  -5.043  -0.085  1.00  0.00     0.102 A 
HETATM   26  C   UNL     1       3.746  -3.682   0.241  1.00  0.00     0.055 A 
HETATM   27  C   UNL     1       3.044  -6.193   0.112  1.00  0.00     0.014 A 
HETATM   28  C   UNL     1       1.904  -6.997  -0.008  1.00  0.00     0.004 A 
HETATM   29  C   UNL     1       0.625  -6.433  -0.104  1.00  0.00     0.040 A 
BRANCH  25  30
HETATM   30  O   UNL     1      -0.767  -4.395  -0.172  1.00  0.00    -0.353 OA
HETATM   31  C   UNL     1      -1.936  -5.200  -0.089  1.00  0.00     0.210 C 
ENDBRANCH  25  30
ENDBRANCH   6  21
TORSDOF 8
