REMARK  5 active torsions:
REMARK  status: ('A' for Active; 'I' for Inactive)
REMARK    1  A    between atoms: C_2  and  C_3 
REMARK    2  A    between atoms: C_7  and  N_8 
REMARK    3  A    between atoms: N_8  and  C_9 
REMARK    4  A    between atoms: C_11  and  N_12 
REMARK    5  A    between atoms: C_14  and  N_15 
ROOT
HETATM    1  C   UNL     1       3.378   0.562  -7.269  1.00  0.00     0.111 A 
HETATM    2  N   UNL     1       4.670   0.452  -7.614  1.00  0.00    -0.206 NA
HETATM    3  C   UNL     1       4.959   0.160  -8.884  1.00  0.00     0.202 A 
HETATM    4  N   UNL     1       4.062  -0.056  -9.841  1.00  0.00    -0.199 NA
HETATM    5  C   UNL     1       2.765   0.038  -9.472  1.00  0.00     0.156 A 
HETATM    6  C   UNL     1       2.372   0.329  -8.181  1.00  0.00     0.096 A 
ENDROOT
BRANCH   1   7
HETATM    7  N   UNL     1       3.024   0.850  -5.949  1.00  0.00    -0.265 NA
HETATM    8  H   UNL     1       2.205   1.442  -5.885  1.00  0.00     0.130 HD
BRANCH   7   9
HETATM    9  C   UNL     1       4.094   1.223  -5.012  1.00  0.00     0.133 C 
HETATM   10  C   UNL     1       3.621   1.200  -3.582  1.00  0.00     0.142 A 
HETATM   11  N   UNL     1       3.298   2.344  -2.910  1.00  0.00    -0.253 N 
HETATM   12  N   UNL     1       3.433   0.173  -2.776  1.00  0.00    -0.215 NA
HETATM   13  N   UNL     1       2.904   2.093  -1.654  1.00  0.00    -0.155 NA
HETATM   14  C   UNL     1       3.453   3.697  -3.392  1.00  0.00     0.153 C 
HETATM   15  C   UNL     1       2.993   0.756  -1.612  1.00  0.00     0.151 A 
HETATM   16  C   UNL     1       3.690   3.746  -4.899  1.00  0.00     0.024 C 
HETATM   17  C   UNL     1       4.650   2.635  -5.340  1.00  0.00     0.029 C 
BRANCH  15  18
HETATM   18  C   UNL     1       2.661  -0.033  -0.388  1.00  0.00     0.051 C 
HETATM   19  C   UNL     1       3.901  -0.730   0.173  1.00  0.00     0.018 C 
HETATM   20  C   UNL     1       1.552  -1.049  -0.662  1.00  0.00     0.018 C 
ENDBRANCH  15  18
ENDBRANCH   7   9
ENDBRANCH   1   7
BRANCH   3  21
HETATM   21  N   UNL     1       6.291   0.038  -9.220  1.00  0.00    -0.271 NA
HETATM   22  H   UNL     1       6.823  -0.207  -8.396  1.00  0.00     0.127 HD
HETATM   23  H   UNL     1       6.385  -0.572 -10.021  1.00  0.00     0.127 HD
ENDBRANCH   3  21
BRANCH   5  24
HETATM   24  N   UNL     1       1.767  -0.155 -10.470  1.00  0.00    -0.227 N 
HETATM   25  N   UNL     1       0.435  -0.058 -10.199  1.00  0.00    -0.179 NA
HETATM   26  C   UNL     1      -0.159  -0.282 -11.373  1.00  0.00     0.141 A 
HETATM   27  C   UNL     1       0.758  -0.519 -12.408  1.00  0.00     0.040 A 
HETATM   28  C   UNL     1       1.988  -0.432 -11.804  1.00  0.00     0.122 A 
ENDBRANCH   5  24
TORSDOF 5
