REMARK  6 active torsions:
REMARK  status: ('A' for Active; 'I' for Inactive)
REMARK    1  A    between atoms: C_6  and  N_7 
REMARK    2  A    between atoms: N_7  and  C_8 
REMARK    3  A    between atoms: C_8  and  N_9 
REMARK    4  A    between atoms: C_12  and  C_13 
REMARK    5  A    between atoms: N_15  and  C_16 
REMARK    6  A    between atoms: C_22  and  O_23 
ROOT
HETATM    1  N   UNL     1       7.165   2.595  -0.689  1.00  0.00    -0.358 N 
HETATM    2  C   UNL     1       7.379   3.721   0.225  1.00  0.00     0.126 C 
HETATM    3  C   UNL     1       7.056   5.048  -0.452  1.00  0.00     0.031 C 
HETATM    4  C   UNL     1       5.624   5.080  -1.003  1.00  0.00     0.043 C 
HETATM    5  C   UNL     1       5.358   3.844  -1.876  1.00  0.00     0.031 C 
HETATM    6  C   UNL     1       5.801   2.531  -1.231  1.00  0.00     0.126 C 
ENDROOT
BRANCH   4   7
HETATM    7  C   UNL     1       4.610   5.311   0.088  1.00  0.00     0.063 C 
HETATM    8  N   UNL     1       3.995   4.299   0.706  1.00  0.00    -0.169 NA
HETATM    9  N   UNL     1       3.139   4.883   1.590  1.00  0.00    -0.211 N 
HETATM   10  C   UNL     1       3.370   6.258   1.665  1.00  0.00     0.165 C 
HETATM   11  C   UNL     1       4.232   6.555   0.637  1.00  0.00     0.087 C 
BRANCH   9  12
HETATM   12  C   UNL     1       2.179   4.090   2.282  1.00  0.00     0.061 A 
HETATM   13  C   UNL     1       2.342   2.696   2.317  1.00  0.00     0.031 A 
HETATM   14  C   UNL     1       1.418   1.895   2.993  1.00  0.00     0.002 A 
HETATM   15  C   UNL     1       0.320   2.475   3.623  1.00  0.00     0.000 A 
HETATM   16  C   UNL     1       0.135   3.856   3.569  1.00  0.00     0.002 A 
HETATM   17  C   UNL     1       1.057   4.664   2.896  1.00  0.00     0.031 A 
ENDBRANCH   9  12
BRANCH  10  18
HETATM   18  O   UNL     1       2.873   7.083   2.587  1.00  0.00    -0.345 OA
HETATM   19  H   UNL     1       2.719   6.574   3.404  1.00  0.00     0.219 HD
ENDBRANCH  10  18
ENDBRANCH   4   7
BRANCH   1  20
HETATM   20  C   UNL     1       7.798   1.380  -0.454  1.00  0.00     0.174 C 
HETATM   21  S   UNL     1       8.304   0.829   1.053  1.00  0.00    -0.041 SA
BRANCH  20  22
HETATM   22  N   UNL     1       7.978   0.519  -1.501  1.00  0.00    -0.333 N 
HETATM   23  H   UNL     1       8.213  -0.418  -1.192  1.00  0.00     0.168 HD
BRANCH  22  24
HETATM   24  C   UNL     1       8.162   0.755  -2.881  1.00  0.00     0.034 A 
HETATM   25  C   UNL     1       8.281  -0.371  -3.706  1.00  0.00     0.036 A 
HETATM   26  C   UNL     1       8.512  -0.250  -5.089  1.00  0.00    -0.054 A 
HETATM   27  C   UNL     1       8.652   1.032  -5.651  1.00  0.00    -0.056 A 
HETATM   28  C   UNL     1       8.648  -1.495  -5.922  1.00  0.00     0.049 C 
HETATM   29  C   UNL     1       8.900   1.227  -7.122  1.00  0.00     0.049 C 
HETATM   30  C   UNL     1       8.535   2.155  -4.821  1.00  0.00     0.009 A 
HETATM   31  C   UNL     1       8.304   2.017  -3.448  1.00  0.00     0.030 A 
ENDBRANCH  22  24
ENDBRANCH  20  22
ENDBRANCH   1  20
TORSDOF 6
