REMARK  8 active torsions:
REMARK  status: ('A' for Active; 'I' for Inactive)
REMARK    1  A    between atoms: C_5  and  C_6 
REMARK    2  A    between atoms: C_6  and  N_7 
REMARK       I    between atoms: N_7  and  C_8 
REMARK    3  A    between atoms: C_8  and  C_9 
REMARK    4  A    between atoms: C_9  and  S_10 
REMARK    5  A    between atoms: S_10  and  C_11 
REMARK    6  A    between atoms: C_13  and  N_14 
REMARK    7  A    between atoms: C_15  and  N_16 
REMARK       I    between atoms: N_16  and  C_17 
REMARK    8  A    between atoms: C_17  and  C_18 
ROOT
HETATM    1  C   UNL     1       7.603   1.777  -0.208  1.00  0.00     0.171 C 
HETATM    2  N   UNL     1       6.995   0.976   0.595  1.00  0.00    -0.210 NA
HETATM    3  C   UNL     1       6.342   1.528   1.667  1.00  0.00     0.136 C 
HETATM    4  C   UNL     1       6.397   2.850   1.961  1.00  0.00     0.144 C 
HETATM    5  C   UNL     1       7.372   3.657   1.166  1.00  0.00     0.277 C 
HETATM    6  O   UNL     1       7.958   4.644   1.594  1.00  0.00    -0.266 OA
HETATM    7  N   UNL     1       7.704   3.115  -0.038  1.00  0.00    -0.300 N 
HETATM    8  H   UNL     1       8.362   3.628  -0.604  1.00  0.00     0.171 HD
ENDROOT
BRANCH   1   9
HETATM    9  S   UNL     1       8.372   1.214  -1.657  1.00  0.00    -0.083 SA
BRANCH   9  10
HETATM   10  C   UNL     1       9.373  -0.137  -0.978  1.00  0.00     0.185 C 
BRANCH  10  11
HETATM   11  C   UNL     1       8.578  -1.320  -0.449  1.00  0.00     0.227 C 
HETATM   12  N   UNL     1       7.421  -1.633  -1.126  1.00  0.00    -0.356 N 
HETATM   13  H   UNL     1       6.986  -0.880  -1.648  1.00  0.00     0.162 HD
HETATM   14  O   UNL     1       9.008  -2.007   0.477  1.00  0.00    -0.273 OA
BRANCH  12  15
HETATM   15  C   UNL     1       6.549  -2.661  -0.607  1.00  0.00     0.161 C 
BRANCH  15  16
HETATM   16  C   UNL     1       5.440  -3.003  -1.565  1.00  0.00    -0.041 A 
HETATM   17  C   UNL     1       5.728  -3.436  -2.866  1.00  0.00     0.009 A 
HETATM   18  C   UNL     1       4.701  -3.808  -3.737  1.00  0.00     0.007 A 
HETATM   19  C   UNL     1       3.366  -3.753  -3.324  1.00  0.00    -0.062 A 
HETATM   20  C   UNL     1       2.260  -4.198  -4.234  1.00  0.00     0.048 C 
HETATM   21  C   UNL     1       3.075  -3.327  -2.023  1.00  0.00     0.007 A 
HETATM   22  C   UNL     1       4.102  -2.952  -1.153  1.00  0.00     0.009 A 
ENDBRANCH  15  16
ENDBRANCH  12  15
ENDBRANCH  10  11
ENDBRANCH   9  10
ENDBRANCH   1   9
BRANCH   3  23
HETATM   23  N   UNL     1       5.562   0.669   2.433  1.00  0.00    -0.285 NA
HETATM   24  H   UNL     1       5.735  -0.274   2.084  1.00  0.00     0.125 HD
HETATM   25  H   UNL     1       5.859   0.701   3.407  1.00  0.00     0.125 HD
ENDBRANCH   3  23
BRANCH   4  26
HETATM   26  N   UNL     1       5.590   3.381   2.946  1.00  0.00    -0.314 N 
HETATM   27  C   UNL     1       5.221   4.702   3.104  1.00  0.00     0.280 C 
HETATM   28  O   UNL     1       5.580   5.626   2.385  1.00  0.00    -0.265 OA
HETATM   29  H   UNL     1       5.012   2.711   3.445  1.00  0.00     0.169 HD
BRANCH  27  30
HETATM   30  C   UNL     1       4.264   4.893   4.179  1.00  0.00     0.144 A 
HETATM   31  O   UNL     1       3.779   3.801   4.852  1.00  0.00    -0.298 OA
HETATM   32  C   UNL     1       2.875   4.259   5.760  1.00  0.00     0.122 A 
HETATM   33 BR   UNL     1       1.906   3.160   6.914  1.00  0.00    -0.023 Br
HETATM   34  C   UNL     1       2.778   5.629   5.694  1.00  0.00     0.048 A 
HETATM   35  C   UNL     1       3.673   6.040   4.676  1.00  0.00     0.046 A 
ENDBRANCH  27  30
ENDBRANCH   4  26
TORSDOF 8
