REMARK  8 active torsions:
REMARK  status: ('A' for Active; 'I' for Inactive)
REMARK    1  A    between atoms: C_5  and  S_6 
REMARK    2  A    between atoms: S_6  and  C_7 
REMARK    3  A    between atoms: C_7  and  C_8 
REMARK       I    between atoms: C_8  and  N_9 
REMARK    4  A    between atoms: N_9  and  C_10 
REMARK    5  A    between atoms: C_10  and  C_11 
REMARK    6  A    between atoms: C_11  and  C_12 
REMARK    7  A    between atoms: C_14  and  O_15 
REMARK    8  A    between atoms: C_17  and  O_18 
ROOT
HETATM    1  C   UNL     1       6.342  -5.027   0.095  1.00  0.00     0.185 C 
ENDROOT
BRANCH   1   2
HETATM    2  S   UNL     1       6.023  -4.361  -1.565  1.00  0.00    -0.080 SA
BRANCH   2   3
HETATM    3  C   UNL     1       4.511  -3.557  -1.308  1.00  0.00     0.197 A 
HETATM    4  N   UNL     1       3.751  -2.877  -2.246  1.00  0.00    -0.271 N 
HETATM    5  C   UNL     1       2.605  -2.517  -1.538  1.00  0.00     0.165 A 
HETATM    6  C   UNL     1       3.938  -2.542  -3.618  1.00  0.00     0.053 A 
HETATM    7  C   UNL     1       1.527  -1.836  -2.181  1.00  0.00    -0.013 A 
HETATM    8  N   UNL     1       2.715  -2.896  -0.281  1.00  0.00    -0.128 NA
HETATM    9  C   UNL     1       0.261  -1.465  -1.449  1.00  0.00     0.052 C 
HETATM   10  C   UNL     1       1.659  -1.528  -3.486  1.00  0.00     0.024 A 
HETATM   11  C   UNL     1       2.872  -1.862  -4.240  1.00  0.00    -0.008 A 
HETATM   12  C   UNL     1       2.968  -1.495  -5.589  1.00  0.00     0.014 A 
HETATM   13  C   UNL     1       4.119  -1.791  -6.316  1.00  0.00     0.001 A 
HETATM   14  C   UNL     1       5.177  -2.452  -5.698  1.00  0.00     0.002 A 
HETATM   15  C   UNL     1       5.092  -2.827  -4.353  1.00  0.00     0.031 A 
HETATM   16  N   UNL     1       3.907  -3.544  -0.139  1.00  0.00    -0.122 NA
ENDBRANCH   2   3
ENDBRANCH   1   2
BRANCH   1  17
HETATM   17  C   UNL     1       7.731  -5.636   0.144  1.00  0.00     0.227 C 
HETATM   18  N   UNL     1       8.815  -4.832   0.386  1.00  0.00    -0.360 N 
HETATM   19  H   UNL     1       9.684  -5.349   0.309  1.00  0.00     0.162 HD
HETATM   20  O   UNL     1       7.920  -6.844  -0.007  1.00  0.00    -0.273 OA
BRANCH  18  21
HETATM   21  C   UNL     1       8.873  -3.387   0.243  1.00  0.00     0.127 C 
BRANCH  21  22
HETATM   22  C   UNL     1      10.017  -2.774   1.052  1.00  0.00     0.058 C 
BRANCH  22  23
HETATM   23  C   UNL     1      10.066  -1.275   0.880  1.00  0.00    -0.054 A 
HETATM   24  C   UNL     1       9.099  -0.462   1.492  1.00  0.00     0.046 A 
HETATM   25  C   UNL     1       9.101   0.925   1.300  1.00  0.00     0.102 A 
HETATM   26  C   UNL     1      10.101   1.517   0.505  1.00  0.00     0.101 A 
HETATM   27  C   UNL     1      11.070   0.707  -0.096  1.00  0.00     0.040 A 
HETATM   28  C   UNL     1      11.049  -0.680   0.086  1.00  0.00     0.010 A 
BRANCH  25  29
HETATM   29  O   UNL     1       8.181   1.780   1.856  1.00  0.00    -0.353 OA
HETATM   30  C   UNL     1       7.003   1.203   2.404  1.00  0.00     0.210 C 
ENDBRANCH  25  29
BRANCH  26  31
HETATM   31  O   UNL     1      10.038   2.881   0.372  1.00  0.00    -0.353 OA
HETATM   32  C   UNL     1      11.009   3.509  -0.452  1.00  0.00     0.210 C 
ENDBRANCH  26  31
ENDBRANCH  22  23
ENDBRANCH  21  22
ENDBRANCH  18  21
ENDBRANCH   1  17
TORSDOF 8
