REMARK  6 active torsions:
REMARK  status: ('A' for Active; 'I' for Inactive)
REMARK    1  A    between atoms: C_2  and  C_3 
REMARK    2  A    between atoms: C_7  and  C_8 
REMARK       I    between atoms: C_8  and  N_9 
REMARK    3  A    between atoms: N_9  and  C_10 
REMARK    4  A    between atoms: C_10  and  C_11 
REMARK    5  A    between atoms: C_10  and  C_19 
REMARK    6  A    between atoms: C_14  and  O_15 
ROOT
HETATM    1  C   UNL     1       3.046  -4.307   2.338  1.00  0.00     0.151 C 
ENDROOT
BRANCH   1   2
HETATM    2  N   UNL     1       3.125  -3.895   3.728  1.00  0.00    -0.343 N 
HETATM    3  C   UNL     1       2.587  -2.717   4.175  1.00  0.00     0.270 C 
HETATM    4  O   UNL     1       2.038  -1.906   3.435  1.00  0.00    -0.266 OA
HETATM    5  H   UNL     1       3.752  -4.407   4.328  1.00  0.00     0.163 HD
BRANCH   3   6
HETATM    6  C   UNL     1       2.688  -2.509   5.594  1.00  0.00     0.119 A 
HETATM    7  N   UNL     1       2.312  -1.330   6.179  1.00  0.00    -0.273 N 
HETATM    8  N   UNL     1       2.406  -1.327   7.519  1.00  0.00    -0.179 NA
HETATM    9  H   UNL     1       1.964  -0.501   5.707  1.00  0.00     0.189 HD
HETATM   10  C   UNL     1       2.852  -2.552   7.814  1.00  0.00     0.056 A 
HETATM   11  C   UNL     1       3.069  -3.321   6.646  1.00  0.00     0.065 A 
BRANCH  10  12
HETATM   12  C   UNL     1       3.034  -2.973   9.233  1.00  0.00     0.056 C 
HETATM   13  C   UNL     1       1.827  -3.734   9.763  1.00  0.00     0.011 C 
ENDBRANCH  10  12
ENDBRANCH   3   6
ENDBRANCH   1   2
BRANCH   1  14
HETATM   14  C   UNL     1       4.288  -3.808   1.604  1.00  0.00    -0.031 A 
HETATM   15  C   UNL     1       5.554  -4.367   1.832  1.00  0.00     0.012 A 
HETATM   16  C   UNL     1       6.668  -3.912   1.121  1.00  0.00     0.037 A 
HETATM   17  C   UNL     1       6.544  -2.892   0.175  1.00  0.00     0.068 A 
HETATM   18  C   UNL     1       5.295  -2.309  -0.036  1.00  0.00     0.037 A 
HETATM   19  C   UNL     1       4.178  -2.760   0.676  1.00  0.00     0.012 A 
BRANCH  17  20
HETATM   20  O   UNL     1       7.706  -2.556  -0.463  1.00  0.00    -0.356 OA
HETATM   21  C   UNL     1       7.598  -1.642  -1.547  1.00  0.00     0.210 C 
ENDBRANCH  17  20
ENDBRANCH   1  14
BRANCH   1  22
HETATM   22  C   UNL     1       2.801  -5.815   2.201  1.00  0.00    -0.031 A 
HETATM   23  C   UNL     1       2.326  -6.593   3.272  1.00  0.00     0.009 A 
HETATM   24  C   UNL     1       2.080  -7.961   3.118  1.00  0.00     0.001 A 
HETATM   25  C   UNL     1       2.284  -8.572   1.885  1.00  0.00     0.000 A 
HETATM   26  C   UNL     1       2.721  -7.816   0.801  1.00  0.00     0.001 A 
HETATM   27  C   UNL     1       2.968  -6.449   0.955  1.00  0.00     0.009 A 
ENDBRANCH   1  22
TORSDOF 6
