REMARK  5 active torsions:
REMARK  status: ('A' for Active; 'I' for Inactive)
REMARK    1  A    between atoms: C_8  and  N_9 
REMARK       I    between atoms: N_9  and  C_10 
REMARK       I    between atoms: C_10  and  N_11 
REMARK    2  A    between atoms: N_11  and  C_12 
REMARK    3  A    between atoms: C_13  and  O_14 
REMARK    4  A    between atoms: O_14  and  C_15 
REMARK    5  A    between atoms: C_15  and  C_16 
ROOT
HETATM    1  N   UNL     1       1.119  -3.864   0.272  1.00  0.00    -0.305 N 
HETATM    2  C   UNL     1       1.470  -2.573  -0.076  1.00  0.00     0.325 C 
HETATM    3  N   UNL     1       0.448  -1.977  -0.792  1.00  0.00    -0.306 N 
HETATM    4  O   UNL     1       2.526  -2.026   0.215  1.00  0.00    -0.247 OA
HETATM    5  H   UNL     1       0.135  -4.015   0.436  1.00  0.00     0.171 HD
HETATM    6  H   UNL     1      -0.135  -2.604  -1.332  1.00  0.00     0.171 HD
ENDROOT
BRANCH   3   7
HETATM    7  C   UNL     1       0.338  -0.610  -1.122  1.00  0.00     0.070 A 
HETATM    8  C   UNL     1      -0.512  -0.258  -2.185  1.00  0.00     0.098 A 
HETATM    9  C   UNL     1      -0.727   1.078  -2.521  1.00  0.00     0.081 A 
HETATM   10  C   UNL     1      -0.060   2.065  -1.807  1.00  0.00     0.119 A 
HETATM   11  F   UNL     1      -0.256   3.351  -2.124  1.00  0.00    -0.206 F 
HETATM   12  C   UNL     1       0.805   1.740  -0.768  1.00  0.00     0.044 A 
HETATM   13  C   UNL     1       1.003   0.400  -0.421  1.00  0.00     0.035 A 
BRANCH   8  14
HETATM   14  O   UNL     1      -1.145  -1.266  -2.873  1.00  0.00    -0.340 OA
BRANCH  14  15
HETATM   15  C   UNL     1      -0.693  -1.320  -4.241  1.00  0.00     0.293 C 
BRANCH  15  16
HETATM   16  C   UNL     1      -0.877  -2.723  -4.796  1.00  0.00     0.408 C 
HETATM   17  F   UNL     1      -0.223  -3.638  -4.044  1.00  0.00    -0.169 F 
HETATM   18  F   UNL     1      -2.180  -3.076  -4.838  1.00  0.00    -0.169 F 
HETATM   19  F   UNL     1      -0.391  -2.807  -6.056  1.00  0.00    -0.169 F 
ENDBRANCH  15  16
ENDBRANCH  14  15
ENDBRANCH   8  14
ENDBRANCH   3   7
BRANCH   1  20
HETATM   20  C   UNL     1       1.982  -4.804   0.809  1.00  0.00     0.086 A 
HETATM   21  C   UNL     1       1.550  -5.867   1.577  1.00  0.00     0.052 A 
HETATM   22  C   UNL     1       0.212  -6.276   2.059  1.00  0.00     0.072 C 
HETATM   23  N   UNL     1       2.679  -6.562   1.911  1.00  0.00    -0.280 N 
HETATM   24  H   UNL     1       2.755  -7.394   2.486  1.00  0.00     0.189 HD
HETATM   25  N   UNL     1       3.802  -6.058   1.388  1.00  0.00    -0.177 NA
HETATM   26  C   UNL     1       3.392  -4.979   0.705  1.00  0.00     0.079 A 
HETATM   27  C   UNL     1       4.392  -4.205  -0.073  1.00  0.00     0.075 C 
ENDBRANCH   1  20
TORSDOF 5
