REMARK  2 active torsions:
REMARK  status: ('A' for Active; 'I' for Inactive)
REMARK    1  A    between atoms: C_2  and  C_3 
REMARK    2  A    between atoms: C_4  and  N_5 
ROOT
HETATM    1  N   UNL     1       2.697   2.993  -0.963  1.00  0.00    -0.321 N 
HETATM    2  C   UNL     1       3.077   3.295   0.372  1.00  0.00     0.141 C 
HETATM    3  N   UNL     1       4.086   2.724   0.963  1.00  0.00    -0.380 N 
HETATM    4  H   UNL     1       4.322   2.983   1.910  1.00  0.00     0.158 HD
HETATM    5  H   UNL     1       4.633   2.046   0.452  1.00  0.00     0.158 HD
HETATM    6  S   UNL     1       2.096   4.499   1.100  1.00  0.00    -0.086 SA
HETATM    7  C   UNL     1       0.894   4.443  -0.301  1.00  0.00     0.093 C 
HETATM    8  C   UNL     1       1.713   3.948  -1.519  1.00  0.00     0.121 C 
HETATM    9  C   UNL     1       0.255   5.771  -0.643  1.00  0.00     0.158 C 
HETATM   10  S   UNL     1       1.303   6.529  -1.860  1.00  0.00     0.147 S 
HETATM   11  O   UNL     1       2.046   7.602  -1.237  1.00  0.00    -0.228 OA
HETATM   12  O   UNL     1       0.529   6.716  -3.068  1.00  0.00    -0.228 OA
HETATM   13  C   UNL     1       2.407   5.167  -2.126  1.00  0.00     0.167 C 
ENDROOT
BRANCH   1  14
HETATM   14  C   UNL     1       3.075   1.895  -1.755  1.00  0.00     0.043 A 
HETATM   15  C   UNL     1       2.924   0.553  -1.322  1.00  0.00    -0.028 A 
HETATM   16  C   UNL     1       3.376  -0.488  -2.165  1.00  0.00     0.010 A 
HETATM   17  C   UNL     1       3.944  -0.226  -3.409  1.00  0.00     0.001 A 
HETATM   18  C   UNL     1       4.074   1.083  -3.840  1.00  0.00     0.002 A 
HETATM   19  C   UNL     1       3.646   2.128  -3.021  1.00  0.00     0.030 A 
BRANCH  15  20
HETATM   20  C   UNL     1       2.219   0.164  -0.023  1.00  0.00     0.013 C 
HETATM   21  C   UNL     1       3.140  -0.625   0.915  1.00  0.00     0.015 C 
HETATM   22  C   UNL     1       0.932  -0.624  -0.294  1.00  0.00     0.015 C 
ENDBRANCH  15  20
ENDBRANCH   1  14
TORSDOF 2
