REMARK  3 active torsions:
REMARK  status: ('A' for Active; 'I' for Inactive)
REMARK    1  A    between atoms: C_6  and  C_7 
REMARK    2  A    between atoms: C_7  and  N_8 
REMARK    3  A    between atoms: C_12  and  C_13 
ROOT
HETATM    1  N   UNL     1       6.873   2.249  -0.070  1.00  0.00    -0.066 N 
HETATM    2  H   UNL     1       6.046   2.420  -0.656  1.00  0.00     0.280 HD
HETATM    3  C   UNL     1       6.436   2.392   1.372  1.00  0.00     0.236 C 
HETATM    4  C   UNL     1       5.961   3.819   1.633  1.00  0.00     0.037 C 
HETATM    5  C   UNL     1       7.054   4.859   1.308  1.00  0.00     0.024 C 
HETATM    6  C   UNL     1       7.408   4.669  -0.171  1.00  0.00     0.037 C 
HETATM    7  C   UNL     1       7.921   3.266  -0.459  1.00  0.00     0.236 C 
ENDROOT
BRANCH   1   8
HETATM    8  C   UNL     1       7.342   0.846  -0.397  1.00  0.00     0.293 C 
BRANCH   8   9
HETATM    9  C   UNL     1       6.247  -0.142  -0.363  1.00  0.00     0.061 A 
HETATM   10  N   UNL     1       6.233  -1.287   0.419  1.00  0.00    -0.308 N 
HETATM   11  C   UNL     1       5.034  -1.939   0.139  1.00  0.00     0.134 A 
HETATM   12  C   UNL     1       7.165  -1.782   1.334  1.00  0.00     0.099 A 
HETATM   13  C   UNL     1       4.772  -3.160   0.820  1.00  0.00     0.057 A 
HETATM   14  N   UNL     1       4.327  -1.283  -0.753  1.00  0.00    -0.241 NA
HETATM   15  C   UNL     1       5.667  -3.653   1.703  1.00  0.00    -0.057 A 
HETATM   16  C   UNL     1       5.452  -4.945   2.436  1.00  0.00     0.048 C 
HETATM   17  C   UNL     1       6.911  -2.936   1.974  1.00  0.00     0.024 A 
HETATM   18  C   UNL     1       5.076  -0.197  -1.094  1.00  0.00     0.146 A 
ENDBRANCH   8   9
ENDBRANCH   1   8
BRANCH   5  19
HETATM   19  C   UNL     1       8.228   4.794   2.277  1.00  0.00    -0.024 A 
HETATM   20  C   UNL     1       9.626   5.102   2.068  1.00  0.00     0.018 A 
HETATM   21  C   UNL     1      10.286   4.841   3.268  1.00  0.00     0.138 A 
HETATM   22  C   UNL     1      10.442   5.572   1.019  1.00  0.00     0.017 A 
HETATM   23  N   UNL     1      11.599   4.938   3.535  1.00  0.00    -0.242 NA
HETATM   24  N   UNL     1       9.360   4.479   4.198  1.00  0.00    -0.350 N 
HETATM   25  C   UNL     1      12.327   5.377   2.491  1.00  0.00     0.119 A 
HETATM   26  C   UNL     1      11.815   5.705   1.246  1.00  0.00     0.020 A 
HETATM   27  H   UNL     1       9.587   4.290   5.164  1.00  0.00     0.166 HD
HETATM   28  C   UNL     1       8.118   4.457   3.622  1.00  0.00     0.098 A 
ENDBRANCH   5  19
TORSDOF 3
