REMARK  6 active torsions:
REMARK  status: ('A' for Active; 'I' for Inactive)
REMARK    1  A    between atoms: C_2  and  C_3 
REMARK    2  A    between atoms: C_3  and  C_4 
REMARK    3  A    between atoms: C_4  and  N_5 
REMARK       I    between atoms: N_5  and  C_6 
REMARK       I    between atoms: C_6  and  N_7 
REMARK    4  A    between atoms: N_7  and  C_8 
REMARK    5  A    between atoms: N_11  and  C_12 
REMARK    6  A    between atoms: C_15  and  O_16 
ROOT
HETATM    1  C   UNL     1       6.158  -0.736  -0.031  1.00  0.00     0.123 C 
HETATM    2  C   UNL     1       6.185  -0.054   1.288  1.00  0.00     0.009 A 
HETATM    3  C   UNL     1       6.904   1.094   1.573  1.00  0.00     0.047 A 
HETATM    4  N   UNL     1       6.510   1.499   2.847  1.00  0.00    -0.238 N 
HETATM    5  N   UNL     1       5.676   0.568   3.400  1.00  0.00    -0.179 NA
HETATM    6  C   UNL     1       5.477  -0.344   2.456  1.00  0.00     0.150 A 
HETATM    7  C   UNL     1       7.857   1.753   0.631  1.00  0.00     0.069 C 
HETATM    8  C   UNL     1       7.785   1.169  -0.820  1.00  0.00    -0.040 C 
HETATM    9  C   UNL     1       9.175   1.324  -1.477  1.00  0.00     0.015 C 
HETATM   10  C   UNL     1       6.788   1.997  -1.657  1.00  0.00     0.015 C 
HETATM   11  C   UNL     1       7.405  -0.347  -0.851  1.00  0.00     0.039 C 
ENDROOT
BRANCH   1  12
HETATM   12  N   UNL     1       4.907  -0.343  -0.655  1.00  0.00    -0.334 N 
HETATM   13  C   UNL     1       4.153  -0.927  -1.608  1.00  0.00     0.316 C 
HETATM   14  N   UNL     1       4.676  -2.014  -2.234  1.00  0.00    -0.343 N 
HETATM   15  O   UNL     1       3.054  -0.450  -1.867  1.00  0.00    -0.247 OA
HETATM   16  H   UNL     1       5.450  -2.476  -1.788  1.00  0.00     0.164 HD
HETATM   17  H   UNL     1       4.440   0.473  -0.276  1.00  0.00     0.165 HD
BRANCH  14  18
HETATM   18  C   UNL     1       3.875  -2.818  -3.136  1.00  0.00     0.124 C 
BRANCH  18  19
HETATM   19  C   UNL     1       3.418  -2.122  -4.422  1.00  0.00     0.019 C 
BRANCH  19  20
HETATM   20  C   UNL     1       4.528  -1.834  -5.435  1.00  0.00    -0.003 C 
HETATM   21  C   UNL     1       5.453  -0.696  -5.036  1.00  0.00     0.005 C 
ENDBRANCH  19  20
ENDBRANCH  18  19
ENDBRANCH  14  18
ENDBRANCH   1  12
BRANCH   4  22
HETATM   22  C   UNL     1       6.768   2.700   3.580  1.00  0.00     0.058 A 
HETATM   23  C   UNL     1       5.962   2.986   4.696  1.00  0.00     0.034 A 
HETATM   24  C   UNL     1       6.094   4.194   5.386  1.00  0.00     0.039 A 
HETATM   25  C   UNL     1       7.034   5.138   4.983  1.00  0.00     0.068 A 
HETATM   26  C   UNL     1       7.879   4.839   3.916  1.00  0.00     0.039 A 
HETATM   27  C   UNL     1       7.751   3.625   3.220  1.00  0.00     0.034 A 
BRANCH  25  28
HETATM   28  O   UNL     1       7.041   6.293   5.713  1.00  0.00    -0.356 OA
HETATM   29  C   UNL     1       7.720   7.402   5.136  1.00  0.00     0.210 C 
ENDBRANCH  25  28
ENDBRANCH   4  22
TORSDOF 6
