REMARK  10 active torsions:
REMARK  status: ('A' for Active; 'I' for Inactive)
REMARK    1  A    between atoms: O_2  and  C_3 
REMARK    2  A    between atoms: C_6  and  N_7 
REMARK    3  A    between atoms: N_7  and  C_8 
REMARK    4  A    between atoms: C_8  and  N_9 
REMARK    5  A    between atoms: N_9  and  N_10 
REMARK       I    between atoms: N_10  and  C_11 
REMARK    6  A    between atoms: C_11  and  C_12 
REMARK    7  A    between atoms: C_12  and  S_13 
REMARK    8  A    between atoms: S_13  and  C_14 
REMARK    9  A    between atoms: C_14  and  C_15 
REMARK       I    between atoms: C_15  and  N_16 
REMARK   10  A    between atoms: N_16  and  C_17 
ROOT
HETATM    1  N   UNL     1       3.244  -5.498   0.302  1.00  0.00    -0.267 N 
HETATM    2  C   UNL     1       2.677  -5.473   1.547  1.00  0.00     0.245 C 
HETATM    3  O   UNL     1       2.649  -4.411   2.172  1.00  0.00    -0.271 OA
HETATM    4  H   UNL     1       3.608  -4.619  -0.062  1.00  0.00     0.190 HD
ENDROOT
BRANCH   1   5
HETATM    5  N   UNL     1       3.410  -6.633  -0.487  1.00  0.00    -0.274 N 
HETATM    6  H   UNL     1       3.433  -7.543  -0.030  1.00  0.00     0.189 HD
BRANCH   5   7
HETATM    7  C   UNL     1       3.489  -6.553  -1.854  1.00  0.00     0.191 C 
HETATM    8  S   UNL     1       3.068  -5.206  -2.755  1.00  0.00    -0.039 SA
BRANCH   7   9
HETATM    9  N   UNL     1       3.894  -7.675  -2.521  1.00  0.00    -0.332 N 
HETATM   10  H   UNL     1       3.670  -7.654  -3.512  1.00  0.00     0.168 HD
BRANCH   9  11
HETATM   11  C   UNL     1       4.718  -8.743  -2.109  1.00  0.00     0.034 A 
HETATM   12  C   UNL     1       4.775  -9.864  -2.940  1.00  0.00     0.032 A 
HETATM   13  C   UNL     1       5.602 -10.944  -2.618  1.00  0.00     0.039 A 
HETATM   14  C   UNL     1       6.405 -10.912  -1.477  1.00  0.00     0.068 A 
HETATM   15  C   UNL     1       6.368  -9.786  -0.657  1.00  0.00     0.039 A 
HETATM   16  C   UNL     1       5.536  -8.704  -0.977  1.00  0.00     0.032 A 
BRANCH  14  17
HETATM   17  O   UNL     1       7.175 -12.024  -1.286  1.00  0.00    -0.356 OA
HETATM   18  C   UNL     1       8.121 -11.978  -0.224  1.00  0.00     0.210 C 
ENDBRANCH  14  17
ENDBRANCH   9  11
ENDBRANCH   7   9
ENDBRANCH   5   7
ENDBRANCH   1   5
BRANCH   2  19
HETATM   19  C   UNL     1       2.027  -6.718   2.117  1.00  0.00     0.178 C 
BRANCH  19  20
HETATM   20  S   UNL     1       3.086  -8.198   2.250  1.00  0.00    -0.150 SA
BRANCH  20  21
HETATM   21  C   UNL     1       4.652  -7.489   2.851  1.00  0.00     0.177 C 
BRANCH  21  22
HETATM   22  C   UNL     1       4.577  -6.794   4.199  1.00  0.00     0.231 C 
HETATM   23  N   UNL     1       3.786  -7.441   5.130  1.00  0.00    -0.327 N 
HETATM   24  H   UNL     1       3.258  -8.238   4.791  1.00  0.00     0.169 HD
HETATM   25  O   UNL     1       5.273  -5.801   4.399  1.00  0.00    -0.272 OA
BRANCH  23  26
HETATM   26  C   UNL     1       3.627  -7.111   6.492  1.00  0.00     0.034 A 
HETATM   27  C   UNL     1       4.285  -6.052   7.121  1.00  0.00     0.029 A 
HETATM   28  C   UNL     1       4.094  -5.802   8.483  1.00  0.00     0.002 A 
HETATM   29  C   UNL     1       3.240  -6.608   9.230  1.00  0.00     0.000 A 
HETATM   30  C   UNL     1       2.572  -7.662   8.614  1.00  0.00     0.002 A 
HETATM   31  C   UNL     1       2.764  -7.913   7.251  1.00  0.00     0.029 A 
ENDBRANCH  23  26
ENDBRANCH  21  22
ENDBRANCH  20  21
ENDBRANCH  19  20
ENDBRANCH   2  19
TORSDOF 10
