REMARK  3 active torsions:
REMARK  status: ('A' for Active; 'I' for Inactive)
REMARK    1  A    between atoms: C_9  and  C_10 
REMARK       I    between atoms: C_10  and  N_11 
REMARK    2  A    between atoms: N_11  and  C_12 
REMARK    3  A    between atoms: C_14  and  C_15 
ROOT
HETATM    1  C   UNL     1       5.202  -4.731  -0.166  1.00  0.00     0.252 C 
HETATM    2  N   UNL     1       6.477  -4.717   0.380  1.00  0.00    -0.325 N 
HETATM    3  O   UNL     1       4.746  -5.590  -0.915  1.00  0.00    -0.270 OA
HETATM    4  H   UNL     1       6.746  -3.850   0.836  1.00  0.00     0.169 HD
ENDROOT
BRANCH   2   5
HETATM    5  C   UNL     1       7.449  -5.736   0.302  1.00  0.00     0.035 A 
HETATM    6  C   UNL     1       7.190  -7.010  -0.216  1.00  0.00     0.042 A 
HETATM    7  C   UNL     1       8.178  -8.009  -0.243  1.00  0.00    -0.021 A 
HETATM    8  C   UNL     1       9.449  -7.703   0.259  1.00  0.00     0.012 A 
HETATM    9  C   UNL     1       9.718  -6.436   0.783  1.00  0.00     0.003 A 
HETATM   10  C   UNL     1       8.721  -5.459   0.808  1.00  0.00     0.029 A 
BRANCH   7  11
HETATM   11  C   UNL     1       7.862  -9.327  -0.782  1.00  0.00     0.010 A 
HETATM   12  C   UNL     1       6.772  -9.762  -1.578  1.00  0.00     0.152 A 
HETATM   13  N   UNL     1       6.819 -11.067  -1.859  1.00  0.00    -0.187 NA
HETATM   14  N   UNL     1       7.937 -11.478  -1.243  1.00  0.00    -0.289 N 
HETATM   15  H   UNL     1       8.188 -12.458  -1.311  1.00  0.00     0.188 HD
HETATM   16  C   UNL     1       8.595 -10.479  -0.585  1.00  0.00     0.123 A 
ENDBRANCH   7  11
ENDBRANCH   2   5
BRANCH   1  17
HETATM   17  C   UNL     1       4.328  -3.589   0.361  1.00  0.00     0.225 C 
HETATM   18  C   UNL     1       3.131  -3.327  -0.559  1.00  0.00     0.083 C 
HETATM   19  C   UNL     1       2.924  -1.900  -0.233  1.00  0.00    -0.021 A 
HETATM   20  C   UNL     1       4.063  -1.401   0.373  1.00  0.00     0.076 A 
HETATM   21  C   UNL     1       1.836  -1.088  -0.489  1.00  0.00     0.017 A 
HETATM   22  C   UNL     1       4.164  -0.079   0.749  1.00  0.00     0.044 A 
HETATM   23  O   UNL     1       5.046  -2.347   0.550  1.00  0.00    -0.336 OA
HETATM   24  C   UNL     1       3.062   0.768   0.530  1.00  0.00    -0.053 A 
HETATM   25  C   UNL     1       1.895   0.263  -0.105  1.00  0.00    -0.055 A 
HETATM   26  C   UNL     1       3.149   2.208   0.960  1.00  0.00     0.049 C 
HETATM   27  C   UNL     1       0.693   1.137  -0.348  1.00  0.00     0.049 C 
ENDBRANCH   1  17
TORSDOF 3
