REMARK  8 active torsions:
REMARK  status: ('A' for Active; 'I' for Inactive)
REMARK    1  A    between atoms: C_2  and  C_3 
REMARK    2  A    between atoms: C_3  and  C_4 
REMARK       I    between atoms: C_4  and  N_5 
REMARK    3  A    between atoms: N_8  and  C_9 
REMARK    4  A    between atoms: C_12  and  N_13 
REMARK    5  A    between atoms: N_13  and  C_14 
REMARK    6  A    between atoms: C_14  and  N_15 
REMARK       I    between atoms: N_15  and  C_16 
REMARK    7  A    between atoms: C_16  and  C_17 
REMARK    8  A    between atoms: C_19  and  C_20 
ROOT
HETATM    1  N   UNL     1      10.802  -6.044  -0.335  1.00  0.00    -0.333 N 
HETATM    2  H   UNL     1      10.698  -7.021  -0.608  1.00  0.00     0.168 HD
ENDROOT
BRANCH   1   3
HETATM    3  C   UNL     1       9.900  -5.131  -0.917  1.00  0.00     0.034 A 
HETATM    4  C   UNL     1      10.182  -3.773  -1.018  1.00  0.00     0.031 A 
HETATM    5  C   UNL     1       9.227  -2.888  -1.520  1.00  0.00     0.026 A 
HETATM    6  C   UNL     1       7.952  -3.319  -1.914  1.00  0.00     0.010 A 
HETATM    7  C   UNL     1       7.732  -4.704  -1.922  1.00  0.00     0.026 A 
HETATM    8  C   UNL     1       8.700  -5.604  -1.443  1.00  0.00     0.031 A 
BRANCH   6   9
HETATM    9  N   UNL     1       6.986  -2.359  -2.274  1.00  0.00    -0.280 NA
HETATM   10  C   UNL     1       6.749  -1.374  -1.185  1.00  0.00     0.115 C 
HETATM   11  C   UNL     1       5.898  -0.194  -1.680  1.00  0.00     0.140 C 
HETATM   12  N   UNL     1       4.656  -0.634  -2.322  1.00  0.00    -0.350 N 
HETATM   13  C   UNL     1       3.457   0.058  -2.302  1.00  0.00     0.219 C 
HETATM   14  C   UNL     1       4.855  -1.657  -3.358  1.00  0.00     0.140 C 
HETATM   15  O   UNL     1       2.519  -0.244  -3.045  1.00  0.00    -0.273 OA
HETATM   16  C   UNL     1       5.718  -2.838  -2.872  1.00  0.00     0.115 C 
BRANCH  13  17
HETATM   17  C   UNL     1       3.263   1.176  -1.290  1.00  0.00     0.103 C 
BRANCH  17  18
HETATM   18  C   UNL     1       2.593   0.688  -0.006  1.00  0.00     0.005 C 
HETATM   19  C   UNL     1       3.480  -0.184   0.868  1.00  0.00     0.005 C 
ENDBRANCH  17  18
ENDBRANCH  13  17
ENDBRANCH   6   9
ENDBRANCH   1   3
BRANCH   1  20
HETATM   20  C   UNL     1      11.619  -5.836   0.752  1.00  0.00     0.179 C 
HETATM   21  S   UNL     1      11.585  -4.582   1.866  1.00  0.00    -0.040 SA
BRANCH  20  22
HETATM   22  N   UNL     1      12.581  -6.790   0.974  1.00  0.00    -0.298 N 
HETATM   23  C   UNL     1      12.957  -7.905   0.237  1.00  0.00     0.281 C 
HETATM   24  O   UNL     1      12.257  -8.410  -0.637  1.00  0.00    -0.265 OA
HETATM   25  H   UNL     1      13.213  -6.550   1.730  1.00  0.00     0.171 HD
BRANCH  23  26
HETATM   26  C   UNL     1      14.243  -8.413   0.668  1.00  0.00     0.144 A 
HETATM   27  O   UNL     1      14.888  -7.729   1.664  1.00  0.00    -0.304 OA
HETATM   28  C   UNL     1      16.077  -8.348   1.911  1.00  0.00     0.086 A 
HETATM   29  C   UNL     1      16.195  -9.443   1.076  1.00  0.00     0.041 A 
HETATM   30  C   UNL     1      15.019  -9.483   0.277  1.00  0.00     0.046 A 
BRANCH  28  31
HETATM   31  C   UNL     1      16.898  -7.734   2.953  1.00  0.00    -0.002 A 
HETATM   32  C   UNL     1      18.047  -8.375   3.436  1.00  0.00     0.016 A 
HETATM   33  C   UNL     1      18.826  -7.788   4.442  1.00  0.00     0.024 A 
HETATM   34  C   UNL     1      18.464  -6.552   4.971  1.00  0.00     0.034 A 
HETATM   35 CL   UNL     1      19.419  -5.834   6.208  1.00  0.00    -0.084 Cl
HETATM   36  C   UNL     1      17.330  -5.896   4.504  1.00  0.00     0.024 A 
HETATM   37  C   UNL     1      16.554  -6.485   3.501  1.00  0.00     0.016 A 
ENDBRANCH  28  31
ENDBRANCH  23  26
ENDBRANCH  20  22
ENDBRANCH   1  20
TORSDOF 8
