REMARK  4 active torsions:
REMARK  status: ('A' for Active; 'I' for Inactive)
REMARK    1  A    between atoms: C_2  and  C_3 
REMARK    2  A    between atoms: C_7  and  N_8 
REMARK       I    between atoms: N_8  and  C_9 
REMARK    3  A    between atoms: C_9  and  C_10 
REMARK    4  A    between atoms: C_12  and  C_13 
ROOT
HETATM    1  N   UNL     1       4.404   1.096   4.371  1.00  0.00    -0.308 N 
HETATM    2  C   UNL     1       4.202   1.994   5.407  1.00  0.00     0.257 C 
HETATM    3  O   UNL     1       4.254   1.707   6.601  1.00  0.00    -0.267 OA
HETATM    4  H   UNL     1       4.428   1.410   3.410  1.00  0.00     0.170 HD
ENDROOT
BRANCH   2   5
HETATM    5  C   UNL     1       3.945   3.404   5.000  1.00  0.00     0.033 A 
HETATM    6  C   UNL     1       3.287   3.725   3.804  1.00  0.00     0.029 A 
HETATM    7  C   UNL     1       3.097   5.066   3.439  1.00  0.00    -0.023 A 
HETATM    8  C   UNL     1       3.558   6.078   4.291  1.00  0.00     0.012 A 
HETATM    9  C   UNL     1       4.186   5.761   5.497  1.00  0.00     0.002 A 
HETATM   10  C   UNL     1       4.376   4.426   5.853  1.00  0.00     0.017 A 
BRANCH   7  11
HETATM   11  C   UNL     1       2.449   5.413   2.187  1.00  0.00    -0.002 A 
HETATM   12  C   UNL     1       1.355   4.755   1.663  1.00  0.00     0.153 A 
HETATM   13  O   UNL     1       0.980   5.309   0.481  1.00  0.00    -0.334 OA
HETATM   14  C   UNL     1       1.829   6.340   0.242  1.00  0.00     0.142 A 
HETATM   15  C   UNL     1       2.745   6.452   1.262  1.00  0.00     0.038 A 
ENDBRANCH   7  11
ENDBRANCH   2   5
BRANCH   1  16
HETATM   16  C   UNL     1       4.684  -0.235   4.609  1.00  0.00     0.126 A 
HETATM   17  N   UNL     1       4.766  -0.802   5.854  1.00  0.00    -0.262 N 
HETATM   18  N   UNL     1       5.073  -2.112   5.829  1.00  0.00    -0.178 NA
HETATM   19  H   UNL     1       4.632  -0.328   6.745  1.00  0.00     0.191 HD
HETATM   20  C   UNL     1       5.184  -2.391   4.524  1.00  0.00     0.058 A 
HETATM   21  C   UNL     1       4.942  -1.249   3.720  1.00  0.00     0.079 A 
BRANCH  20  22
HETATM   22  C   UNL     1       5.526  -3.770   4.072  1.00  0.00     0.056 C 
HETATM   23  C   UNL     1       6.954  -3.874   3.558  1.00  0.00     0.011 C 
ENDBRANCH  20  22
ENDBRANCH   1  16
TORSDOF 4
