REMARK  7 active torsions:
REMARK  status: ('A' for Active; 'I' for Inactive)
REMARK    1  A    between atoms: C_4  and  C_5 
REMARK    2  A    between atoms: N_6  and  C_7 
REMARK    3  A    between atoms: C_14  and  C_15 
REMARK       I    between atoms: C_15  and  N_16 
REMARK    4  A    between atoms: N_16  and  N_17 
REMARK       I    between atoms: N_17  and  C_18 
REMARK    5  A    between atoms: C_18  and  C_19 
REMARK    6  A    between atoms: C_19  and  C_20 
REMARK    7  A    between atoms: C_23  and  O_24 
ROOT
HETATM    1  C   UNL     1       2.909   0.230   0.089  1.00  0.00     0.164 C 
HETATM    2  N   UNL     1       3.816   1.284  -0.007  1.00  0.00    -0.213 N 
HETATM    3  N   UNL     1       5.074   0.815   0.238  1.00  0.00    -0.139 NA
HETATM    4  C   UNL     1       4.898  -0.517   0.261  1.00  0.00     0.241 C 
HETATM    5  N   UNL     1       3.586  -0.903   0.153  1.00  0.00    -0.202 NA
ENDROOT
BRANCH   4   6
HETATM    6  C   UNL     1       6.013  -1.472   0.403  1.00  0.00     0.309 C 
HETATM    7  N   UNL     1       7.250  -0.869   0.557  1.00  0.00    -0.261 N 
HETATM    8  H   UNL     1       7.353   0.147   0.527  1.00  0.00     0.190 HD
HETATM    9  O   UNL     1       5.886  -2.697   0.382  1.00  0.00    -0.262 OA
BRANCH   7  10
HETATM   10  N   UNL     1       8.398  -1.661   0.613  1.00  0.00    -0.267 N 
HETATM   11  C   UNL     1       9.631  -1.046   0.675  1.00  0.00     0.240 C 
HETATM   12  O   UNL     1       9.770   0.176   0.682  1.00  0.00    -0.272 OA
HETATM   13  H   UNL     1       8.260  -2.666   0.701  1.00  0.00     0.190 HD
BRANCH  11  14
HETATM   14  C   UNL     1      10.799  -2.012   0.713  1.00  0.00     0.143 C 
BRANCH  14  15
HETATM   15  C   UNL     1      11.168  -2.445   2.110  1.00  0.00    -0.049 A 
HETATM   16  C   UNL     1      11.019  -3.782   2.510  1.00  0.00     0.010 A 
HETATM   17  C   UNL     1      11.385  -4.183   3.798  1.00  0.00     0.037 A 
HETATM   18  C   UNL     1      11.900  -3.246   4.687  1.00  0.00     0.065 A 
HETATM   19  C   UNL     1      12.051  -1.918   4.311  1.00  0.00     0.037 A 
HETATM   20  C   UNL     1      11.686  -1.517   3.025  1.00  0.00     0.010 A 
BRANCH  18  21
HETATM   21  O   UNL     1      12.277  -3.596   5.949  1.00  0.00    -0.361 OA
HETATM   22  H   UNL     1      12.123  -4.547   6.067  1.00  0.00     0.217 HD
ENDBRANCH  18  21
ENDBRANCH  14  15
ENDBRANCH  11  14
ENDBRANCH   7  10
ENDBRANCH   4   6
BRANCH   2  23
HETATM   23  C   UNL     1       3.628   2.658  -0.338  1.00  0.00     0.060 A 
HETATM   24  C   UNL     1       4.650   3.576  -0.043  1.00  0.00     0.031 A 
HETATM   25  C   UNL     1       4.497   4.929  -0.354  1.00  0.00     0.002 A 
HETATM   26  C   UNL     1       3.335   5.375  -0.978  1.00  0.00     0.000 A 
HETATM   27  C   UNL     1       2.328   4.468  -1.301  1.00  0.00     0.002 A 
HETATM   28  C   UNL     1       2.474   3.112  -0.990  1.00  0.00     0.031 A 
ENDBRANCH   2  23
BRANCH   1  29
HETATM   29  C   UNL     1       1.450   0.301   0.180  1.00  0.00     0.012 A 
HETATM   30  C   UNL     1       0.668  -0.575  -0.585  1.00  0.00     0.015 A 
HETATM   31  C   UNL     1      -0.725  -0.547  -0.497  1.00  0.00     0.001 A 
HETATM   32  C   UNL     1      -1.350   0.349   0.368  1.00  0.00     0.000 A 
HETATM   33  C   UNL     1      -0.584   1.208   1.153  1.00  0.00     0.001 A 
HETATM   34  C   UNL     1       0.810   1.179   1.068  1.00  0.00     0.015 A 
ENDBRANCH   1  29
TORSDOF 7
