REMARK  4 active torsions:
REMARK  status: ('A' for Active; 'I' for Inactive)
REMARK    1  A    between atoms: C_5  and  N_6 
REMARK       I    between atoms: N_6  and  C_7 
REMARK       I    between atoms: C_7  and  N_8 
REMARK    2  A    between atoms: N_8  and  C_9 
REMARK    3  A    between atoms: C_9  and  C_10 
REMARK    4  A    between atoms: C_13  and  C_14 
ROOT
HETATM    1  N   UNL     1       6.324  -0.206  -0.417  1.00  0.00    -0.309 N 
HETATM    2  C   UNL     1       7.163  -1.190  -0.857  1.00  0.00     0.321 C 
HETATM    3  N   UNL     1       6.725  -2.473  -0.682  1.00  0.00    -0.335 N 
HETATM    4  O   UNL     1       8.262  -1.039  -1.382  1.00  0.00    -0.247 OA
HETATM    5  H   UNL     1       5.359  -0.481  -0.276  1.00  0.00     0.170 HD
HETATM    6  H   UNL     1       7.417  -3.140  -0.998  1.00  0.00     0.164 HD
ENDROOT
BRANCH   3   7
HETATM    7  C   UNL     1       5.678  -2.960   0.201  1.00  0.00     0.213 C 
BRANCH   7   8
HETATM    8  C   UNL     1       4.331  -2.660  -0.345  1.00  0.00     0.190 A 
HETATM    9  O   UNL     1       3.486  -3.706  -0.558  1.00  0.00    -0.194 OA
HETATM   10  N   UNL     1       2.299  -3.160  -1.046  1.00  0.00    -0.106 NA
HETATM   11  C   UNL     1       2.546  -1.840  -1.095  1.00  0.00     0.189 A 
HETATM   12  N   UNL     1       3.800  -1.492  -0.634  1.00  0.00    -0.202 NA
BRANCH  11  13
HETATM   13  C   UNL     1       1.597  -0.840  -1.571  1.00  0.00     0.014 A 
HETATM   14  C   UNL     1       0.240  -1.150  -1.740  1.00  0.00     0.015 A 
HETATM   15  C   UNL     1      -0.659  -0.177  -2.186  1.00  0.00     0.001 A 
HETATM   16  C   UNL     1      -0.211   1.112  -2.472  1.00  0.00     0.000 A 
HETATM   17  C   UNL     1       1.136   1.431  -2.316  1.00  0.00     0.001 A 
HETATM   18  C   UNL     1       2.035   0.460  -1.869  1.00  0.00     0.015 A 
ENDBRANCH  11  13
ENDBRANCH   7   8
ENDBRANCH   3   7
BRANCH   1  19
HETATM   19  C   UNL     1       6.543   1.186  -0.415  1.00  0.00     0.036 A 
HETATM   20  C   UNL     1       7.755   1.790  -0.749  1.00  0.00     0.030 A 
HETATM   21  C   UNL     1       7.876   3.184  -0.744  1.00  0.00     0.009 A 
HETATM   22  C   UNL     1       6.795   3.996  -0.385  1.00  0.00    -0.062 A 
HETATM   23  C   UNL     1       6.911   5.490  -0.426  1.00  0.00     0.048 C 
HETATM   24  C   UNL     1       5.582   3.391  -0.045  1.00  0.00     0.009 A 
HETATM   25  C   UNL     1       5.461   1.999  -0.053  1.00  0.00     0.030 A 
ENDBRANCH   1  19
TORSDOF 4
