REMARK  9 active torsions:
REMARK  status: ('A' for Active; 'I' for Inactive)
REMARK    1  A    between atoms: O_2  and  C_3 
REMARK    2  A    between atoms: C_4  and  S_5 
REMARK    3  A    between atoms: S_5  and  N_6 
REMARK    4  A    between atoms: N_6  and  C_7 
REMARK    5  A    between atoms: C_7  and  C_8 
REMARK    6  A    between atoms: C_7  and  C_21 
REMARK       I    between atoms: C_8  and  N_9 
REMARK    7  A    between atoms: N_9  and  C_10 
REMARK    8  A    between atoms: C_21  and  C_22 
REMARK    9  A    between atoms: C_22  and  S_23 
ROOT
HETATM    1  C   UNL     1      -0.584   2.783  -2.601  1.00  0.00     0.165 C 
ENDROOT
BRANCH   1   2
HETATM    2  N   UNL     1       0.256   3.947  -3.007  1.00  0.00    -0.202 NA
HETATM    3  H   UNL     1       0.169   4.163  -4.010  1.00  0.00     0.141 HD
BRANCH   2   4
HETATM    4  S   UNL     1       1.896   3.934  -2.593  1.00  0.00     0.245 S 
HETATM    5  O   UNL     1       1.994   3.329  -1.282  1.00  0.00    -0.206 OA
HETATM    6  O   UNL     1       2.416   5.261  -2.839  1.00  0.00    -0.206 OA
BRANCH   4   7
HETATM    7  C   UNL     1       2.651   2.840  -3.767  1.00  0.00     0.107 A 
HETATM    8  C   UNL     1       2.496   3.053  -5.144  1.00  0.00     0.091 A 
HETATM    9  C   UNL     1       3.148   2.187  -6.030  1.00  0.00     0.038 A 
HETATM   10  C   UNL     1       3.927   1.130  -5.550  1.00  0.00     0.003 A 
HETATM   11  C   UNL     1       4.067   0.925  -4.180  1.00  0.00     0.002 A 
HETATM   12  C   UNL     1       3.430   1.780  -3.284  1.00  0.00     0.028 A 
BRANCH   8  13
HETATM   13  O   UNL     1       1.705   4.100  -5.535  1.00  0.00    -0.354 OA
HETATM   14  C   UNL     1       1.342   4.171  -6.910  1.00  0.00     0.210 C 
ENDBRANCH   8  13
ENDBRANCH   4   7
ENDBRANCH   2   4
ENDBRANCH   1   2
BRANCH   1  15
HETATM   15  C   UNL     1      -0.648   1.774  -3.751  1.00  0.00     0.254 C 
HETATM   16  N   UNL     1      -0.968   0.489  -3.374  1.00  0.00    -0.156 N 
HETATM   17  H   UNL     1      -1.262   0.258  -2.428  1.00  0.00     0.187 HD
HETATM   18  O   UNL     1      -0.447   2.119  -4.918  1.00  0.00    -0.271 OA
BRANCH  16  19
HETATM   19  C   UNL     1      -1.033  -0.539  -4.279  1.00  0.00     0.708 A 
HETATM   20  N   UNL     1      -1.503  -1.735  -4.021  1.00  0.00    -0.062 NA
HETATM   21  C   UNL     1      -1.389  -2.434  -5.202  1.00  0.00     0.103 A 
HETATM   22  C   UNL     1      -0.797  -1.652  -6.189  1.00  0.00     0.078 A 
HETATM   23  C   UNL     1      -1.770  -3.748  -5.512  1.00  0.00     0.034 A 
HETATM   24  N   UNL     1      -0.598  -0.444  -5.577  1.00  0.00    -0.188 N 
HETATM   25  C   UNL     1      -0.527  -2.112  -7.479  1.00  0.00     0.032 A 
HETATM   26  H   UNL     1      -0.208   0.395  -5.985  1.00  0.00     0.184 HD
HETATM   27  C   UNL     1      -0.904  -3.428  -7.765  1.00  0.00     0.002 A 
HETATM   28  C   UNL     1      -1.523  -4.232  -6.803  1.00  0.00     0.002 A 
ENDBRANCH  16  19
ENDBRANCH   1  15
BRANCH   1  29
HETATM   29  C   UNL     1      -1.977   3.348  -2.273  1.00  0.00     0.040 C 
BRANCH  29  30
HETATM   30  C   UNL     1      -3.007   2.363  -1.718  1.00  0.00     0.075 C 
BRANCH  30  31
HETATM   31  S   UNL     1      -2.432   1.356  -0.313  1.00  0.00    -0.173 SA
HETATM   32  C   UNL     1      -2.193   2.664   0.921  1.00  0.00     0.089 C 
ENDBRANCH  30  31
ENDBRANCH  29  30
ENDBRANCH   1  29
TORSDOF 9
