REMARK  8 active torsions:
REMARK  status: ('A' for Active; 'I' for Inactive)
REMARK    1  A    between atoms: C_7  and  N_8 
REMARK    2  A    between atoms: C_9  and  S_10 
REMARK    3  A    between atoms: S_10  and  C_11 
REMARK    4  A    between atoms: C_11  and  C_12 
REMARK       I    between atoms: C_12  and  N_13 
REMARK    5  A    between atoms: N_13  and  C_14 
REMARK    6  A    between atoms: C_14  and  C_15 
REMARK    7  A    between atoms: C_15  and  C_16 
REMARK    8  A    between atoms: C_26  and  N_27 
ROOT
HETATM    1  N   UNL     1       5.369  -2.337  -0.319  1.00  0.00    -0.276 N 
HETATM    2  C   UNL     1       5.005  -3.440   0.501  1.00  0.00     0.177 A 
HETATM    3  N   UNL     1       5.658  -4.572   0.598  1.00  0.00    -0.204 NA
HETATM    4  C   UNL     1       6.769  -4.634  -0.165  1.00  0.00     0.162 A 
HETATM    5  C   UNL     1       7.293  -3.695  -1.010  1.00  0.00     0.081 A 
HETATM    6  C   UNL     1       6.567  -2.468  -1.145  1.00  0.00     0.124 A 
HETATM    7  N   UNL     1       7.627  -5.692  -0.225  1.00  0.00    -0.260 N 
HETATM    8  H   UNL     1       7.561  -6.576   0.269  1.00  0.00     0.191 HD
HETATM    9  N   UNL     1       8.676  -5.474  -1.049  1.00  0.00    -0.177 NA
HETATM   10  C   UNL     1       8.476  -4.237  -1.532  1.00  0.00     0.068 A 
HETATM   11  C   UNL     1       9.464  -3.657  -2.473  1.00  0.00     0.073 C 
ENDROOT
BRANCH   2  12
HETATM   12  S   UNL     1       3.580  -3.333   1.565  1.00  0.00    -0.082 SA
BRANCH  12  13
HETATM   13  C   UNL     1       3.125  -5.094   1.629  1.00  0.00     0.185 C 
BRANCH  13  14
HETATM   14  C   UNL     1       1.820  -5.338   2.362  1.00  0.00     0.227 C 
HETATM   15  N   UNL     1       1.691  -4.702   3.579  1.00  0.00    -0.360 N 
HETATM   16  H   UNL     1       2.477  -4.155   3.909  1.00  0.00     0.162 HD
HETATM   17  O   UNL     1       0.988  -6.133   1.929  1.00  0.00    -0.273 OA
BRANCH  15  18
HETATM   18  C   UNL     1       0.661  -5.082   4.531  1.00  0.00     0.127 C 
BRANCH  18  19
HETATM   19  C   UNL     1       0.154  -3.890   5.341  1.00  0.00     0.058 C 
BRANCH  19  20
HETATM   20  C   UNL     1      -0.760  -4.333   6.457  1.00  0.00    -0.057 A 
HETATM   21  C   UNL     1      -0.264  -4.500   7.757  1.00  0.00     0.007 A 
HETATM   22  C   UNL     1      -1.099  -4.950   8.781  1.00  0.00     0.001 A 
HETATM   23  C   UNL     1      -2.435  -5.240   8.515  1.00  0.00     0.000 A 
HETATM   24  C   UNL     1      -2.939  -5.079   7.226  1.00  0.00     0.001 A 
HETATM   25  C   UNL     1      -2.106  -4.629   6.200  1.00  0.00     0.007 A 
ENDBRANCH  19  20
ENDBRANCH  18  19
ENDBRANCH  15  18
ENDBRANCH  13  14
ENDBRANCH  12  13
ENDBRANCH   2  12
BRANCH   1  26
HETATM   26  C   UNL     1       4.620  -1.124  -0.334  1.00  0.00     0.043 A 
HETATM   27  C   UNL     1       3.329  -1.074  -0.872  1.00  0.00     0.032 A 
HETATM   28  C   UNL     1       2.646   0.142  -0.954  1.00  0.00     0.026 A 
HETATM   29  C   UNL     1       3.249   1.322  -0.514  1.00  0.00     0.040 A 
HETATM   30  C   UNL     1       4.545   1.302   0.023  1.00  0.00    -0.038 A 
HETATM   31 CL   UNL     1       2.359   2.793  -0.669  1.00  0.00    -0.084 Cl
HETATM   32  C   UNL     1       5.229   2.556   0.494  1.00  0.00     0.050 C 
HETATM   33  C   UNL     1       5.217   0.070   0.110  1.00  0.00     0.038 A 
ENDBRANCH   1  26
BRANCH   6  34
HETATM   34  N   UNL     1       6.954  -1.541  -2.001  1.00  0.00    -0.384 N 
HETATM   35  H   UNL     1       7.770  -1.661  -2.583  1.00  0.00     0.157 HD
HETATM   36  H   UNL     1       6.407  -0.697  -2.118  1.00  0.00     0.157 HD
ENDBRANCH   6  34
TORSDOF 8
