REMARK  6 active torsions:
REMARK  status: ('A' for Active; 'I' for Inactive)
REMARK    1  A    between atoms: C_2  and  C_3 
REMARK    2  A    between atoms: C_6  and  C_7 
REMARK    3  A    between atoms: C_11  and  C_12 
REMARK       I    between atoms: C_12  and  N_13 
REMARK    4  A    between atoms: N_13  and  N_14 
REMARK    5  A    between atoms: C_15  and  C_16 
REMARK    6  A    between atoms: C_19  and  O_20 
ROOT
HETATM    1  C   UNL     1       4.219  -8.819   1.673  1.00  0.00     0.289 C 
HETATM    2  N   UNL     1       3.064  -9.214   1.015  1.00  0.00    -0.241 N 
HETATM    3  O   UNL     1       5.067  -9.590   2.115  1.00  0.00    -0.264 OA
HETATM    4  H   UNL     1       2.406  -8.519   0.694  1.00  0.00     0.192 HD
ENDROOT
BRANCH   1   5
HETATM    5  C   UNL     1       4.352  -7.391   1.834  1.00  0.00     0.121 A 
HETATM    6  N   UNL     1       5.373  -6.847   2.562  1.00  0.00    -0.272 N 
HETATM    7  N   UNL     1       5.335  -5.509   2.649  1.00  0.00    -0.174 NA
HETATM    8  H   UNL     1       6.116  -7.353   3.037  1.00  0.00     0.189 HD
HETATM    9  C   UNL     1       4.270  -5.151   1.916  1.00  0.00     0.089 A 
HETATM   10  C   UNL     1       3.625  -6.305   1.389  1.00  0.00     0.071 A 
BRANCH   9  11
HETATM   11  C   UNL     1       3.877  -3.749   1.748  1.00  0.00    -0.006 A 
HETATM   12  C   UNL     1       3.093  -3.345   0.658  1.00  0.00     0.014 A 
HETATM   13  C   UNL     1       2.698  -2.011   0.517  1.00  0.00     0.008 A 
HETATM   14  C   UNL     1       3.083  -1.052   1.462  1.00  0.00    -0.059 A 
HETATM   15  C   UNL     1       3.870  -1.450   2.548  1.00  0.00     0.008 A 
HETATM   16  C   UNL     1       4.267  -2.783   2.686  1.00  0.00     0.014 A 
BRANCH  14  17
HETATM   17  C   UNL     1       2.631   0.379   1.324  1.00  0.00     0.034 C 
HETATM   18  C   UNL     1       1.244   0.592   1.912  1.00  0.00     0.010 C 
ENDBRANCH  14  17
ENDBRANCH   9  11
ENDBRANCH   1   5
BRANCH   2  19
HETATM   19  N   UNL     1       2.816 -10.533   0.786  1.00  0.00    -0.176 NA
HETATM   20  C   UNL     1       1.660 -10.893   0.306  1.00  0.00     0.061 C 
HETATM   21  C   UNL     1       0.526  -9.924   0.033  1.00  0.00     0.073 C 
BRANCH  20  22
HETATM   22  C   UNL     1       1.441 -12.348   0.013  1.00  0.00    -0.010 A 
HETATM   23  C   UNL     1       2.269 -13.295   0.636  1.00  0.00     0.016 A 
HETATM   24  C   UNL     1       2.100 -14.660   0.389  1.00  0.00     0.037 A 
HETATM   25  C   UNL     1       1.104 -15.076  -0.487  1.00  0.00     0.065 A 
HETATM   26  C   UNL     1       0.283 -14.152  -1.122  1.00  0.00     0.037 A 
HETATM   27  C   UNL     1       0.454 -12.786  -0.879  1.00  0.00     0.016 A 
BRANCH  25  28
HETATM   28  O   UNL     1       0.900 -16.396  -0.758  1.00  0.00    -0.361 OA
HETATM   29  H   UNL     1       1.550 -16.919  -0.261  1.00  0.00     0.217 HD
ENDBRANCH  25  28
ENDBRANCH  20  22
ENDBRANCH   2  19
TORSDOF 6
