REMARK  5 active torsions:
REMARK  status: ('A' for Active; 'I' for Inactive)
REMARK    1  A    between atoms: C_10  and  N_11 
REMARK    2  A    between atoms: N_11  and  C_12 
REMARK    3  A    between atoms: C_12  and  C_13 
REMARK    4  A    between atoms: C_13  and  N_14 
REMARK       I    between atoms: N_14  and  C_15 
REMARK    5  A    between atoms: C_15  and  C_16 
ROOT
HETATM    1  C   UNL     1       0.837   0.143   0.017  1.00  0.00     0.048 C 
HETATM    2  C   UNL     1       2.336   0.174   0.118  1.00  0.00    -0.060 A 
HETATM    3  C   UNL     1       3.082  -1.010   0.091  1.00  0.00     0.037 A 
HETATM    4  C   UNL     1       4.481  -0.968   0.161  1.00  0.00     0.044 A 
HETATM    5  C   UNL     1       5.153   0.265   0.245  1.00  0.00    -0.009 A 
HETATM    6  C   UNL     1       4.402   1.449   0.258  1.00  0.00     0.014 A 
HETATM    7  C   UNL     1       3.007   1.401   0.191  1.00  0.00     0.007 A 
HETATM    8  N   UNL     1       5.197  -2.104   0.153  1.00  0.00    -0.346 N 
HETATM    9  H   UNL     1       4.680  -2.972   0.081  1.00  0.00     0.167 HD
HETATM   10  C   UNL     1       6.538  -2.165   0.240  1.00  0.00     0.086 A 
HETATM   11  C   UNL     1       7.255  -0.953   0.279  1.00  0.00    -0.023 A 
HETATM   12  C   UNL     1       8.759  -0.918   0.340  1.00  0.00     0.052 C 
HETATM   13  C   UNL     1       6.549   0.258   0.304  1.00  0.00     0.023 A 
ENDROOT
BRANCH  10  14
HETATM   14  N   UNL     1       7.205  -3.394   0.205  1.00  0.00    -0.277 NA
HETATM   15  H   UNL     1       7.967  -3.417   0.886  1.00  0.00     0.129 HD
BRANCH  14  16
HETATM   16  C   UNL     1       6.408  -4.620   0.213  1.00  0.00     0.113 C 
BRANCH  16  17
HETATM   17  C   UNL     1       7.257  -5.895   0.129  1.00  0.00     0.137 C 
BRANCH  17  18
HETATM   18  N   UNL     1       6.520  -7.156   0.109  1.00  0.00    -0.360 N 
HETATM   19  C   UNL     1       5.145  -7.294   0.121  1.00  0.00     0.221 C 
HETATM   20  O   UNL     1       4.376  -6.337   0.178  1.00  0.00    -0.273 OA
HETATM   21  H   UNL     1       7.073  -8.001   0.018  1.00  0.00     0.162 HD
BRANCH  19  22
HETATM   22  C   UNL     1       4.668  -8.744   0.052  1.00  0.00     0.070 C 
HETATM   23  C   UNL     1       5.052  -9.499   1.323  1.00  0.00     0.019 C 
HETATM   24  C   UNL     1       3.157  -8.809  -0.167  1.00  0.00     0.019 C 
ENDBRANCH  19  22
ENDBRANCH  17  18
ENDBRANCH  16  17
ENDBRANCH  14  16
ENDBRANCH  10  14
TORSDOF 5
