REMARK  6 active torsions:
REMARK  status: ('A' for Active; 'I' for Inactive)
REMARK    1  A    between atoms: N_2  and  C_4 
REMARK    2  A    between atoms: N_2  and  C_11 
REMARK    3  A    between atoms: C_4  and  C_5 
REMARK    4  A    between atoms: C_5  and  O_6 
REMARK    5  A    between atoms: C_11  and  C_12 
REMARK    6  A    between atoms: C_13  and  C_14 
ROOT
HETATM    1  C   UNL     1       2.854   0.401   2.654  1.00  0.00     0.016 A 
HETATM    2  C   UNL     1       2.787   1.168   3.863  1.00  0.00     0.096 A 
HETATM    3  N   UNL     1       2.674   0.365   4.927  1.00  0.00    -0.174 NA
HETATM    4  N   UNL     1       2.752  -0.877   4.444  1.00  0.00    -0.288 N 
HETATM    5  H   UNL     1       2.725  -1.651   5.103  1.00  0.00     0.188 HD
HETATM    6  C   UNL     1       2.854  -0.915   3.082  1.00  0.00     0.120 A 
ENDROOT
BRANCH   1   7
HETATM    7  C   UNL     1       2.927   0.929   1.265  1.00  0.00     0.277 C 
BRANCH   7   8
HETATM    8  N   UNL     1       2.201   0.092   0.231  1.00  0.00    -0.068 N 
HETATM    9  C   UNL     1       0.703   0.169   0.410  1.00  0.00     0.270 C 
HETATM   10  H   UNL     1       2.470  -0.880   0.405  1.00  0.00     0.279 HD
BRANCH   8  11
HETATM   11  C   UNL     1       2.655   0.467  -1.179  1.00  0.00     0.272 C 
BRANCH  11  12
HETATM   12  C   UNL     1       2.203  -0.535  -2.267  1.00  0.00     0.082 C 
HETATM   13  C   UNL     1       2.797  -0.171  -3.634  1.00  0.00     0.039 C 
HETATM   14  C   UNL     1       2.736  -1.477  -4.413  1.00  0.00     0.003 C 
HETATM   15  C   UNL     1       3.094  -2.536  -3.381  1.00  0.00     0.003 C 
HETATM   16  C   UNL     1       2.662  -1.979  -2.019  1.00  0.00     0.039 C 
BRANCH  12  17
HETATM   17  O   UNL     1       0.775  -0.500  -2.356  1.00  0.00    -0.388 OA
HETATM   18  H   UNL     1       0.486  -1.037  -3.118  1.00  0.00     0.210 HD
ENDBRANCH  12  17
ENDBRANCH  11  12
ENDBRANCH   8  11
ENDBRANCH   7   8
ENDBRANCH   1   7
BRANCH   2  19
HETATM   19  C   UNL     1       2.808   2.620   4.029  1.00  0.00    -0.003 A 
HETATM   20  C   UNL     1       3.766   3.403   3.374  1.00  0.00     0.037 A 
HETATM   21  C   UNL     1       3.758   4.790   3.529  1.00  0.00     0.035 A 
HETATM   22 CL   UNL     1       4.924   5.738   2.692  1.00  0.00    -0.084 Cl
HETATM   23  C   UNL     1       2.815   5.409   4.346  1.00  0.00     0.024 A 
HETATM   24  C   UNL     1       1.874   4.633   5.021  1.00  0.00     0.003 A 
HETATM   25  C   UNL     1       1.871   3.245   4.864  1.00  0.00     0.014 A 
ENDBRANCH   2  19
TORSDOF 6
