REMARK  2 active torsions:
REMARK  status: ('A' for Active; 'I' for Inactive)
REMARK       I    between atoms: N_4  and  C_5 
REMARK       I    between atoms: C_5  and  N_6 
REMARK    1  A    between atoms: N_6  and  C_7 
REMARK    2  A    between atoms: C_20  and  C_21 
ROOT
HETATM    1  C   UNL     1       0.881  -0.480   0.414  1.00  0.00     0.011 C 
HETATM    2  C   UNL     1       2.397  -0.427   0.478  1.00  0.00     0.002 C 
HETATM    3  C   UNL     1       2.933   0.881   1.052  1.00  0.00     0.132 C 
HETATM    4  N   UNL     1       4.231   0.535   1.617  1.00  0.00    -0.325 N 
HETATM    5  C   UNL     1       5.209   1.400   2.063  1.00  0.00     0.323 C 
HETATM    6  N   UNL     1       4.852   2.729   2.008  1.00  0.00    -0.309 N 
HETATM    7  O   UNL     1       6.300   0.996   2.458  1.00  0.00    -0.247 OA
HETATM    8  C   UNL     1       4.411  -0.918   1.704  1.00  0.00     0.125 C 
HETATM    9  C   UNL     1       3.004  -1.471   1.420  1.00  0.00     0.036 C 
HETATM   10  H   UNL     1       3.874   2.921   2.157  1.00  0.00     0.170 HD
ENDROOT
BRANCH   6  11
HETATM   11  C   UNL     1       5.735   3.825   2.066  1.00  0.00     0.038 A 
HETATM   12  C   UNL     1       7.095   3.713   1.761  1.00  0.00     0.062 A 
HETATM   13  C   UNL     1       7.911   4.846   1.771  1.00  0.00     0.070 A 
HETATM   14  C   UNL     1       7.383   6.094   2.096  1.00  0.00     0.096 A 
HETATM   15  N   UNL     1       9.250   4.725   1.400  1.00  0.00    -0.323 N 
HETATM   16  O   UNL     1       8.109   7.252   2.099  1.00  0.00    -0.335 OA
HETATM   17  C   UNL     1       6.027   6.212   2.394  1.00  0.00     0.041 A 
HETATM   18  C   UNL     1       9.522   7.087   2.006  1.00  0.00     0.217 C 
HETATM   19  C   UNL     1      10.093   5.799   1.395  1.00  0.00     0.251 C 
HETATM   20  C   UNL     1      10.114   7.271   3.401  1.00  0.00     0.050 C 
HETATM   21  O   UNL     1      11.250   5.701   0.991  1.00  0.00    -0.270 OA
HETATM   22  C   UNL     1       5.203   5.083   2.370  1.00  0.00     0.032 A 
HETATM   23  H   UNL     1       9.621   3.842   1.075  1.00  0.00     0.169 HD
ENDBRANCH   6  11
BRANCH   8  24
HETATM   24  C   UNL     1       5.440  -1.490   0.748  1.00  0.00     0.003 A 
HETATM   25  C   UNL     1       5.995  -2.743   1.037  1.00  0.00     0.124 A 
HETATM   26  F   UNL     1       5.594  -3.412   2.128  1.00  0.00    -0.205 F 
HETATM   27  C   UNL     1       6.954  -3.327   0.214  1.00  0.00     0.043 A 
HETATM   28  C   UNL     1       7.377  -2.660  -0.933  1.00  0.00     0.003 A 
HETATM   29  C   UNL     1       6.831  -1.416  -1.249  1.00  0.00     0.001 A 
HETATM   30  C   UNL     1       5.868  -0.836  -0.418  1.00  0.00     0.012 A 
ENDBRANCH   8  24
TORSDOF 2
