REMARK  5 active torsions:
REMARK  status: ('A' for Active; 'I' for Inactive)
REMARK    1  A    between atoms: C_7  and  C_8 
REMARK    2  A    between atoms: N_9  and  N_10 
REMARK       I    between atoms: N_10  and  C_11 
REMARK    3  A    between atoms: C_11  and  C_12 
REMARK    4  A    between atoms: C_12  and  N_13 
REMARK    5  A    between atoms: N_13  and  C_14 
ROOT
HETATM    1  N   UNL     1       5.105  -3.202   0.460  1.00  0.00    -0.246 N 
HETATM    2  C   UNL     1       5.569  -2.939  -0.837  1.00  0.00     0.250 C 
HETATM    3  O   UNL     1       4.855  -2.792  -1.827  1.00  0.00    -0.270 OA
HETATM    4  H   UNL     1       5.669  -3.844   1.007  1.00  0.00     0.192 HD
ENDROOT
BRANCH   1   5
HETATM    5  N   UNL     1       3.763  -3.302   0.723  1.00  0.00    -0.184 NA
HETATM    6  C   UNL     1       3.016  -2.247   0.549  1.00  0.00     0.153 C 
BRANCH   6   7
HETATM    7  C   UNL     1       3.467  -0.883   0.312  1.00  0.00     0.018 A 
HETATM    8  C   UNL     1       2.839  -0.009  -0.565  1.00  0.00     0.018 A 
HETATM    9  C   UNL     1       1.651  -0.197  -1.438  1.00  0.00     0.069 C 
HETATM   10  N   UNL     1       3.561   1.157  -0.581  1.00  0.00    -0.358 N 
HETATM   11  H   UNL     1       3.359   1.959  -1.163  1.00  0.00     0.166 HD
HETATM   12  C   UNL     1       4.601   1.096   0.314  1.00  0.00     0.043 A 
HETATM   13  C   UNL     1       4.550  -0.160   0.918  1.00  0.00     0.004 A 
HETATM   14  C   UNL     1       5.570   2.056   0.632  1.00  0.00     0.030 A 
HETATM   15  C   UNL     1       5.494  -0.446   1.930  1.00  0.00     0.014 A 
HETATM   16  C   UNL     1       6.470   0.501   2.262  1.00  0.00     0.001 A 
HETATM   17  C   UNL     1       6.509   1.732   1.614  1.00  0.00     0.002 A 
ENDBRANCH   6   7
ENDBRANCH   1   5
BRANCH   2  18
HETATM   18  C   UNL     1       7.101  -2.854  -0.876  1.00  0.00     0.197 C 
BRANCH  18  19
HETATM   19  N   UNL     1       7.615  -2.874  -2.248  1.00  0.00    -0.283 NA
HETATM   20  H   UNL     1       6.998  -3.381  -2.888  1.00  0.00     0.128 HD
BRANCH  19  21
HETATM   21  C   UNL     1       8.971  -3.186  -2.439  1.00  0.00     0.030 A 
HETATM   22  C   UNL     1       9.398  -3.917  -3.567  1.00  0.00     0.055 A 
HETATM   23 CL   UNL     1       8.249  -4.541  -4.701  1.00  0.00    -0.082 Cl
HETATM   24  C   UNL     1      10.753  -4.188  -3.788  1.00  0.00     0.026 A 
HETATM   25  C   UNL     1      11.713  -3.713  -2.898  1.00  0.00     0.002 A 
HETATM   26  C   UNL     1      11.317  -2.962  -1.794  1.00  0.00     0.002 A 
HETATM   27  C   UNL     1       9.962  -2.696  -1.574  1.00  0.00     0.025 A 
ENDBRANCH  19  21
ENDBRANCH  18  19
ENDBRANCH   2  18
TORSDOF 5
