REMARK  9 active torsions:
REMARK  status: ('A' for Active; 'I' for Inactive)
REMARK    1  A    between atoms: C_6  and  O_7 
REMARK    2  A    between atoms: O_7  and  C_8 
REMARK    3  A    between atoms: C_8  and  C_9 
REMARK       I    between atoms: C_9  and  N_10 
REMARK    4  A    between atoms: N_10  and  C_11 
REMARK    5  A    between atoms: C_11  and  N_12 
REMARK    6  A    between atoms: N_12  and  C_13 
REMARK    7  A    between atoms: C_15  and  O_16 
REMARK    8  A    between atoms: C_17  and  C_18 
REMARK    9  A    between atoms: C_25  and  C_26 
ROOT
HETATM    1  C   UNL     1       6.725   0.541  -0.011  1.00  0.00     0.036 A 
HETATM    2  C   UNL     1       5.826   0.832  -1.035  1.00  0.00     0.067 A 
HETATM    3  C   UNL     1       5.326   2.128  -1.204  1.00  0.00     0.082 A 
HETATM    4  C   UNL     1       5.724   3.178  -0.369  1.00  0.00     0.050 A 
HETATM    5  C   UNL     1       6.679   2.898   0.619  1.00  0.00     0.021 A 
HETATM    6  C   UNL     1       7.175   1.596   0.792  1.00  0.00     0.030 A 
ENDROOT
BRANCH   1   7
HETATM    7  N   UNL     1       7.240  -0.746   0.267  1.00  0.00    -0.333 N 
HETATM    8  H   UNL     1       8.006  -0.762   0.943  1.00  0.00     0.168 HD
BRANCH   7   9
HETATM    9  C   UNL     1       6.838  -2.002  -0.125  1.00  0.00     0.178 C 
HETATM   10  S   UNL     1       5.502  -2.483  -1.010  1.00  0.00    -0.040 SA
BRANCH   9  11
HETATM   11  N   UNL     1       7.648  -3.037   0.304  1.00  0.00    -0.302 N 
HETATM   12  C   UNL     1       8.749  -3.039   1.150  1.00  0.00     0.248 C 
HETATM   13  O   UNL     1       9.259  -2.012   1.595  1.00  0.00    -0.271 OA
HETATM   14  H   UNL     1       7.309  -3.939  -0.001  1.00  0.00     0.171 HD
BRANCH  12  15
HETATM   15  C   UNL     1       9.321  -4.438   1.410  1.00  0.00     0.278 C 
BRANCH  15  16
HETATM   16  O   UNL     1       8.301  -5.398   1.693  1.00  0.00    -0.342 OA
BRANCH  16  17
HETATM   17  C   UNL     1       7.963  -6.224   0.657  1.00  0.00     0.069 A 
HETATM   18  C   UNL     1       6.600  -6.340   0.381  1.00  0.00     0.044 A 
HETATM   19  C   UNL     1       6.147  -7.097  -0.710  1.00  0.00    -0.053 A 
HETATM   20  C   UNL     1       7.086  -7.780  -1.507  1.00  0.00    -0.056 A 
HETATM   21  C   UNL     1       4.676  -7.118  -1.029  1.00  0.00     0.049 C 
HETATM   22  C   UNL     1       6.658  -8.596  -2.696  1.00  0.00     0.049 C 
HETATM   23  C   UNL     1       8.449  -7.713  -1.171  1.00  0.00     0.010 A 
HETATM   24  C   UNL     1       8.887  -6.941  -0.093  1.00  0.00     0.037 A 
ENDBRANCH  16  17
ENDBRANCH  15  16
ENDBRANCH  12  15
ENDBRANCH   9  11
ENDBRANCH   7   9
ENDBRANCH   1   7
BRANCH   3  25
HETATM   25  O   UNL     1       4.453   2.362  -2.234  1.00  0.00    -0.360 OA
HETATM   26  H   UNL     1       4.130   1.516  -2.585  1.00  0.00     0.217 HD
ENDBRANCH   3  25
BRANCH   4  27
HETATM   27  C   UNL     1       5.141   4.510  -0.495  1.00  0.00     0.183 A 
HETATM   28  O   UNL     1       5.971   5.573  -0.223  1.00  0.00    -0.289 OA
HETATM   29  C   UNL     1       5.184   6.667  -0.448  1.00  0.00     0.106 A 
HETATM   30  C   UNL     1       3.929   6.217  -0.813  1.00  0.00     0.094 A 
HETATM   31  C   UNL     1       5.540   8.004  -0.347  1.00  0.00     0.040 A 
HETATM   32  N   UNL     1       3.907   4.851  -0.825  1.00  0.00    -0.221 NA
HETATM   33  C   UNL     1       2.925   7.150  -1.103  1.00  0.00     0.042 A 
HETATM   34  C   UNL     1       3.228   8.525  -1.021  1.00  0.00    -0.052 A 
HETATM   35  C   UNL     1       4.527   8.929  -0.647  1.00  0.00     0.010 A 
BRANCH  34  36
HETATM   36  C   UNL     1       2.140   9.534  -1.352  1.00  0.00     0.010 C 
HETATM   37  C   UNL     1       1.825  10.439  -0.159  1.00  0.00     0.015 C 
HETATM   38  C   UNL     1       2.501  10.360  -2.589  1.00  0.00     0.015 C 
ENDBRANCH  34  36
ENDBRANCH   4  27
TORSDOF 9
