REMARK  3 active torsions:
REMARK  status: ('A' for Active; 'I' for Inactive)
REMARK    1  A    between atoms: C_9  and  C_10 
REMARK    2  A    between atoms: C_10  and  C_11 
REMARK       I    between atoms: C_11  and  N_12 
REMARK    3  A    between atoms: N_12  and  C_13 
ROOT
HETATM    1  C   UNL     1      -2.419   0.640  -0.573  1.00  0.00     0.001 A 
HETATM    2  C   UNL     1      -1.234   1.317  -0.269  1.00  0.00     0.014 A 
HETATM    3  C   UNL     1      -0.146   0.617   0.269  1.00  0.00     0.006 A 
HETATM    4  C   UNL     1      -0.264  -0.751   0.508  1.00  0.00     0.046 A 
HETATM    5  C   UNL     1       0.872  -1.476   1.098  1.00  0.00     0.272 A 
HETATM    6  O   UNL     1       0.815  -2.679   1.326  1.00  0.00    -0.266 OA
HETATM    7  N   UNL     1       1.986  -0.725   1.378  1.00  0.00    -0.243 N 
HETATM    8  N   UNL     1       2.139   0.603   1.137  1.00  0.00    -0.175 NA
HETATM    9  C   UNL     1       1.153   1.261   0.604  1.00  0.00     0.074 A 
HETATM   10  C   UNL     1      -1.450  -1.429   0.203  1.00  0.00     0.018 A 
HETATM   11  C   UNL     1      -2.526  -0.731  -0.341  1.00  0.00     0.001 A 
HETATM   12  H   UNL     1       2.777  -1.211   1.793  1.00  0.00     0.192 HD
ENDROOT
BRANCH   9  13
HETATM   13  C   UNL     1       1.322   2.739   0.316  1.00  0.00     0.165 C 
BRANCH  13  14
HETATM   14  C   UNL     1       2.676   3.411   0.448  1.00  0.00     0.228 C 
HETATM   15  N   UNL     1       3.775   2.584   0.406  1.00  0.00    -0.326 N 
HETATM   16  H   UNL     1       3.590   1.585   0.515  1.00  0.00     0.169 HD
HETATM   17  O   UNL     1       2.712   4.640   0.503  1.00  0.00    -0.273 OA
BRANCH  15  18
HETATM   18  C   UNL     1       5.146   2.938   0.374  1.00  0.00     0.052 A 
HETATM   19  C   UNL     1       6.116   1.919   0.426  1.00  0.00     0.037 A 
HETATM   20 BR   UNL     1       5.636   0.081   0.541  1.00  0.00    -0.049 Br
HETATM   21  C   UNL     1       7.483   2.219   0.388  1.00  0.00     0.021 A 
HETATM   22  C   UNL     1       7.901   3.544   0.293  1.00  0.00     0.002 A 
HETATM   23  C   UNL     1       6.954   4.562   0.235  1.00  0.00     0.002 A 
HETATM   24  C   UNL     1       5.588   4.261   0.273  1.00  0.00     0.031 A 
ENDBRANCH  15  18
ENDBRANCH  13  14
ENDBRANCH   9  13
TORSDOF 3
