REMARK  4 active torsions:
REMARK  status: ('A' for Active; 'I' for Inactive)
REMARK    1  A    between atoms: N_4  and  C_5 
REMARK    2  A    between atoms: C_13  and  C_14 
REMARK    3  A    between atoms: N_15  and  C_17 
REMARK    4  A    between atoms: C_17  and  C_18 
ROOT
HETATM    1  C   UNL     1       2.079   0.116  -0.947  1.00  0.00     0.095 C 
HETATM    2  C   UNL     1       3.317  -0.324  -0.270  1.00  0.00     0.144 A 
HETATM    3  N   UNL     1       4.033   0.461   0.540  1.00  0.00    -0.156 NA
HETATM    4  N   UNL     1       5.021  -0.358   0.937  1.00  0.00    -0.247 N 
HETATM    5  C   UNL     1       4.936  -1.576   0.298  1.00  0.00     0.156 A 
HETATM    6  N   UNL     1       3.857  -1.563  -0.460  1.00  0.00    -0.215 NA
ENDROOT
BRANCH   5   7
HETATM    7  C   UNL     1       5.944  -2.693   0.360  1.00  0.00     0.259 C 
HETATM    8  N   UNL     1       5.397  -4.120   0.423  1.00  0.00    -0.056 N 
HETATM    9  H   UNL     1       6.227  -4.724   0.397  1.00  0.00     0.281 HD
HETATM   10  C   UNL     1       4.618  -4.528  -0.807  1.00  0.00     0.236 C 
HETATM   11  C   UNL     1       5.530  -4.438  -2.024  1.00  0.00     0.028 C 
HETATM   12  C   UNL     1       6.191  -3.072  -2.166  1.00  0.00     0.004 C 
HETATM   13  C   UNL     1       6.876  -2.631  -0.869  1.00  0.00     0.041 C 
BRANCH   8  14
HETATM   14  C   UNL     1       4.746  -4.520   1.730  1.00  0.00     0.274 C 
BRANCH  14  15
HETATM   15  C   UNL     1       3.434  -3.882   2.086  1.00  0.00    -0.033 A 
HETATM   16  C   UNL     1       2.236  -4.352   1.525  1.00  0.00     0.009 A 
HETATM   17  C   UNL     1       1.014  -3.774   1.870  1.00  0.00     0.001 A 
HETATM   18  C   UNL     1       0.971  -2.727   2.785  1.00  0.00     0.000 A 
HETATM   19  C   UNL     1       2.148  -2.262   3.366  1.00  0.00     0.001 A 
HETATM   20  C   UNL     1       3.373  -2.839   3.024  1.00  0.00     0.009 A 
ENDBRANCH  14  15
ENDBRANCH   8  14
ENDBRANCH   5   7
BRANCH   4  21
HETATM   21  C   UNL     1       5.992   0.150   1.900  1.00  0.00     0.115 C 
HETATM   22  C   UNL     1       5.340   0.902   3.078  1.00  0.00     0.055 C 
HETATM   23  C   UNL     1       4.923   2.336   2.756  1.00  0.00     0.236 C 
HETATM   24  N   UNL     1       6.085   3.083   2.149  1.00  0.00    -0.075 N 
HETATM   25  H   UNL     1       6.845   3.123   2.842  1.00  0.00     0.279 HD
HETATM   26  C   UNL     1       5.718   4.527   1.882  1.00  0.00     0.269 C 
HETATM   27  C   UNL     1       6.599   2.420   0.899  1.00  0.00     0.236 C 
HETATM   28  C   UNL     1       7.071   1.008   1.228  1.00  0.00     0.055 C 
ENDBRANCH   4  21
TORSDOF 4
