REMARK  7 active torsions:
REMARK  status: ('A' for Active; 'I' for Inactive)
REMARK    1  A    between atoms: C_2  and  C_3 
REMARK    2  A    between atoms: C_6  and  C_7 
REMARK    3  A    between atoms: C_7  and  N_8 
REMARK    4  A    between atoms: C_7  and  C_25 
REMARK    5  A    between atoms: N_8  and  C_11 
REMARK    6  A    between atoms: C_11  and  C_12 
REMARK       I    between atoms: C_12  and  N_13 
REMARK    7  A    between atoms: N_13  and  C_14 
ROOT
HETATM    1  N   UNL     1       4.522  -4.599  -4.218  1.00  0.00    -0.054 N 
HETATM    2  H   UNL     1       5.200  -4.692  -3.443  1.00  0.00     0.278 HD
HETATM    3  H   UNL     1       4.660  -5.469  -4.742  1.00  0.00     0.278 HD
ENDROOT
BRANCH   1   4
HETATM    4  C   UNL     1       3.151  -4.549  -3.637  1.00  0.00     0.259 C 
BRANCH   4   5
HETATM    5  C   UNL     1       2.040  -4.487  -4.674  1.00  0.00    -0.023 A 
HETATM    6  C   UNL     1       2.087  -5.202  -5.884  1.00  0.00     0.010 A 
HETATM    7  C   UNL     1       1.015  -5.158  -6.780  1.00  0.00     0.007 A 
HETATM    8  C   UNL     1      -0.131  -4.412  -6.485  1.00  0.00    -0.059 A 
HETATM    9  C   UNL     1      -0.189  -3.707  -5.280  1.00  0.00     0.007 A 
HETATM   10  C   UNL     1       0.883  -3.743  -4.385  1.00  0.00     0.010 A 
BRANCH   8  11
HETATM   11  C   UNL     1      -1.312  -4.420  -7.425  1.00  0.00     0.034 C 
HETATM   12  C   UNL     1      -2.216  -5.619  -7.180  1.00  0.00     0.010 C 
ENDBRANCH   8  11
ENDBRANCH   4   5
BRANCH   4  13
HETATM   13  C   UNL     1       2.987  -5.694  -2.664  1.00  0.00     0.017 A 
HETATM   14  S   UNL     1       3.552  -5.496  -1.050  1.00  0.00    -0.104 SA
HETATM   15  C   UNL     1       3.073  -7.074  -0.613  1.00  0.00     0.050 A 
HETATM   16  C   UNL     1       2.505  -7.751  -1.667  1.00  0.00     0.008 A 
HETATM   17  C   UNL     1       2.458  -6.959  -2.851  1.00  0.00     0.017 A 
ENDBRANCH   4  13
ENDBRANCH   1   4
BRANCH   1  18
HETATM   18  C   UNL     1       4.974  -3.414  -5.038  1.00  0.00     0.336 C 
BRANCH  18  19
HETATM   19  C   UNL     1       6.489  -3.466  -5.174  1.00  0.00     0.248 C 
HETATM   20  N   UNL     1       7.195  -2.688  -6.031  1.00  0.00    -0.326 N 
HETATM   21  H   UNL     1       8.182  -2.940  -6.019  1.00  0.00     0.169 HD
HETATM   22  O   UNL     1       7.092  -4.296  -4.479  1.00  0.00    -0.271 OA
BRANCH  20  23
HETATM   23  C   UNL     1       6.856  -1.639  -6.907  1.00  0.00     0.037 A 
HETATM   24  C   UNL     1       5.605  -1.017  -6.980  1.00  0.00     0.061 A 
HETATM   25  C   UNL     1       5.463   0.003  -7.899  1.00  0.00     0.065 A 
HETATM   26  C   UNL     1       6.500   0.422  -8.727  1.00  0.00     0.063 A 
HETATM   27  N   UNL     1       4.351   0.789  -8.181  1.00  0.00    -0.306 N 
HETATM   28  N   UNL     1       6.028   1.460  -9.520  1.00  0.00    -0.307 N 
HETATM   29  C   UNL     1       7.741  -0.154  -8.679  1.00  0.00     0.034 A 
HETATM   30  C   UNL     1       4.688   1.704  -9.191  1.00  0.00     0.325 A 
HETATM   31  H   UNL     1       6.534   1.982 -10.219  1.00  0.00     0.170 HD
HETATM   32  O   UNL     1       3.954   2.541  -9.679  1.00  0.00    -0.247 OA
HETATM   33  C   UNL     1       7.911  -1.191  -7.753  1.00  0.00     0.032 A 
HETATM   34  H   UNL     1       3.435   0.760  -7.763  1.00  0.00     0.170 HD
ENDBRANCH  20  23
ENDBRANCH  18  19
ENDBRANCH   1  18
TORSDOF 7
