REMARK  5 active torsions:
REMARK  status: ('A' for Active; 'I' for Inactive)
REMARK    1  A    between atoms: C_6  and  S_7 
REMARK    2  A    between atoms: S_7  and  C_8 
REMARK    3  A    between atoms: C_8  and  C_9 
REMARK       I    between atoms: C_9  and  N_10 
REMARK    4  A    between atoms: N_10  and  C_11 
REMARK    5  A    between atoms: N_22  and  C_23 
ROOT
HETATM    1  C   UNL     1      -2.475   0.754   0.078  1.00  0.00     0.001 A 
HETATM    2  C   UNL     1      -1.325   1.542   0.108  1.00  0.00     0.019 A 
HETATM    3  C   UNL     1      -0.066   0.931   0.100  1.00  0.00     0.061 A 
HETATM    4  C   UNL     1       0.056  -0.455   0.062  1.00  0.00     0.075 A 
HETATM    5  N   UNL     1       1.298  -1.097   0.046  1.00  0.00    -0.223 NA
HETATM    6  C   UNL     1       2.369  -0.372   0.078  1.00  0.00     0.177 A 
HETATM    7  N   UNL     1       2.373   1.016   0.107  1.00  0.00    -0.255 N 
HETATM    8  C   UNL     1       1.172   1.731   0.147  1.00  0.00     0.267 A 
HETATM    9  O   UNL     1       1.078   2.952   0.261  1.00  0.00    -0.267 OA
HETATM   10  C   UNL     1      -1.103  -1.236   0.037  1.00  0.00     0.032 A 
HETATM   11  C   UNL     1      -2.364  -0.635   0.044  1.00  0.00     0.002 A 
ENDROOT
BRANCH   6  12
HETATM   12  S   UNL     1       3.890  -1.251  -0.006  1.00  0.00    -0.082 SA
BRANCH  12  13
HETATM   13  C   UNL     1       3.516  -2.660   1.085  1.00  0.00     0.185 C 
BRANCH  13  14
HETATM   14  C   UNL     1       3.065  -3.910   0.334  1.00  0.00     0.231 C 
HETATM   15  N   UNL     1       2.070  -3.692  -0.598  1.00  0.00    -0.326 N 
HETATM   16  H   UNL     1       1.785  -2.721  -0.710  1.00  0.00     0.169 HD
HETATM   17  O   UNL     1       3.536  -5.007   0.629  1.00  0.00    -0.272 OA
BRANCH  15  18
HETATM   18  C   UNL     1       1.399  -4.631  -1.403  1.00  0.00     0.037 A 
HETATM   19  C   UNL     1       1.560  -6.015  -1.278  1.00  0.00     0.061 A 
HETATM   20  C   UNL     1       0.812  -6.809  -2.119  1.00  0.00     0.065 A 
HETATM   21  C   UNL     1      -0.061  -6.282  -3.067  1.00  0.00     0.063 A 
HETATM   22  N   UNL     1       0.748  -8.196  -2.205  1.00  0.00    -0.306 N 
HETATM   23  N   UNL     1      -0.656  -7.341  -3.740  1.00  0.00    -0.307 N 
HETATM   24  C   UNL     1      -0.236  -4.931  -3.225  1.00  0.00     0.034 A 
HETATM   25  C   UNL     1      -0.165  -8.544  -3.211  1.00  0.00     0.325 A 
HETATM   26  H   UNL     1      -1.334  -7.294  -4.483  1.00  0.00     0.170 HD
HETATM   27  O   UNL     1      -0.475  -9.669  -3.557  1.00  0.00    -0.247 OA
HETATM   28  C   UNL     1       0.504  -4.102  -2.372  1.00  0.00     0.032 A 
HETATM   29  H   UNL     1       1.257  -8.863  -1.649  1.00  0.00     0.170 HD
ENDBRANCH  15  18
ENDBRANCH  13  14
ENDBRANCH  12  13
ENDBRANCH   6  12
BRANCH   7  30
HETATM   30  C   UNL     1       3.574   1.786   0.113  1.00  0.00     0.066 A 
HETATM   31  C   UNL     1       3.944   2.572  -0.993  1.00  0.00     0.061 A 
HETATM   32 CL   UNL     1       3.049   2.547  -2.473  1.00  0.00    -0.082 Cl
HETATM   33  C   UNL     1       5.102   3.352  -0.943  1.00  0.00     0.026 A 
HETATM   34  C   UNL     1       5.895   3.355   0.205  1.00  0.00     0.002 A 
HETATM   35  C   UNL     1       5.535   2.578   1.305  1.00  0.00     0.002 A 
HETATM   36  C   UNL     1       4.378   1.797   1.264  1.00  0.00     0.032 A 
ENDBRANCH   7  30
TORSDOF 5
