REMARK  10 active torsions:
REMARK  status: ('A' for Active; 'I' for Inactive)
REMARK    1  A    between atoms: C_2  and  C_3 
REMARK    2  A    between atoms: C_3  and  N_4 
REMARK    3  A    between atoms: C_7  and  C_8 
REMARK       I    between atoms: C_8  and  N_9 
REMARK    4  A    between atoms: N_9  and  C_10 
REMARK    5  A    between atoms: C_10  and  C_11 
REMARK    6  A    between atoms: C_11  and  O_12 
REMARK    7  A    between atoms: C_11  and  C_13 
REMARK    8  A    between atoms: C_13  and  O_14 
REMARK    9  A    between atoms: O_14  and  C_15 
REMARK   10  A    between atoms: C_23  and  C_24 
ROOT
HETATM    1  C   UNL     1       3.273   4.993  -2.383  1.00  0.00     0.255 C 
HETATM    2  N   UNL     1       3.039   5.595  -1.167  1.00  0.00    -0.354 N 
HETATM    3  O   UNL     1       3.578   5.618  -3.392  1.00  0.00    -0.268 OA
HETATM    4  H   UNL     1       2.897   4.978  -0.375  1.00  0.00     0.162 HD
ENDROOT
BRANCH   2   5
HETATM    5  C   UNL     1       3.388   6.983  -0.881  1.00  0.00     0.156 C 
BRANCH   5   6
HETATM    6  C   UNL     1       2.762   8.069  -1.781  1.00  0.00     0.160 C 
BRANCH   6   7
HETATM    7  O   UNL     1       3.506   8.198  -2.999  1.00  0.00    -0.392 OA
HETATM    8  H   UNL     1       3.528   7.312  -3.424  1.00  0.00     0.210 HD
ENDBRANCH   6   7
BRANCH   6   9
HETATM    9  C   UNL     1       1.274   7.828  -2.065  1.00  0.00     0.209 C 
BRANCH   9  10
HETATM   10  O   UNL     1       0.700   9.019  -2.615  1.00  0.00    -0.349 OA
BRANCH  10  11
HETATM   11  C   UNL     1      -0.556   8.886  -3.143  1.00  0.00     0.069 A 
HETATM   12  C   UNL     1      -0.911   9.857  -4.084  1.00  0.00     0.043 A 
HETATM   13  C   UNL     1      -2.167   9.833  -4.703  1.00  0.00    -0.059 A 
HETATM   14  C   UNL     1      -2.546  10.876  -5.712  1.00  0.00     0.048 C 
HETATM   15  C   UNL     1      -3.083   8.840  -4.342  1.00  0.00     0.007 A 
HETATM   16  C   UNL     1      -2.740   7.879  -3.391  1.00  0.00     0.003 A 
HETATM   17  C   UNL     1      -1.479   7.900  -2.792  1.00  0.00     0.037 A 
ENDBRANCH  10  11
ENDBRANCH   9  10
ENDBRANCH   6   9
ENDBRANCH   5   6
ENDBRANCH   2   5
BRANCH   1  18
HETATM   18  C   UNL     1       3.178   3.550  -2.352  1.00  0.00     0.075 A 
HETATM   19  C   UNL     1       4.078   2.696  -1.678  1.00  0.00     0.158 A 
HETATM   20  N   UNL     1       3.799   1.408  -1.850  1.00  0.00    -0.183 NA
HETATM   21  N   UNL     1       2.748   1.416  -2.698  1.00  0.00    -0.268 N 
HETATM   22  C   UNL     1       2.274   2.688  -2.960  1.00  0.00     0.052 A 
BRANCH  21  23
HETATM   23  C   UNL     1       2.300   0.143  -3.262  1.00  0.00     0.106 C 
HETATM   24  C   UNL     1       3.379  -0.432  -4.187  1.00  0.00     0.034 C 
BRANCH  23  25
HETATM   25  C   UNL     1       1.898  -0.884  -2.188  1.00  0.00     0.022 C 
HETATM   26  C   UNL     1       0.690  -0.444  -1.372  1.00  0.00     0.007 C 
ENDBRANCH  23  25
ENDBRANCH  21  23
BRANCH  22  27
HETATM   27  C   UNL     1       1.002   2.998  -3.752  1.00  0.00     0.038 A 
HETATM   28  C   UNL     1       0.134   4.155  -3.304  1.00  0.00     0.011 A 
HETATM   29  C   UNL     1       0.871   4.242  -4.596  1.00  0.00     0.011 A 
ENDBRANCH  22  27
ENDBRANCH   1  18
TORSDOF 10
