REMARK  8 active torsions:
REMARK  status: ('A' for Active; 'I' for Inactive)
REMARK    1  A    between atoms: C_2  and  S_3 
REMARK    2  A    between atoms: C_2  and  C_24 
REMARK    3  A    between atoms: S_3  and  C_4 
REMARK    4  A    between atoms: N_5  and  C_6 
REMARK    5  A    between atoms: C_13  and  C_14 
REMARK    6  A    between atoms: C_14  and  N_15 
REMARK       I    between atoms: C_24  and  N_25 
REMARK    7  A    between atoms: N_25  and  C_26 
REMARK    8  A    between atoms: C_29  and  C_30 
REMARK       I    between atoms: C_30  and  N_31 
ROOT
HETATM    1  C   UNL     1       2.035   2.835   0.655  1.00  0.00     0.197 A 
HETATM    2  N   UNL     1       1.168   3.420  -0.251  1.00  0.00    -0.274 N 
HETATM    3  C   UNL     1       1.435   4.780  -0.134  1.00  0.00     0.161 A 
HETATM    4  N   UNL     1       2.392   4.971   0.754  1.00  0.00    -0.132 NA
HETATM    5  N   UNL     1       2.790   3.753   1.215  1.00  0.00    -0.122 NA
ENDROOT
BRANCH   1   6
HETATM    6  S   UNL     1       2.342   1.140   0.824  1.00  0.00    -0.076 SA
BRANCH   6   7
HETATM    7  C   UNL     1       1.567   0.692   2.417  1.00  0.00     0.143 C 
HETATM    8  C   UNL     1       2.452  -0.298   3.166  1.00  0.00     0.031 C 
BRANCH   7   9
HETATM    9  C   UNL     1       1.187   1.896   3.279  1.00  0.00     0.236 C 
HETATM   10  N   UNL     1       2.256   2.576   3.833  1.00  0.00    -0.326 N 
HETATM   11  H   UNL     1       3.146   2.457   3.360  1.00  0.00     0.169 HD
HETATM   12  O   UNL     1       0.006   2.234   3.368  1.00  0.00    -0.272 OA
BRANCH  10  13
HETATM   13  C   UNL     1       2.159   3.703   4.673  1.00  0.00     0.034 A 
HETATM   14  C   UNL     1       1.057   3.949   5.496  1.00  0.00     0.030 A 
HETATM   15  C   UNL     1       1.011   5.099   6.293  1.00  0.00     0.019 A 
HETATM   16  C   UNL     1       2.068   6.013   6.262  1.00  0.00     0.032 A 
HETATM   17  C   UNL     1       3.177   5.764   5.448  1.00  0.00     0.019 A 
HETATM   18  C   UNL     1       3.231   4.603   4.674  1.00  0.00     0.030 A 
BRANCH  16  19
HETATM   19  C   UNL     1       2.032   7.279   7.033  1.00  0.00     0.249 C 
HETATM   20  N   UNL     1       1.370   7.265   8.228  1.00  0.00    -0.366 N 
HETATM   21  H   UNL     1       1.116   6.406   8.696  1.00  0.00     0.159 HD
HETATM   22  H   UNL     1       1.451   8.098   8.799  1.00  0.00     0.159 HD
HETATM   23  O   UNL     1       2.591   8.287   6.620  1.00  0.00    -0.268 OA
ENDBRANCH  16  19
ENDBRANCH  10  13
ENDBRANCH   7   9
ENDBRANCH   6   7
ENDBRANCH   1   6
BRANCH   2  24
HETATM   24  C   UNL     1       0.217   2.805  -1.101  1.00  0.00     0.043 A 
HETATM   25  C   UNL     1      -0.640   1.816  -0.596  1.00  0.00     0.033 A 
HETATM   26  C   UNL     1      -1.566   1.204  -1.443  1.00  0.00     0.044 A 
HETATM   27  C   UNL     1      -1.631   1.577  -2.779  1.00  0.00     0.116 A 
HETATM   28  F   UNL     1      -2.516   0.985  -3.590  1.00  0.00    -0.206 F 
HETATM   29  C   UNL     1      -0.787   2.557  -3.290  1.00  0.00     0.044 A 
HETATM   30  C   UNL     1       0.142   3.177  -2.451  1.00  0.00     0.033 A 
ENDBRANCH   2  24
BRANCH   3  31
HETATM   31  C   UNL     1       0.659   5.884  -0.762  1.00  0.00     0.315 C 
BRANCH  31  32
HETATM   32  N   UNL     1       1.176   7.258  -0.341  1.00  0.00    -0.064 N 
HETATM   33  H   UNL     1       1.402   7.153   0.662  1.00  0.00     0.280 HD
HETATM   34  C   UNL     1       2.473   7.624  -1.029  1.00  0.00     0.235 C 
HETATM   35  C   UNL     1       3.009   8.922  -0.443  1.00  0.00     0.028 C 
HETATM   36  C   UNL     1       1.986  10.047  -0.548  1.00  0.00     0.003 C 
HETATM   37  C   UNL     1       0.660   9.644   0.087  1.00  0.00     0.028 C 
HETATM   38  C   UNL     1       0.132   8.333  -0.480  1.00  0.00     0.235 C 
ENDBRANCH  31  32
ENDBRANCH   3  31
TORSDOF 8
