REMARK  6 active torsions:
REMARK  status: ('A' for Active; 'I' for Inactive)
REMARK    1  A    between atoms: C_2  and  O_3 
REMARK    2  A    between atoms: O_3  and  C_4 
REMARK    3  A    between atoms: C_4  and  C_5 
REMARK    4  A    between atoms: C_6  and  O_7 
REMARK    5  A    between atoms: C_12  and  O_13 
REMARK    6  A    between atoms: C_17  and  C_18 
ROOT
HETATM    1  C   UNL     1       2.121   0.028  -2.893  1.00  0.00     0.133 C 
HETATM    2  C   UNL     1       1.329   0.588  -1.666  1.00  0.00     0.073 C 
HETATM    3  C   UNL     1       0.879   2.047  -1.847  1.00  0.00     0.047 C 
HETATM    4  C   UNL     1       0.099  -0.282  -1.275  1.00  0.00     0.097 C 
HETATM    5  C   UNL     1       0.489  -1.712  -1.274  1.00  0.00     0.042 A 
HETATM    6  C   UNL     1       1.542  -2.278  -1.958  1.00  0.00     0.030 A 
HETATM    7  C   UNL     1       1.511  -3.619  -1.537  1.00  0.00     0.190 A 
HETATM    8  N   UNL     1       0.524  -3.891  -0.691  1.00  0.00    -0.149 NA
HETATM    9  N   UNL     1      -0.086  -2.703  -0.535  1.00  0.00    -0.279 N 
HETATM   10  H   UNL     1      -0.871  -2.647   0.105  1.00  0.00     0.189 HD
HETATM   11  C   UNL     1       2.476  -1.491  -2.817  1.00  0.00     0.074 C 
ENDROOT
BRANCH  11  12
HETATM   12  C   UNL     1       2.579  -2.222  -4.151  1.00  0.00    -0.048 A 
HETATM   13  C   UNL     1       1.447  -2.707  -4.839  1.00  0.00     0.011 A 
HETATM   14  C   UNL     1       1.576  -3.366  -6.061  1.00  0.00     0.043 A 
HETATM   15  C   UNL     1       2.835  -3.535  -6.616  1.00  0.00     0.116 A 
HETATM   16  F   UNL     1       2.961  -4.161  -7.793  1.00  0.00    -0.206 F 
HETATM   17  C   UNL     1       3.968  -3.055  -5.969  1.00  0.00     0.043 A 
HETATM   18  C   UNL     1       3.842  -2.398  -4.743  1.00  0.00     0.011 A 
ENDBRANCH  11  12
BRANCH   1  19
HETATM   19  C   UNL     1       1.444   0.415  -4.193  1.00  0.00     0.267 C 
HETATM   20  O   UNL     1       0.258   0.264  -4.446  1.00  0.00    -0.265 OA
BRANCH  19  21
HETATM   21  O   UNL     1       2.359   1.007  -5.014  1.00  0.00    -0.316 OA
BRANCH  21  22
HETATM   22  C   UNL     1       1.887   1.500  -6.282  1.00  0.00     0.123 C 
HETATM   23  C   UNL     1       1.926   0.380  -7.312  1.00  0.00     0.040 C 
HETATM   24  C   UNL     1       2.820   2.636  -6.685  1.00  0.00     0.040 C 
ENDBRANCH  21  22
ENDBRANCH  19  21
ENDBRANCH   1  19
BRANCH   2  25
HETATM   25  O   UNL     1       2.230   0.592  -0.534  1.00  0.00    -0.389 OA
HETATM   26  H   UNL     1       2.879   1.308  -0.651  1.00  0.00     0.210 HD
ENDBRANCH   2  25
BRANCH   7  27
HETATM   27  O   UNL     1       2.313  -4.635  -1.861  1.00  0.00    -0.343 OA
HETATM   28  H   UNL     1       2.912  -4.359  -2.571  1.00  0.00     0.219 HD
ENDBRANCH   7  27
TORSDOF 6
