REMARK  3 active torsions:
REMARK  status: ('A' for Active; 'I' for Inactive)
REMARK    1  A    between atoms: C_4  and  C_5 
REMARK    2  A    between atoms: C_9  and  N_10 
REMARK       I    between atoms: N_10  and  C_11 
REMARK    3  A    between atoms: C_11  and  C_12 
ROOT
HETATM    1  C   UNL     1       5.342   2.399  -0.059  1.00  0.00     0.090 A 
HETATM    2  N   UNL     1       4.701   3.557  -0.301  1.00  0.00    -0.173 NA
HETATM    3  N   UNL     1       5.663   4.491  -0.270  1.00  0.00    -0.262 N 
HETATM    4  H   UNL     1       5.420   5.467  -0.426  1.00  0.00     0.191 HD
HETATM    5  C   UNL     1       6.912   3.987  -0.032  1.00  0.00     0.126 A 
HETATM    6  C   UNL     1       6.738   2.633   0.115  1.00  0.00     0.084 A 
ENDROOT
BRANCH   5   7
HETATM    7  N   UNL     1       8.060   4.746   0.027  1.00  0.00    -0.306 N 
HETATM    8  C   UNL     1       8.052   6.116  -0.174  1.00  0.00     0.281 C 
HETATM    9  O   UNL     1       7.064   6.793  -0.414  1.00  0.00    -0.265 OA
HETATM   10  H   UNL     1       8.962   4.304   0.188  1.00  0.00     0.170 HD
BRANCH   8  11
HETATM   11  C   UNL     1       9.448   6.733  -0.087  1.00  0.00     0.193 A 
HETATM   12  N   UNL     1      10.445   5.886   0.022  1.00  0.00    -0.241 NA
HETATM   13  C   UNL     1      11.730   6.388   0.087  1.00  0.00     0.054 A 
HETATM   14  C   UNL     1      12.801   5.335   0.209  1.00  0.00     0.072 C 
HETATM   15  C   UNL     1      12.022   7.707   0.042  1.00  0.00     0.033 A 
HETATM   16  C   UNL     1      13.400   8.303   0.101  1.00  0.00     0.070 C 
HETATM   17  N   UNL     1      10.996   8.613  -0.063  1.00  0.00    -0.324 N 
HETATM   18  C   UNL     1       9.676   8.240  -0.121  1.00  0.00     0.280 A 
HETATM   19  H   UNL     1      11.179   9.609  -0.089  1.00  0.00     0.169 HD
HETATM   20  O   UNL     1       8.765   9.048  -0.184  1.00  0.00    -0.265 OA
ENDBRANCH   8  11
ENDBRANCH   5   7
BRANCH   1  21
HETATM   21  C   UNL     1       4.623   1.120  -0.013  1.00  0.00    -0.005 A 
HETATM   22  C   UNL     1       3.349   1.005  -0.592  1.00  0.00     0.020 A 
HETATM   23  C   UNL     1       2.648  -0.208  -0.570  1.00  0.00    -0.061 A 
HETATM   24  C   UNL     1       1.288  -0.322  -1.192  1.00  0.00     0.048 C 
HETATM   25  C   UNL     1       3.230  -1.319   0.051  1.00  0.00     0.013 A 
HETATM   26  C   UNL     1       4.496  -1.229   0.642  1.00  0.00    -0.061 A 
HETATM   27  C   UNL     1       5.185  -0.007   0.605  1.00  0.00     0.020 A 
HETATM   28  C   UNL     1       5.092  -2.432   1.313  1.00  0.00     0.048 C 
ENDBRANCH   1  21
TORSDOF 3
