REMARK  3 active torsions:
REMARK  status: ('A' for Active; 'I' for Inactive)
REMARK    1  A    between atoms: C_8  and  N_9 
REMARK       I    between atoms: N_9  and  C_10 
REMARK       I    between atoms: C_10  and  N_11 
REMARK    2  A    between atoms: N_11  and  C_12 
REMARK    3  A    between atoms: C_13  and  O_14 
ROOT
HETATM    1  N   UNL     1       2.544  -2.206   0.261  1.00  0.00    -0.305 N 
HETATM    2  C   UNL     1       1.310  -2.668  -0.158  1.00  0.00     0.325 C 
HETATM    3  N   UNL     1       0.363  -1.668  -0.040  1.00  0.00    -0.306 N 
HETATM    4  O   UNL     1       1.086  -3.794  -0.583  1.00  0.00    -0.247 OA
HETATM    5  H   UNL     1       2.715  -1.226   0.095  1.00  0.00     0.171 HD
HETATM    6  H   UNL     1       0.524  -0.984   0.690  1.00  0.00     0.171 HD
ENDROOT
BRANCH   1   7
HETATM    7  C   UNL     1       3.656  -3.000   0.481  1.00  0.00     0.086 A 
HETATM    8  C   UNL     1       4.949  -2.516   0.431  1.00  0.00     0.052 A 
HETATM    9  C   UNL     1       5.513  -1.182   0.124  1.00  0.00     0.072 C 
HETATM   10  N   UNL     1       5.753  -3.584   0.714  1.00  0.00    -0.280 N 
HETATM   11  H   UNL     1       6.766  -3.613   0.751  1.00  0.00     0.189 HD
HETATM   12  N   UNL     1       5.086  -4.712   0.977  1.00  0.00    -0.177 NA
HETATM   13  C   UNL     1       3.796  -4.372   0.840  1.00  0.00     0.079 A 
HETATM   14  C   UNL     1       2.755  -5.391   1.132  1.00  0.00     0.075 C 
ENDBRANCH   1   7
BRANCH   3  15
HETATM   15  C   UNL     1      -0.960  -1.691  -0.534  1.00  0.00     0.071 A 
HETATM   16  C   UNL     1      -1.883  -0.802   0.050  1.00  0.00     0.095 A 
HETATM   17  C   UNL     1      -3.193  -0.734  -0.431  1.00  0.00     0.040 A 
HETATM   18  C   UNL     1      -3.594  -1.569  -1.476  1.00  0.00     0.022 A 
HETATM   19  C   UNL     1      -2.682  -2.460  -2.040  1.00  0.00     0.013 A 
HETATM   20 BR   UNL     1      -3.232  -3.575  -3.466  1.00  0.00    -0.051 Br
HETATM   21  C   UNL     1      -1.368  -2.525  -1.578  1.00  0.00     0.051 A 
BRANCH  16  22
HETATM   22  O   UNL     1      -1.410  -0.011   1.072  1.00  0.00    -0.354 OA
HETATM   23  C   UNL     1      -2.347   0.205   2.125  1.00  0.00     0.210 C 
ENDBRANCH  16  22
ENDBRANCH   3  15
TORSDOF 3
