REMARK  7 active torsions:
REMARK  status: ('A' for Active; 'I' for Inactive)
REMARK    1  A    between atoms: C_4  and  C_5 
REMARK    2  A    between atoms: C_5  and  N_6 
REMARK       I    between atoms: N_6  and  C_7 
REMARK       I    between atoms: C_7  and  N_8 
REMARK    3  A    between atoms: N_8  and  C_9 
REMARK    4  A    between atoms: C_9  and  C_10 
REMARK    5  A    between atoms: C_12  and  O_13 
REMARK    6  A    between atoms: O_13  and  C_14 
REMARK    7  A    between atoms: C_23  and  O_24 
ROOT
HETATM    1  N   UNL     1       5.969   2.489  -1.350  1.00  0.00    -0.335 N 
HETATM    2  C   UNL     1       6.644   1.621  -2.146  1.00  0.00     0.316 C 
HETATM    3  N   UNL     1       6.881   0.388  -1.635  1.00  0.00    -0.339 N 
HETATM    4  O   UNL     1       7.040   1.868  -3.280  1.00  0.00    -0.247 OA
HETATM    5  H   UNL     1       6.065   2.333  -0.362  1.00  0.00     0.165 HD
HETATM    6  H   UNL     1       7.317  -0.216  -2.321  1.00  0.00     0.164 HD
ENDROOT
BRANCH   1   7
HETATM    7  C   UNL     1       5.658   3.884  -1.677  1.00  0.00     0.118 C 
HETATM    8  C   UNL     1       5.284   4.153  -3.135  1.00  0.00     0.037 C 
BRANCH   7   9
HETATM    9  C   UNL     1       6.727   4.848  -1.175  1.00  0.00    -0.002 A 
HETATM   10  C   UNL     1       8.090   4.596  -1.427  1.00  0.00     0.018 A 
HETATM   11  C   UNL     1       9.092   5.455  -0.963  1.00  0.00    -0.061 A 
HETATM   12  C   UNL     1      10.533   5.162  -1.258  1.00  0.00     0.048 C 
HETATM   13  C   UNL     1       8.724   6.612  -0.277  1.00  0.00     0.009 A 
HETATM   14  C   UNL     1       7.377   6.896  -0.041  1.00  0.00     0.038 A 
HETATM   15  C   UNL     1       6.374   6.027  -0.485  1.00  0.00     0.076 A 
BRANCH  15  16
HETATM   16  O   UNL     1       5.032   6.240  -0.298  1.00  0.00    -0.355 OA
HETATM   17  C   UNL     1       4.638   7.455   0.326  1.00  0.00     0.210 C 
ENDBRANCH  15  16
ENDBRANCH   7   9
ENDBRANCH   1   7
BRANCH   3  18
HETATM   18  C   UNL     1       6.371  -0.245  -0.439  1.00  0.00     0.163 C 
BRANCH  18  19
HETATM   19  C   UNL     1       5.212  -1.150  -0.752  1.00  0.00    -0.035 A 
HETATM   20  C   UNL     1       3.927  -0.628  -0.927  1.00  0.00     0.066 A 
HETATM   21  C   UNL     1       2.888  -1.502  -1.207  1.00  0.00     0.164 A 
HETATM   22  N   UNL     1       3.038  -2.836  -1.333  1.00  0.00    -0.237 NA
HETATM   23  C   UNL     1       4.289  -3.317  -1.184  1.00  0.00     0.120 A 
HETATM   24  C   UNL     1       5.393  -2.528  -0.898  1.00  0.00     0.028 A 
BRANCH  21  25
HETATM   25  O   UNL     1       1.632  -0.943  -1.352  1.00  0.00    -0.329 OA
BRANCH  25  26
HETATM   26  C   UNL     1       0.546  -1.870  -1.559  1.00  0.00     0.130 C 
HETATM   27  C   UNL     1       0.039  -2.649  -0.315  1.00  0.00     0.032 C 
HETATM   28  C   UNL     1      -1.391  -2.445  -0.845  1.00  0.00     0.005 C 
HETATM   29  C   UNL     1      -0.861  -1.218  -1.607  1.00  0.00     0.032 C 
ENDBRANCH  25  26
ENDBRANCH  21  25
ENDBRANCH  18  19
ENDBRANCH   3  18
TORSDOF 7
