REMARK  8 active torsions:
REMARK  status: ('A' for Active; 'I' for Inactive)
REMARK    1  A    between atoms: C_2  and  C_3 
REMARK    2  A    between atoms: C_3  and  C_4 
REMARK    3  A    between atoms: C_4  and  N_5 
REMARK    4  A    between atoms: N_5  and  C_6 
REMARK    5  A    between atoms: C_8  and  N_9 
REMARK    6  A    between atoms: N_9  and  C_10 
REMARK    7  A    between atoms: C_10  and  C_11 
REMARK    8  A    between atoms: C_12  and  O_13 
ROOT
HETATM    1  C   UNL     1       6.588  -2.399   2.378  1.00  0.00     0.181 A 
HETATM    2  N   UNL     1       7.105  -3.634   2.511  1.00  0.00    -0.207 NA
HETATM    3  C   UNL     1       8.444  -3.749   2.604  1.00  0.00     0.119 A 
HETATM    4  C   UNL     1       9.297  -2.624   2.613  1.00  0.00     0.031 A 
HETATM    5  C   UNL     1       8.683  -1.374   2.415  1.00  0.00     0.048 A 
HETATM    6  N   UNL     1       7.353  -1.313   2.296  1.00  0.00    -0.330 N 
HETATM    7  H   UNL     1       6.886  -0.434   2.121  1.00  0.00     0.168 HD
HETATM    8  C   UNL     1      10.697  -2.637   2.823  1.00  0.00     0.017 A 
HETATM    9  C   UNL     1      11.450  -1.462   2.774  1.00  0.00     0.001 A 
HETATM   10  C   UNL     1      10.826  -0.244   2.529  1.00  0.00     0.002 A 
HETATM   11  C   UNL     1       9.444  -0.196   2.357  1.00  0.00     0.030 A 
ENDROOT
BRANCH   3  12
HETATM   12  N   UNL     1       8.905  -5.058   2.708  1.00  0.00    -0.272 NA
HETATM   13  H   UNL     1       8.103  -5.680   2.770  1.00  0.00     0.129 HD
BRANCH  12  14
HETATM   14  C   UNL     1       9.853  -5.492   1.668  1.00  0.00     0.135 C 
BRANCH  14  15
HETATM   15  C   UNL     1       9.487  -6.804   1.001  1.00  0.00    -0.012 A 
HETATM   16  C   UNL     1      10.515  -7.672   0.566  1.00  0.00     0.075 A 
HETATM   17  C   UNL     1      10.191  -8.862  -0.094  1.00  0.00     0.037 A 
HETATM   18  C   UNL     1       8.859  -9.184  -0.356  1.00  0.00     0.003 A 
HETATM   19  C   UNL     1       7.843  -8.315   0.026  1.00  0.00     0.001 A 
HETATM   20  C   UNL     1       8.154  -7.127   0.688  1.00  0.00     0.011 A 
BRANCH  16  21
HETATM   21  O   UNL     1      11.797  -7.255   0.820  1.00  0.00    -0.355 OA
HETATM   22  C   UNL     1      12.862  -8.031   0.280  1.00  0.00     0.210 C 
ENDBRANCH  16  21
ENDBRANCH  14  15
ENDBRANCH  12  14
ENDBRANCH   3  12
BRANCH   1  23
HETATM   23  N   UNL     1       5.220  -2.184   2.288  1.00  0.00    -0.262 NA
HETATM   24  H   UNL     1       4.893  -1.372   2.802  1.00  0.00     0.130 HD
BRANCH  23  25
HETATM   25  C   UNL     1       4.377  -3.357   2.532  1.00  0.00     0.095 C 
BRANCH  25  26
HETATM   26  C   UNL     1       2.898  -2.966   2.430  1.00  0.00     0.014 C 
BRANCH  26  27
HETATM   27  C   UNL     1       2.480  -2.608   1.002  1.00  0.00    -0.003 C 
HETATM   28  C   UNL     1       1.014  -2.207   0.938  1.00  0.00     0.005 C 
ENDBRANCH  26  27
ENDBRANCH  25  26
ENDBRANCH  23  25
ENDBRANCH   1  23
TORSDOF 8
