REMARK  5 active torsions:
REMARK  status: ('A' for Active; 'I' for Inactive)
REMARK    1  A    between atoms: C_11  and  N_12 
REMARK    2  A    between atoms: N_12  and  N_13 
REMARK       I    between atoms: N_13  and  C_14 
REMARK    3  A    between atoms: C_14  and  C_15 
REMARK    4  A    between atoms: C_15  and  C_16 
REMARK    5  A    between atoms: N_23  and  C_24 
ROOT
HETATM    1  C   UNL     1       1.232  -0.387   0.290  1.00  0.00     0.046 C 
HETATM    2  C   UNL     1       2.699  -0.142  -0.088  1.00  0.00     0.058 C 
HETATM    3  C   UNL     1       2.815  -0.178  -1.621  1.00  0.00     0.046 C 
HETATM    4  O   UNL     1       3.448  -1.220   0.518  1.00  0.00    -0.376 OA
HETATM    5  C   UNL     1       4.868  -1.215   0.274  1.00  0.00     0.215 C 
HETATM    6  C   UNL     1       5.406   0.163   0.476  1.00  0.00     0.016 A 
HETATM    7  C   UNL     1       4.643   1.310   0.566  1.00  0.00    -0.021 A 
HETATM    8  C   UNL     1       5.461   2.468   0.752  1.00  0.00     0.077 A 
HETATM    9  C   UNL     1       6.799   2.161   0.760  1.00  0.00     0.133 A 
HETATM   10  N   UNL     1       7.826   3.022   0.933  1.00  0.00    -0.054 NA
HETATM   11  C   UNL     1       7.501   4.284   1.104  1.00  0.00     0.730 A 
HETATM   12  N   UNL     1       6.163   4.747   1.049  1.00  0.00    -0.107 N 
HETATM   13  C   UNL     1       5.077   3.857   0.914  1.00  0.00     0.280 A 
HETATM   14  O   UNL     1       3.891   4.179   0.892  1.00  0.00    -0.266 OA
HETATM   15  S   UNL     1       7.074   0.486   0.564  1.00  0.00    -0.071 SA
HETATM   16  C   UNL     1       3.149   1.225   0.499  1.00  0.00     0.078 C 
ENDROOT
BRANCH  11  17
HETATM   17  N   UNL     1       8.529   5.159   1.419  1.00  0.00    -0.127 N 
HETATM   18  H   UNL     1       8.378   6.167   1.438  1.00  0.00     0.206 HD
BRANCH  17  19
HETATM   19  N   UNL     1       9.822   4.787   1.016  1.00  0.00    -0.255 N 
HETATM   20  C   UNL     1      10.592   5.781   0.442  1.00  0.00     0.240 C 
HETATM   21  O   UNL     1      10.218   6.954   0.398  1.00  0.00    -0.272 OA
HETATM   22  H   UNL     1       9.931   3.799   0.785  1.00  0.00     0.190 HD
BRANCH  20  23
HETATM   23  C   UNL     1      11.934   5.310  -0.086  1.00  0.00     0.143 C 
BRANCH  23  24
HETATM   24  C   UNL     1      12.036   5.289  -1.593  1.00  0.00    -0.049 A 
HETATM   25  C   UNL     1      11.766   6.437  -2.352  1.00  0.00     0.007 A 
HETATM   26  C   UNL     1      11.908   6.422  -3.741  1.00  0.00     0.001 A 
HETATM   27  C   UNL     1      12.335   5.265  -4.387  1.00  0.00     0.000 A 
HETATM   28  C   UNL     1      12.618   4.121  -3.644  1.00  0.00     0.001 A 
HETATM   29  C   UNL     1      12.471   4.132  -2.255  1.00  0.00     0.007 A 
ENDBRANCH  23  24
ENDBRANCH  20  23
ENDBRANCH  17  19
ENDBRANCH  11  17
BRANCH  12  30
HETATM   30  C   UNL     1       5.864   6.150   1.075  1.00  0.00     0.060 A 
HETATM   31  C   UNL     1       4.882   6.659   1.937  1.00  0.00     0.030 A 
HETATM   32  C   UNL     1       4.598   8.026   1.964  1.00  0.00     0.002 A 
HETATM   33  C   UNL     1       5.281   8.899   1.121  1.00  0.00     0.000 A 
HETATM   34  C   UNL     1       6.243   8.406   0.243  1.00  0.00     0.002 A 
HETATM   35  C   UNL     1       6.528   7.039   0.214  1.00  0.00     0.030 A 
ENDBRANCH  12  30
TORSDOF 5
