REMARK  6 active torsions:
REMARK  status: ('A' for Active; 'I' for Inactive)
REMARK    1  A    between atoms: C_3  and  N_4 
REMARK       I    between atoms: N_4  and  C_5 
REMARK    2  A    between atoms: C_5  and  C_6 
REMARK       I    between atoms: C_6  and  N_7 
REMARK    3  A    between atoms: N_7  and  C_8 
REMARK    4  A    between atoms: C_9  and  C_10 
REMARK    5  A    between atoms: C_23  and  C_24 
REMARK       I    between atoms: C_24  and  N_25 
REMARK    6  A    between atoms: N_25  and  C_26 
ROOT
HETATM    1  N   UNL     1       3.307   2.317   1.014  1.00  0.00    -0.318 N 
HETATM    2  C   UNL     1       3.386   3.555   0.409  1.00  0.00     0.314 C 
HETATM    3  O   UNL     1       3.691   3.837  -0.740  1.00  0.00    -0.262 OA
HETATM    4  H   UNL     1       3.001   2.364   1.983  1.00  0.00     0.169 HD
ENDROOT
BRANCH   2   5
HETATM    5  C   UNL     1       3.015   4.691   1.385  1.00  0.00     0.314 C 
HETATM    6  N   UNL     1       3.118   5.932   0.810  1.00  0.00    -0.316 N 
HETATM    7  H   UNL     1       3.418   5.982  -0.169  1.00  0.00     0.169 HD
HETATM    8  O   UNL     1       2.678   4.395   2.526  1.00  0.00    -0.262 OA
BRANCH   6   9
HETATM    9  C   UNL     1       2.854   7.144   1.417  1.00  0.00     0.085 A 
HETATM   10  C   UNL     1       2.950   8.439   0.808  1.00  0.00     0.133 A 
HETATM   11  N   UNL     1       2.615   9.400   1.692  1.00  0.00    -0.171 NA
HETATM   12  N   UNL     1       2.325   8.729   2.819  1.00  0.00    -0.286 N 
HETATM   13  H   UNL     1       2.044   9.262   3.635  1.00  0.00     0.188 HD
HETATM   14  C   UNL     1       2.449   7.379   2.706  1.00  0.00     0.141 A 
BRANCH  10  15
HETATM   15  C   UNL     1       3.348   8.732  -0.578  1.00  0.00     0.089 A 
HETATM   16  N   UNL     1       3.706   7.659  -1.339  1.00  0.00    -0.259 NA
HETATM   17  C   UNL     1       4.078   7.901  -2.615  1.00  0.00     0.117 A 
HETATM   18  C   UNL     1       4.108   9.164  -3.181  1.00  0.00     0.019 A 
HETATM   19  C   UNL     1       3.738  10.248  -2.394  1.00  0.00     0.004 A 
HETATM   20  C   UNL     1       3.353  10.033  -1.072  1.00  0.00     0.034 A 
ENDBRANCH  10  15
ENDBRANCH   6   9
ENDBRANCH   2   5
BRANCH   1  21
HETATM   21  C   UNL     1       3.598   1.052   0.466  1.00  0.00     0.042 A 
HETATM   22  C   UNL     1       3.415  -0.094   1.272  1.00  0.00    -0.035 A 
HETATM   23  C   UNL     1       2.906  -0.008   2.688  1.00  0.00     0.050 C 
HETATM   24  C   UNL     1       3.727  -1.362   0.752  1.00  0.00     0.010 A 
HETATM   25  C   UNL     1       4.206  -1.504  -0.550  1.00  0.00     0.017 A 
HETATM   26  C   UNL     1       4.369  -0.375  -1.357  1.00  0.00     0.034 A 
HETATM   27  C   UNL     1       4.075   0.896  -0.841  1.00  0.00     0.047 A 
BRANCH  26  28
HETATM   28  C   UNL     1       4.891  -0.473  -2.750  1.00  0.00     0.252 C 
HETATM   29  N   UNL     1       4.632  -1.656  -3.419  1.00  0.00    -0.352 N 
HETATM   30  H   UNL     1       3.978  -2.317  -3.022  1.00  0.00     0.163 HD
HETATM   31  O   UNL     1       5.493   0.472  -3.248  1.00  0.00    -0.268 OA
BRANCH  29  32
HETATM   32  C   UNL     1       5.038  -1.858  -4.774  1.00  0.00     0.084 A 
HETATM   33  C   UNL     1       6.474  -2.140  -5.115  1.00  0.00     0.027 A 
HETATM   34  C   UNL     1       5.447  -3.225  -5.249  1.00  0.00     0.027 A 
ENDBRANCH  29  32
ENDBRANCH  26  28
ENDBRANCH   1  21
TORSDOF 6
