REMARK  3 active torsions:
REMARK  status: ('A' for Active; 'I' for Inactive)
REMARK    1  A    between atoms: C_2  and  C_3 
REMARK    2  A    between atoms: C_9  and  C_10 
REMARK    3  A    between atoms: C_23  and  N_24 
ROOT
HETATM    1  C   UNL     1       2.603   1.013   1.208  1.00  0.00     0.066 A 
HETATM    2  N   UNL     1       3.289   0.680   2.316  1.00  0.00    -0.177 NA
HETATM    3  N   UNL     1       3.661   1.862   2.847  1.00  0.00    -0.256 N 
HETATM    4  H   UNL     1       4.213   1.865   3.697  1.00  0.00     0.191 HD
HETATM    5  C   UNL     1       3.249   2.921   2.107  1.00  0.00     0.175 A 
HETATM    6  C   UNL     1       2.530   2.419   1.053  1.00  0.00     0.035 A 
HETATM    7  C   UNL     1       1.952   3.346   0.038  1.00  0.00     0.106 A 
HETATM    8  C   UNL     1       2.404   4.786   0.315  1.00  0.00     0.081 A 
HETATM    9  C   UNL     1       2.052   5.761  -0.663  1.00  0.00     0.100 C 
HETATM   10  N   UNL     1       1.768   6.562  -1.454  1.00  0.00    -0.191 NA
HETATM   11  C   UNL     1       3.136   5.135   1.410  1.00  0.00     0.140 A 
HETATM   12  O   UNL     1       3.536   4.189   2.372  1.00  0.00    -0.279 OA
ENDROOT
BRANCH   7  13
HETATM   13  C   UNL     1       0.432   3.173   0.120  1.00  0.00    -0.033 A 
HETATM   14  C   UNL     1      -0.345   2.672  -0.973  1.00  0.00    -0.019 A 
HETATM   15  C   UNL     1      -1.754   2.561  -0.810  1.00  0.00    -0.025 A 
HETATM   16  C   UNL     1       0.181   2.267  -2.226  1.00  0.00     0.013 A 
HETATM   17  C   UNL     1      -2.556   2.065  -1.850  1.00  0.00     0.012 A 
HETATM   18  C   UNL     1      -2.361   2.946   0.392  1.00  0.00     0.012 A 
HETATM   19  C   UNL     1      -2.000   1.671  -3.063  1.00  0.00     0.001 A 
HETATM   20  C   UNL     1      -0.631   1.773  -3.251  1.00  0.00     0.001 A 
HETATM   21  C   UNL     1      -1.607   3.439   1.448  1.00  0.00     0.001 A 
HETATM   22  C   UNL     1      -0.229   3.551   1.314  1.00  0.00     0.009 A 
ENDBRANCH   7  13
BRANCH  11  23
HETATM   23  N   UNL     1       3.566   6.408   1.709  1.00  0.00    -0.282 NA
HETATM   24  H   UNL     1       3.024   7.164   1.297  1.00  0.00     0.126 HD
HETATM   25  H   UNL     1       3.734   6.533   2.704  1.00  0.00     0.126 HD
ENDBRANCH  11  23
BRANCH   1  26
HETATM   26  C   UNL     1       2.066  -0.058   0.319  1.00  0.00     0.057 C 
HETATM   27  C   UNL     1       0.756  -0.643   0.821  1.00  0.00     0.011 C 
ENDBRANCH   1  26
TORSDOF 3
