REMARK  8 active torsions:
REMARK  status: ('A' for Active; 'I' for Inactive)
REMARK    1  A    between atoms: C_2  and  C_4 
REMARK    2  A    between atoms: C_2  and  C_29 
REMARK    3  A    between atoms: C_2  and  O_3 
REMARK    4  A    between atoms: N_11  and  C_13 
REMARK    5  A    between atoms: C_13  and  C_14 
REMARK    6  A    between atoms: C_16  and  S_17 
REMARK    7  A    between atoms: S_17  and  C_18 
REMARK    8  A    between atoms: C_29  and  N_30 
ROOT
HETATM    1  C   UNL     1       3.113  -1.230  -0.571  1.00  0.00    -0.022 A 
HETATM    2  C   UNL     1       3.701  -0.979  -1.828  1.00  0.00     0.022 A 
HETATM    3  C   UNL     1       4.018  -2.017  -2.722  1.00  0.00     0.002 A 
HETATM    4  C   UNL     1       3.766  -3.331  -2.337  1.00  0.00     0.076 A 
HETATM    5  O   UNL     1       4.107  -4.380  -3.144  1.00  0.00    -0.349 OA
HETATM    6  C   UNL     1       3.263  -4.472  -4.300  1.00  0.00     0.203 C 
HETATM    7  C   UNL     1       3.795  -3.637  -5.474  1.00  0.00     0.262 C 
HETATM    8  N   UNL     1       3.697  -2.141  -5.232  1.00  0.00    -0.059 N 
HETATM    9  H   UNL     1       4.117  -1.680  -6.049  1.00  0.00     0.280 HD
HETATM   10  C   UNL     1       4.584  -1.710  -4.078  1.00  0.00     0.276 C 
HETATM   11  C   UNL     1       3.209  -3.612  -1.094  1.00  0.00     0.038 A 
HETATM   12  C   UNL     1       2.856  -2.569  -0.230  1.00  0.00     0.013 A 
ENDROOT
BRANCH   8  13
HETATM   13  C   UNL     1       2.263  -1.637  -5.187  1.00  0.00     0.299 C 
BRANCH  13  14
HETATM   14  C   UNL     1       2.090  -0.171  -5.353  1.00  0.00     0.080 A 
HETATM   15  O   UNL     1       2.799   0.628  -4.514  1.00  0.00    -0.306 OA
HETATM   16  C   UNL     1       2.564   1.928  -4.862  1.00  0.00     0.120 A 
HETATM   17  C   UNL     1       1.612   1.956  -5.860  1.00  0.00     0.047 A 
HETATM   18  C   UNL     1       1.313   0.607  -6.184  1.00  0.00     0.038 A 
BRANCH  16  19
HETATM   19  S   UNL     1       3.400   3.261  -4.112  1.00  0.00    -0.025 SA
BRANCH  19  20
HETATM   20  C   UNL     1       4.998   2.831  -4.627  1.00  0.00     0.197 A 
HETATM   21  N   UNL     1       5.990   3.739  -4.867  1.00  0.00    -0.322 N 
HETATM   22  C   UNL     1       5.945   5.172  -4.738  1.00  0.00     0.159 C 
HETATM   23  C   UNL     1       7.067   3.005  -5.273  1.00  0.00     0.235 A 
HETATM   24  N   UNL     1       6.764   1.726  -5.251  1.00  0.00    -0.143 NA
HETATM   25  N   UNL     1       5.460   1.617  -4.838  1.00  0.00    -0.123 NA
ENDBRANCH  19  20
ENDBRANCH  16  19
ENDBRANCH  13  14
ENDBRANCH   8  13
BRANCH   1  26
HETATM   26  C   UNL     1       2.698  -0.059   0.327  1.00  0.00     0.105 C 
HETATM   27  C   UNL     1       1.240   0.313   0.008  1.00  0.00     0.053 C 
BRANCH  26  28
HETATM   28  C   UNL     1       2.827  -0.327   1.865  1.00  0.00     0.276 C 
BRANCH  28  29
HETATM   29  N   UNL     1       4.214  -0.797   2.315  1.00  0.00    -0.076 N 
HETATM   30  H   UNL     1       4.479  -1.603   1.735  1.00  0.00     0.279 HD
HETATM   31  C   UNL     1       5.301   0.229   2.114  1.00  0.00     0.269 C 
HETATM   32  C   UNL     1       4.182  -1.270   3.744  1.00  0.00     0.269 C 
ENDBRANCH  28  29
ENDBRANCH  26  28
BRANCH  26  33
HETATM   33  O   UNL     1       3.532   1.075   0.030  1.00  0.00    -0.384 OA
HETATM   34  H   UNL     1       2.995   1.768  -0.397  1.00  0.00     0.211 HD
ENDBRANCH  26  33
ENDBRANCH   1  26
TORSDOF 8
