REMARK  9 active torsions:
REMARK  status: ('A' for Active; 'I' for Inactive)
REMARK    1  A    between atoms: C_4  and  S_5 
REMARK    2  A    between atoms: S_5  and  C_6 
REMARK    3  A    between atoms: C_6  and  C_7 
REMARK       I    between atoms: C_7  and  N_8 
REMARK    4  A    between atoms: N_8  and  C_9 
REMARK    5  A    between atoms: C_10  and  O_11 
REMARK    6  A    between atoms: C_16  and  O_17 
REMARK    7  A    between atoms: C_24  and  C_25 
REMARK    8  A    between atoms: C_31  and  C_32 
REMARK       I    between atoms: C_32  and  N_33 
REMARK    9  A    between atoms: N_33  and  C_34 
ROOT
HETATM    1  C   UNL     1       0.939  -0.274  -0.269  1.00  0.00     0.069 C 
HETATM    2  C   UNL     1       2.445  -0.298  -0.220  1.00  0.00     0.019 C 
HETATM    3  N   UNL     1       3.070   0.936  -0.106  1.00  0.00    -0.353 N 
HETATM    4  C   UNL     1       4.413   1.153  -0.363  1.00  0.00     0.087 C 
HETATM    5  C   UNL     1       5.244   0.091  -0.436  1.00  0.00     0.055 C 
HETATM    6  C   UNL     1       6.707   0.210  -0.831  1.00  0.00     0.019 C 
HETATM    7  N   UNL     1       7.920   0.308  -1.159  1.00  0.00    -0.096 N 
HETATM    8  C   UNL     1       4.724  -1.320  -0.179  1.00  0.00     0.104 C 
HETATM    9  C   UNL     1       3.202  -1.421  -0.285  1.00  0.00     0.046 C 
HETATM   10  H   UNL     1       2.486   1.768  -0.119  1.00  0.00     0.166 HD
ENDROOT
BRANCH   4  11
HETATM   11  S   UNL     1       5.015   2.776  -0.549  1.00  0.00    -0.102 SA
BRANCH  11  12
HETATM   12  C   UNL     1       4.868   2.995  -2.361  1.00  0.00     0.184 C 
BRANCH  12  13
HETATM   13  C   UNL     1       4.697   4.487  -2.586  1.00  0.00     0.231 C 
HETATM   14  N   UNL     1       3.370   4.874  -2.592  1.00  0.00    -0.324 N 
HETATM   15  H   UNL     1       2.670   4.256  -2.990  1.00  0.00     0.169 HD
HETATM   16  O   UNL     1       5.652   5.259  -2.619  1.00  0.00    -0.272 OA
BRANCH  14  17
HETATM   17  C   UNL     1       2.837   5.932  -1.820  1.00  0.00     0.071 A 
HETATM   18  C   UNL     1       1.451   6.150  -1.891  1.00  0.00     0.096 A 
HETATM   19  C   UNL     1       0.851   7.063  -1.026  1.00  0.00     0.065 A 
HETATM   20  C   UNL     1       1.634   7.767  -0.105  1.00  0.00     0.070 A 
HETATM   21 CL   UNL     1       0.823   8.849   0.976  1.00  0.00    -0.081 Cl
HETATM   22  C   UNL     1       3.023   7.582  -0.044  1.00  0.00     0.092 A 
HETATM   23  C   UNL     1       3.616   6.667  -0.919  1.00  0.00     0.071 A 
BRANCH  18  24
HETATM   24  O   UNL     1       0.757   5.375  -2.792  1.00  0.00    -0.354 OA
HETATM   25  C   UNL     1      -0.403   5.994  -3.345  1.00  0.00     0.210 C 
ENDBRANCH  18  24
BRANCH  22  26
HETATM   26  O   UNL     1       3.707   8.297   0.905  1.00  0.00    -0.354 OA
HETATM   27  C   UNL     1       5.113   8.091   1.001  1.00  0.00     0.210 C 
ENDBRANCH  22  26
ENDBRANCH  14  17
ENDBRANCH  12  13
ENDBRANCH  11  12
ENDBRANCH   4  11
BRANCH   8  28
HETATM   28  C   UNL     1       5.251  -1.812   1.175  1.00  0.00    -0.044 A 
HETATM   29  C   UNL     1       4.691  -1.364   2.385  1.00  0.00     0.008 A 
HETATM   30  C   UNL     1       5.191  -1.807   3.610  1.00  0.00     0.001 A 
HETATM   31  C   UNL     1       6.265  -2.692   3.644  1.00  0.00     0.000 A 
HETATM   32  C   UNL     1       6.840  -3.134   2.455  1.00  0.00     0.001 A 
HETATM   33  C   UNL     1       6.340  -2.697   1.227  1.00  0.00     0.008 A 
ENDBRANCH   8  28
BRANCH   9  34
HETATM   34  C   UNL     1       2.596  -2.732  -0.686  1.00  0.00     0.255 C 
HETATM   35  N   UNL     1       3.134  -3.826  -0.051  1.00  0.00    -0.323 N 
HETATM   36  H   UNL     1       3.808  -3.665   0.687  1.00  0.00     0.169 HD
HETATM   37  O   UNL     1       1.741  -2.748  -1.567  1.00  0.00    -0.268 OA
BRANCH  35  38
HETATM   38  C   UNL     1       2.879  -5.187  -0.327  1.00  0.00     0.035 A 
HETATM   39  C   UNL     1       1.907  -5.636  -1.222  1.00  0.00     0.029 A 
HETATM   40  C   UNL     1       1.734  -7.004  -1.454  1.00  0.00     0.002 A 
HETATM   41  C   UNL     1       2.537  -7.935  -0.801  1.00  0.00     0.000 A 
HETATM   42  C   UNL     1       3.510  -7.498   0.095  1.00  0.00     0.002 A 
HETATM   43  C   UNL     1       3.674  -6.132   0.336  1.00  0.00     0.029 A 
ENDBRANCH  35  38
ENDBRANCH   9  34
TORSDOF 9
