REMARK  6 active torsions:
REMARK  status: ('A' for Active; 'I' for Inactive)
REMARK    1  A    between atoms: C_9  and  O_10 
REMARK    2  A    between atoms: O_10  and  C_11 
REMARK    3  A    between atoms: C_11  and  C_12 
REMARK       I    between atoms: C_12  and  N_13 
REMARK    4  A    between atoms: N_13  and  C_14 
REMARK    5  A    between atoms: N_15  and  C_16 
REMARK    6  A    between atoms: C_27  and  C_28 
ROOT
HETATM    1  C   UNL     1      -4.662  -3.534   0.809  1.00  0.00     0.152 A 
HETATM    2  N   UNL     1      -3.611  -2.668   1.081  1.00  0.00    -0.044 N 
HETATM    3  N   UNL     1      -2.428  -3.330   1.280  1.00  0.00    -0.150 NA
HETATM    4  C   UNL     1      -2.740  -4.622   1.123  1.00  0.00     0.099 A 
HETATM    5  C   UNL     1      -4.114  -4.798   0.861  1.00  0.00     0.086 A 
ENDROOT
BRANCH   1   6
HETATM    6  N   UNL     1      -5.954  -3.108   0.520  1.00  0.00    -0.309 N 
HETATM    7  C   UNL     1      -6.985  -3.994   0.258  1.00  0.00     0.247 C 
HETATM    8  O   UNL     1      -6.927  -5.217   0.384  1.00  0.00    -0.271 OA
HETATM    9  H   UNL     1      -6.146  -2.103   0.489  1.00  0.00     0.170 HD
BRANCH   7  10
HETATM   10  C   UNL     1      -8.228  -3.349  -0.351  1.00  0.00     0.278 C 
BRANCH  10  11
HETATM   11  O   UNL     1      -8.510  -2.039   0.120  1.00  0.00    -0.342 OA
BRANCH  11  12
HETATM   12  C   UNL     1      -9.719  -1.531  -0.294  1.00  0.00     0.070 A 
HETATM   13  C   UNL     1     -10.465  -2.007  -1.374  1.00  0.00     0.037 A 
HETATM   14  C   UNL     1     -11.694  -1.424  -1.698  1.00  0.00     0.015 A 
HETATM   15  C   UNL     1     -12.198  -0.352  -0.951  1.00  0.00    -0.026 A 
HETATM   16  C   UNL     1     -13.437   0.230  -1.262  1.00  0.00     0.012 A 
HETATM   17  C   UNL     1     -11.443   0.146   0.135  1.00  0.00    -0.023 A 
HETATM   18  C   UNL     1     -13.932   1.295  -0.509  1.00  0.00     0.001 A 
HETATM   19  C   UNL     1     -13.193   1.789   0.561  1.00  0.00     0.001 A 
HETATM   20  C   UNL     1     -11.957   1.221   0.881  1.00  0.00     0.012 A 
HETATM   21  C   UNL     1     -10.205  -0.448   0.444  1.00  0.00     0.049 A 
ENDBRANCH  11  12
ENDBRANCH  10  11
ENDBRANCH   7  10
ENDBRANCH   1   6
BRANCH   2  22
HETATM   22  C   UNL     1      -3.620  -1.262   1.150  1.00  0.00     0.732 A 
HETATM   23  N   UNL     1      -4.678  -0.533   0.945  1.00  0.00    -0.067 NA
HETATM   24  C   UNL     1      -4.454   0.812   1.062  1.00  0.00     0.065 A 
HETATM   25  C   UNL     1      -3.291   1.393   1.360  1.00  0.00     0.036 A 
HETATM   26  C   UNL     1      -5.526   1.831   0.866  1.00  0.00     0.061 C 
HETATM   27  C   UNL     1      -3.359   2.870   1.418  1.00  0.00     0.047 C 
HETATM   28  C   UNL     1      -2.112   0.560   1.587  1.00  0.00     0.268 A 
HETATM   29  C   UNL     1      -4.725   3.140   0.774  1.00  0.00     0.011 C 
HETATM   30  O   UNL     1      -1.016   1.024   1.863  1.00  0.00    -0.267 OA
HETATM   31  N   UNL     1      -2.368  -0.775   1.459  1.00  0.00    -0.152 N 
HETATM   32  H   UNL     1      -1.608  -1.434   1.597  1.00  0.00     0.188 HD
ENDBRANCH   2  22
BRANCH   4  33
HETATM   33  C   UNL     1      -1.705  -5.706   1.199  1.00  0.00     0.035 A 
HETATM   34  S   UNL     1      -2.035  -7.371   0.986  1.00  0.00    -0.100 SA
HETATM   35  C   UNL     1      -0.389  -7.791   1.188  1.00  0.00     0.050 A 
HETATM   36  C   UNL     1       0.399  -6.687   1.422  1.00  0.00     0.008 A 
HETATM   37  C   UNL     1      -0.363  -5.480   1.431  1.00  0.00     0.022 A 
ENDBRANCH   4  33
TORSDOF 6
