REMARK  3 active torsions:
REMARK  status: ('A' for Active; 'I' for Inactive)
REMARK    1  A    between atoms: O_2  and  C_3 
REMARK    2  A    between atoms: C_9  and  C_10 
REMARK       I    between atoms: C_10  and  N_11 
REMARK    3  A    between atoms: N_11  and  C_12 
ROOT
HETATM    1  C   UNL     1       2.803   0.835   0.941  1.00  0.00     0.068 A 
HETATM    2  C   UNL     1       3.703   0.203   1.801  1.00  0.00     0.044 A 
HETATM    3  C   UNL     1       4.425   0.940   2.749  1.00  0.00    -0.043 A 
HETATM    4  C   UNL     1       4.264   2.344   2.805  1.00  0.00    -0.001 A 
HETATM    5  C   UNL     1       5.010   3.039   3.840  1.00  0.00     0.069 A 
HETATM    6  C   UNL     1       5.675   2.411   4.870  1.00  0.00     0.007 A 
HETATM    7  C   UNL     1       6.201   3.448   5.678  1.00  0.00     0.153 A 
HETATM    8  N   UNL     1       5.900   4.661   5.155  1.00  0.00    -0.168 NA
HETATM    9  N   UNL     1       5.193   4.373   4.039  1.00  0.00    -0.276 N 
HETATM   10  H   UNL     1       4.859   5.141   3.468  1.00  0.00     0.189 HD
HETATM   11  C   UNL     1       5.676   0.930   5.012  1.00  0.00     0.048 C 
HETATM   12  C   UNL     1       5.440   0.242   3.647  1.00  0.00     0.044 C 
HETATM   13  C   UNL     1       3.382   2.977   1.927  1.00  0.00     0.017 A 
HETATM   14  C   UNL     1       2.653   2.222   0.999  1.00  0.00     0.037 A 
ENDROOT
BRANCH   7  15
HETATM   15  C   UNL     1       6.935   3.312   6.954  1.00  0.00     0.277 C 
HETATM   16  N   UNL     1       7.224   4.545   7.507  1.00  0.00    -0.319 N 
HETATM   17  H   UNL     1       6.798   5.312   6.992  1.00  0.00     0.169 HD
HETATM   18  O   UNL     1       7.165   2.214   7.442  1.00  0.00    -0.266 OA
BRANCH  16  19
HETATM   19  C   UNL     1       7.858   4.826   8.731  1.00  0.00     0.074 A 
HETATM   20  C   UNL     1       8.649   3.929   9.462  1.00  0.00     0.144 A 
HETATM   21  F   UNL     1       8.971   2.720   8.986  1.00  0.00    -0.204 F 
HETATM   22  C   UNL     1       9.204   4.287  10.690  1.00  0.00     0.068 A 
HETATM   23  C   UNL     1       8.984   5.561  11.198  1.00  0.00     0.037 A 
HETATM   24 CL   UNL     1       9.656   6.006  12.717  1.00  0.00    -0.084 Cl
HETATM   25  C   UNL     1       8.229   6.483  10.477  1.00  0.00     0.026 A 
HETATM   26  C   UNL     1       7.678   6.119   9.243  1.00  0.00     0.034 A 
ENDBRANCH  16  19
ENDBRANCH   7  15
BRANCH   1  27
HETATM   27  O   UNL     1       2.145  -0.006   0.086  1.00  0.00    -0.356 OA
HETATM   28  C   UNL     1       1.037   0.539  -0.620  1.00  0.00     0.210 C 
ENDBRANCH   1  27
TORSDOF 3
