REMARK  5 active torsions:
REMARK  status: ('A' for Active; 'I' for Inactive)
REMARK    1  A    between atoms: C_4  and  C_5 
REMARK    2  A    between atoms: C_5  and  S_6 
REMARK    3  A    between atoms: S_6  and  C_7 
REMARK    4  A    between atoms: C_9  and  C_10 
REMARK       I    between atoms: C_10  and  N_11 
REMARK    5  A    between atoms: N_11  and  C_12 
ROOT
HETATM    1  C   UNL     1       5.433  -1.525  -0.898  1.00  0.00     0.189 A 
HETATM    2  N   UNL     1       6.006  -0.315  -0.977  1.00  0.00    -0.216 NA
HETATM    3  C   UNL     1       7.373  -0.288  -0.886  1.00  0.00     0.150 A 
HETATM    4  C   UNL     1       8.159  -1.421  -0.773  1.00  0.00     0.086 A 
HETATM    5 CL   UNL     1       9.871  -1.496  -0.724  1.00  0.00    -0.080 Cl
HETATM    6  C   UNL     1       7.450  -2.599  -0.733  1.00  0.00     0.146 A 
HETATM    7  N   UNL     1       6.104  -2.678  -0.785  1.00  0.00    -0.234 NA
ENDROOT
BRANCH   3   8
HETATM    8  C   UNL     1       7.951   1.103  -0.914  1.00  0.00     0.278 C 
HETATM    9  N   UNL     1       7.033   2.055  -1.308  1.00  0.00    -0.300 N 
HETATM   10  H   UNL     1       6.088   1.764  -1.523  1.00  0.00     0.171 HD
HETATM   11  O   UNL     1       9.115   1.306  -0.604  1.00  0.00    -0.265 OA
BRANCH   9  12
HETATM   12  C   UNL     1       7.346   3.379  -1.420  1.00  0.00     0.174 A 
HETATM   13  S   UNL     1       6.076   4.350  -2.010  1.00  0.00    -0.050 SA
HETATM   14  C   UNL     1       7.107   5.732  -1.922  1.00  0.00     0.039 A 
HETATM   15  C   UNL     1       8.349   5.333  -1.421  1.00  0.00     0.077 A 
HETATM   16  C   UNL     1       6.838   7.067  -2.267  1.00  0.00     0.045 A 
HETATM   17  N   UNL     1       8.470   3.985  -1.148  1.00  0.00    -0.223 NA
HETATM   18  C   UNL     1       9.355   6.305  -1.242  1.00  0.00     0.035 A 
HETATM   19  C   UNL     1       9.100   7.639  -1.576  1.00  0.00     0.026 A 
HETATM   20  C   UNL     1       7.858   8.006  -2.085  1.00  0.00     0.035 A 
HETATM   21 CL   UNL     1       7.568   9.652  -2.501  1.00  0.00    -0.084 Cl
ENDBRANCH   9  12
ENDBRANCH   3   8
BRANCH   1  22
HETATM   22  S   UNL     1       3.671  -1.629  -0.860  1.00  0.00    -0.086 SA
BRANCH  22  23
HETATM   23  C   UNL     1       3.299  -0.731  -2.391  1.00  0.00     0.121 C 
BRANCH  23  24
HETATM   24  C   UNL     1       1.848  -0.883  -2.774  1.00  0.00    -0.049 A 
HETATM   25  C   UNL     1       0.860  -0.097  -2.161  1.00  0.00     0.008 A 
HETATM   26  C   UNL     1      -0.486  -0.262  -2.495  1.00  0.00     0.001 A 
HETATM   27  C   UNL     1      -0.859  -1.214  -3.443  1.00  0.00     0.000 A 
HETATM   28  C   UNL     1       0.112  -2.003  -4.055  1.00  0.00     0.001 A 
HETATM   29  C   UNL     1       1.458  -1.843  -3.721  1.00  0.00     0.008 A 
ENDBRANCH  23  24
ENDBRANCH  22  23
ENDBRANCH   1  22
TORSDOF 5
