REMARK  2 active torsions:
REMARK  status: ('A' for Active; 'I' for Inactive)
REMARK    1  A    between atoms: C_4  and  N_5 
REMARK       I    between atoms: N_5  and  C_6 
REMARK    2  A    between atoms: C_6  and  C_7 
ROOT
HETATM    1  C   UNL     1       3.012  -2.127   0.012  1.00  0.00     0.099 C 
HETATM    2  C   UNL     1       1.715  -2.494   0.013  1.00  0.00     0.079 C 
HETATM    3  S   UNL     1       0.428  -1.633  -0.741  1.00  0.00    -0.082 SA
HETATM    4  C   UNL     1      -0.943  -2.057   0.300  1.00  0.00     0.032 A 
HETATM    5  C   UNL     1      -0.949  -3.204   1.095  1.00  0.00     0.052 A 
HETATM    6  N   UNL     1       0.169  -4.037   1.193  1.00  0.00    -0.321 N 
HETATM    7  C   UNL     1      -2.083  -1.243   0.269  1.00  0.00     0.021 A 
HETATM    8  C   UNL     1      -3.216  -1.576   1.015  1.00  0.00     0.002 A 
HETATM    9  C   UNL     1      -3.223  -2.735   1.786  1.00  0.00     0.002 A 
HETATM   10  C   UNL     1      -2.093  -3.552   1.823  1.00  0.00     0.031 A 
HETATM   11  C   UNL     1       1.425  -3.784   0.725  1.00  0.00     0.263 C 
HETATM   12  O   UNL     1       2.311  -4.614   0.940  1.00  0.00    -0.267 OA
HETATM   13  H   UNL     1       0.095  -4.898   1.720  1.00  0.00     0.169 HD
ENDROOT
BRANCH   1  14
HETATM   14  C   UNL     1       3.606  -0.940  -0.652  1.00  0.00     0.247 C 
HETATM   15  N   UNL     1       4.851  -0.502  -0.300  1.00  0.00    -0.324 N 
HETATM   16  H   UNL     1       4.982   0.450  -0.627  1.00  0.00     0.169 HD
HETATM   17  O   UNL     1       2.977  -0.254  -1.455  1.00  0.00    -0.268 OA
BRANCH  15  18
HETATM   18  C   UNL     1       5.937  -1.055   0.398  1.00  0.00     0.035 A 
HETATM   19  C   UNL     1       6.200  -2.421   0.510  1.00  0.00     0.029 A 
HETATM   20  C   UNL     1       7.317  -2.869   1.224  1.00  0.00     0.002 A 
HETATM   21  C   UNL     1       8.194  -1.957   1.807  1.00  0.00     0.000 A 
HETATM   22  C   UNL     1       7.967  -0.592   1.660  1.00  0.00     0.002 A 
HETATM   23  C   UNL     1       6.851  -0.147   0.949  1.00  0.00     0.029 A 
ENDBRANCH  15  18
ENDBRANCH   1  14
TORSDOF 2
