REMARK  7 active torsions:
REMARK  status: ('A' for Active; 'I' for Inactive)
REMARK    1  A    between atoms: C_3  and  N_4 
REMARK       I    between atoms: N_4  and  C_5 
REMARK    2  A    between atoms: C_5  and  C_6 
REMARK    3  A    between atoms: C_7  and  C_8 
REMARK    4  A    between atoms: C_19  and  C_20 
REMARK    5  A    between atoms: C_20  and  C_21 
REMARK    6  A    between atoms: C_21  and  C_22 
REMARK    7  A    between atoms: C_22  and  O_23 
ROOT
HETATM    1  C   UNL     1       4.739   3.615  -0.393  1.00  0.00     0.062 A 
HETATM    2  C   UNL     1       5.402   4.945  -0.729  1.00  0.00     0.202 A 
HETATM    3  N   UNL     1       6.769   5.011  -0.197  1.00  0.00    -0.083 N 
HETATM    4  C   UNL     1       7.338   4.033   0.573  1.00  0.00     0.726 A 
HETATM    5  N   UNL     1       6.634   2.923   0.859  1.00  0.00    -0.192 N 
HETATM    6  N   UNL     1       7.578   6.089  -0.294  1.00  0.00    -0.140 NA
HETATM    7  C   UNL     1       8.665   5.645   0.355  1.00  0.00     0.166 A 
HETATM    8  N   UNL     1       8.547   4.395   0.916  1.00  0.00    -0.046 NA
HETATM    9  C   UNL     1       5.358   2.678   0.365  1.00  0.00     0.037 A 
HETATM   10  C   UNL     1       4.757   1.344   0.735  1.00  0.00     0.070 C 
HETATM   11  H   UNL     1       7.082   2.185   1.395  1.00  0.00     0.184 HD
ENDROOT
BRANCH   1  12
HETATM   12  C   UNL     1       3.438   3.311  -1.046  1.00  0.00     0.256 C 
HETATM   13  N   UNL     1       2.440   4.199  -0.709  1.00  0.00    -0.323 N 
HETATM   14  H   UNL     1       2.657   4.895  -0.011  1.00  0.00     0.169 HD
HETATM   15  O   UNL     1       3.361   2.336  -1.782  1.00  0.00    -0.267 OA
BRANCH  13  16
HETATM   16  C   UNL     1       1.112   4.222  -1.207  1.00  0.00     0.041 A 
HETATM   17  C   UNL     1       0.209   5.187  -0.707  1.00  0.00    -0.035 A 
HETATM   18  C   UNL     1       0.600   6.206   0.330  1.00  0.00     0.050 C 
HETATM   19  C   UNL     1      -1.106   5.229  -1.209  1.00  0.00     0.009 A 
HETATM   20  C   UNL     1      -1.531   4.328  -2.182  1.00  0.00     0.001 A 
HETATM   21  C   UNL     1      -0.645   3.379  -2.672  1.00  0.00     0.002 A 
HETATM   22  C   UNL     1       0.665   3.329  -2.191  1.00  0.00     0.030 A 
ENDBRANCH  13  16
ENDBRANCH   1  12
BRANCH   2  23
HETATM   23  C   UNL     1       5.386   5.286  -2.215  1.00  0.00    -0.027 A 
HETATM   24  C   UNL     1       4.810   6.494  -2.646  1.00  0.00     0.028 A 
HETATM   25  C   UNL     1       4.768   6.808  -4.005  1.00  0.00     0.011 A 
HETATM   26 BR   UNL     1       3.980   8.434  -4.563  1.00  0.00    -0.051 Br
HETATM   27  C   UNL     1       5.296   5.935  -4.950  1.00  0.00     0.019 A 
HETATM   28  C   UNL     1       5.877   4.738  -4.535  1.00  0.00     0.002 A 
HETATM   29  C   UNL     1       5.926   4.414  -3.177  1.00  0.00     0.010 A 
ENDBRANCH   2  23
BRANCH   7  30
HETATM   30  C   UNL     1       9.909   6.444   0.484  1.00  0.00     0.085 C 
BRANCH  30  31
HETATM   31  C   UNL     1       9.923   7.354   1.709  1.00  0.00     0.034 C 
BRANCH  31  32
HETATM   32  C   UNL     1       9.891   6.586   3.025  1.00  0.00     0.164 C 
BRANCH  32  33
HETATM   33  O   UNL     1      10.033   7.496   4.111  1.00  0.00    -0.401 OA
HETATM   34  H   UNL     1      10.911   7.907   4.036  1.00  0.00     0.209 HD
ENDBRANCH  32  33
ENDBRANCH  31  32
ENDBRANCH  30  31
ENDBRANCH   7  30
TORSDOF 7
