REMARK  7 active torsions:
REMARK  status: ('A' for Active; 'I' for Inactive)
REMARK       I    between atoms: C_2  and  N_3 
REMARK    1  A    between atoms: N_3  and  C_4 
REMARK    2  A    between atoms: C_6  and  O_7 
REMARK    3  A    between atoms: O_7  and  C_8 
REMARK    4  A    between atoms: C_8  and  C_9 
REMARK    5  A    between atoms: C_9  and  N_10 
REMARK       I    between atoms: N_10  and  C_11 
REMARK    6  A    between atoms: C_11  and  C_12 
REMARK    7  A    between atoms: C_14  and  C_15 
ROOT
HETATM    1  N   UNL     1      -3.377   1.368  -3.355  1.00  0.00    -0.355 N 
HETATM    2  C   UNL     1      -3.021   0.430  -4.301  1.00  0.00     0.251 C 
HETATM    3  O   UNL     1      -1.982   0.479  -4.947  1.00  0.00    -0.268 OA
HETATM    4  H   UNL     1      -4.146   1.178  -2.728  1.00  0.00     0.162 HD
ENDROOT
BRANCH   1   5
HETATM    5  C   UNL     1      -2.537   2.519  -3.080  1.00  0.00     0.149 C 
BRANCH   5   6
HETATM    6  C   UNL     1      -1.269   2.184  -2.291  1.00  0.00     0.195 C 
BRANCH   6   7
HETATM    7  O   UNL     1      -0.634   3.417  -1.940  1.00  0.00    -0.349 OA
BRANCH   7   8
HETATM    8  C   UNL     1       0.594   3.337  -1.341  1.00  0.00     0.070 A 
HETATM    9  C   UNL     1       1.216   2.165  -0.899  1.00  0.00     0.066 A 
HETATM   10  C   UNL     1       2.484   2.214  -0.307  1.00  0.00     0.037 A 
HETATM   11  C   UNL     1       3.122   3.452  -0.163  1.00  0.00     0.029 A 
HETATM   12  C   UNL     1       2.501   4.625  -0.592  1.00  0.00     0.005 A 
HETATM   13  C   UNL     1       1.239   4.564  -1.177  1.00  0.00     0.037 A 
BRANCH  10  14
HETATM   14  N   UNL     1       3.184   1.077   0.151  1.00  0.00    -0.327 N 
HETATM   15  C   UNL     1       2.742  -0.233   0.175  1.00  0.00     0.218 C 
HETATM   16  C   UNL     1       3.793  -1.185   0.690  1.00  0.00     0.117 C 
HETATM   17  O   UNL     1       1.629  -0.643  -0.135  1.00  0.00    -0.274 OA
HETATM   18  H   UNL     1       4.110   1.250   0.521  1.00  0.00     0.169 HD
ENDBRANCH  10  14
ENDBRANCH   7   8
ENDBRANCH   6   7
ENDBRANCH   5   6
ENDBRANCH   1   5
BRANCH   2  19
HETATM   19  C   UNL     1      -3.969  -0.699  -4.494  1.00  0.00     0.032 A 
HETATM   20  C   UNL     1      -3.450  -1.952  -4.856  1.00  0.00     0.029 A 
HETATM   21  C   UNL     1      -4.303  -3.044  -5.075  1.00  0.00    -0.023 A 
HETATM   22  C   UNL     1      -5.685  -2.851  -4.930  1.00  0.00     0.012 A 
HETATM   23  C   UNL     1      -6.206  -1.601  -4.581  1.00  0.00     0.002 A 
HETATM   24  C   UNL     1      -5.350  -0.523  -4.366  1.00  0.00     0.017 A 
BRANCH  21  25
HETATM   25  C   UNL     1      -3.785  -4.356  -5.446  1.00  0.00    -0.002 A 
HETATM   26  C   UNL     1      -2.536  -4.588  -5.991  1.00  0.00     0.153 A 
HETATM   27  O   UNL     1      -2.348  -5.911  -6.237  1.00  0.00    -0.334 OA
HETATM   28  C   UNL     1      -3.482  -6.546  -5.854  1.00  0.00     0.142 A 
HETATM   29  C   UNL     1      -4.395  -5.642  -5.364  1.00  0.00     0.038 A 
ENDBRANCH  21  25
ENDBRANCH   2  19
TORSDOF 7
