REMARK  4 active torsions:
REMARK  status: ('A' for Active; 'I' for Inactive)
REMARK    1  A    between atoms: C_9  and  C_10 
REMARK       I    between atoms: C_10  and  N_11 
REMARK    2  A    between atoms: N_11  and  C_12 
REMARK    3  A    between atoms: C_12  and  C_13 
REMARK    4  A    between atoms: C_14  and  O_15 
ROOT
HETATM    1  C   UNL     1       8.433   4.299   2.459  1.00  0.00     0.273 C 
HETATM    2  N   UNL     1       8.370   3.643   1.250  1.00  0.00    -0.347 N 
HETATM    3  O   UNL     1       8.591   5.510   2.574  1.00  0.00    -0.266 OA
HETATM    4  H   UNL     1       8.063   2.676   1.318  1.00  0.00     0.163 HD
ENDROOT
BRANCH   1   5
HETATM    5  C   UNL     1       8.289   3.390   3.609  1.00  0.00     0.157 A 
HETATM    6  C   UNL     1       8.436   3.714   4.991  1.00  0.00     0.029 A 
HETATM    7  C   UNL     1       8.742   4.870   5.737  1.00  0.00     0.023 A 
HETATM    8  C   UNL     1       8.211   2.522   5.668  1.00  0.00     0.063 A 
HETATM    9  C   UNL     1       8.815   4.792   7.138  1.00  0.00    -0.061 A 
HETATM   10  C   UNL     1       9.155   6.008   7.951  1.00  0.00     0.048 C 
HETATM   11  C   UNL     1       8.581   3.569   7.780  1.00  0.00     0.009 A 
HETATM   12  C   UNL     1       8.272   2.410   7.059  1.00  0.00     0.032 A 
HETATM   13  N   UNL     1       7.948   1.599   4.694  1.00  0.00    -0.277 N 
HETATM   14  H   UNL     1       7.734   0.617   4.824  1.00  0.00     0.189 HD
HETATM   15  N   UNL     1       7.995   2.081   3.440  1.00  0.00    -0.168 NA
ENDBRANCH   1   5
BRANCH   2  16
HETATM   16  C   UNL     1       8.340   4.318  -0.038  1.00  0.00     0.116 C 
HETATM   17  C   UNL     1       9.643   5.071  -0.327  1.00  0.00     0.037 C 
BRANCH  16  18
HETATM   18  C   UNL     1       8.073   3.325  -1.165  1.00  0.00    -0.002 A 
HETATM   19  C   UNL     1       7.162   3.620  -2.197  1.00  0.00     0.076 A 
HETATM   20  C   UNL     1       6.960   2.692  -3.225  1.00  0.00     0.038 A 
HETATM   21  C   UNL     1       7.665   1.485  -3.247  1.00  0.00     0.009 A 
HETATM   22  C   UNL     1       8.591   1.187  -2.248  1.00  0.00    -0.061 A 
HETATM   23  C   UNL     1       9.360  -0.100  -2.261  1.00  0.00     0.048 C 
HETATM   24  C   UNL     1       8.790   2.110  -1.216  1.00  0.00     0.018 A 
BRANCH  19  25
HETATM   25  O   UNL     1       6.529   4.833  -2.117  1.00  0.00    -0.355 OA
HETATM   26  C   UNL     1       5.687   5.209  -3.198  1.00  0.00     0.210 C 
ENDBRANCH  19  25
ENDBRANCH  16  18
ENDBRANCH   2  16
TORSDOF 4
