REMARK  8 active torsions:
REMARK  status: ('A' for Active; 'I' for Inactive)
REMARK    1  A    between atoms: C_2  and  N_3 
REMARK    2  A    between atoms: N_3  and  C_5 
REMARK    3  A    between atoms: N_3  and  C_30 
REMARK    4  A    between atoms: C_5  and  C_6 
REMARK    5  A    between atoms: C_6  and  N_7 
REMARK       I    between atoms: N_7  and  C_8 
REMARK    6  A    between atoms: C_8  and  C_9 
REMARK    7  A    between atoms: C_9  and  O_10 
REMARK    8  A    between atoms: N_11  and  C_12 
ROOT
HETATM    1  C   UNL     1      -2.072   2.356  -1.042  1.00  0.00     0.256 C 
HETATM    2  N   UNL     1      -3.131   3.109  -0.332  1.00  0.00    -0.254 N 
HETATM    3  C   UNL     1      -3.532   2.729   0.945  1.00  0.00     0.330 C 
HETATM    4  O   UNL     1      -4.246   3.388   1.698  1.00  0.00    -0.246 OA
HETATM    5  N   UNL     1      -3.128   1.518   1.409  1.00  0.00    -0.308 N 
HETATM    6  C   UNL     1      -2.289   0.631   0.763  1.00  0.00     0.048 A 
HETATM    7  C   UNL     1      -1.730   1.002  -0.448  1.00  0.00     0.034 A 
HETATM    8  C   UNL     1      -2.000  -0.601   1.353  1.00  0.00     0.030 A 
HETATM    9  C   UNL     1      -1.128  -1.484   0.719  1.00  0.00     0.002 A 
HETATM   10  C   UNL     1      -0.534  -1.122  -0.487  1.00  0.00     0.001 A 
HETATM   11  C   UNL     1      -0.823   0.117  -1.061  1.00  0.00     0.015 A 
HETATM   12  H   UNL     1      -3.474   1.297   2.336  1.00  0.00     0.170 HD
ENDROOT
BRANCH   1  13
HETATM   13  C   UNL     1      -2.557   2.064  -2.549  1.00  0.00     0.279 C 
HETATM   14  N   UNL     1      -3.902   1.732  -2.702  1.00  0.00    -0.355 N 
HETATM   15  H   UNL     1      -4.524   1.994  -1.940  1.00  0.00     0.162 HD
HETATM   16  O   UNL     1      -1.800   1.991  -3.521  1.00  0.00    -0.268 OA
BRANCH  14  17
HETATM   17  C   UNL     1      -4.443   1.535  -4.030  1.00  0.00     0.150 C 
BRANCH  17  18
HETATM   18  C   UNL     1      -4.043   0.170  -4.623  1.00  0.00     0.254 C 
BRANCH  18  19
HETATM   19  N   UNL     1      -4.286   0.047  -6.123  1.00  0.00    -0.070 N 
HETATM   20  H   UNL     1      -4.180  -0.954  -6.334  1.00  0.00     0.279 HD
BRANCH  19  21
HETATM   21  C   UNL     1      -3.219   0.749  -6.956  1.00  0.00     0.230 C 
HETATM   22  C   UNL     1      -1.928  -0.052  -6.965  1.00  0.00     0.034 C 
ENDBRANCH  19  21
BRANCH  19  23
HETATM   23  C   UNL     1      -5.682   0.413  -6.584  1.00  0.00     0.230 C 
HETATM   24  C   UNL     1      -6.730  -0.456  -5.913  1.00  0.00     0.034 C 
ENDBRANCH  19  23
ENDBRANCH  18  19
ENDBRANCH  17  18
ENDBRANCH  14  17
ENDBRANCH   1  13
BRANCH   1  25
HETATM   25  O   UNL     1      -0.877   3.108  -0.940  1.00  0.00    -0.359 OA
HETATM   26  H   UNL     1      -1.108   3.877  -0.393  1.00  0.00     0.213 HD
ENDBRANCH   1  25
BRANCH   2  27
HETATM   27  C   UNL     1      -3.707   4.295  -0.956  1.00  0.00     0.043 A 
HETATM   28  C   UNL     1      -5.004   4.726  -0.626  1.00  0.00     0.037 A 
HETATM   29  C   UNL     1      -5.622   5.827  -1.253  1.00  0.00    -0.054 A 
HETATM   30  C   UNL     1      -7.014   6.221  -0.833  1.00  0.00     0.049 C 
HETATM   31  C   UNL     1      -4.937   6.517  -2.263  1.00  0.00    -0.056 A 
HETATM   32  C   UNL     1      -5.537   7.711  -2.951  1.00  0.00     0.049 C 
HETATM   33  C   UNL     1      -3.644   6.103  -2.601  1.00  0.00     0.009 A 
HETATM   34  C   UNL     1      -3.043   5.008  -1.966  1.00  0.00     0.030 A 
ENDBRANCH   2  27
TORSDOF 8
