REMARK  3 active torsions:
REMARK  status: ('A' for Active; 'I' for Inactive)
REMARK    1  A    between atoms: C_5  and  N_6 
REMARK       I    between atoms: N_6  and  C_7 
REMARK    2  A    between atoms: C_7  and  C_8 
REMARK    3  A    between atoms: C_11  and  N_12 
ROOT
HETATM    1  C   UNL     1       2.690   0.501  -1.080  1.00  0.00     0.001 A 
HETATM    2  C   UNL     1       1.389   0.882  -1.417  1.00  0.00     0.008 A 
HETATM    3  C   UNL     1       0.338   0.137  -0.911  1.00  0.00    -0.043 A 
HETATM    4  C   UNL     1       0.571  -0.973  -0.082  1.00  0.00    -0.028 A 
HETATM    5  C   UNL     1      -0.735  -1.529   0.453  1.00  0.00     0.125 C 
HETATM    6  C   UNL     1      -1.654  -1.062  -0.715  1.00  0.00     0.049 C 
HETATM    7  C   UNL     1      -1.122   0.309  -1.167  1.00  0.00     0.053 C 
HETATM    8  C   UNL     1      -3.122  -0.794  -0.529  1.00  0.00     0.239 C 
HETATM    9  N   UNL     1      -3.170   0.574   0.069  1.00  0.00    -0.074 N 
HETATM   10  H   UNL     1      -4.022   1.086  -0.189  1.00  0.00     0.277 HD
HETATM   11  H   UNL     1      -3.230   0.418   1.094  1.00  0.00     0.277 HD
HETATM   12  C   UNL     1      -1.894   1.295  -0.291  1.00  0.00     0.242 C 
HETATM   13  C   UNL     1       1.861  -1.357   0.254  1.00  0.00     0.010 A 
HETATM   14  C   UNL     1       2.924  -0.612  -0.256  1.00  0.00     0.001 A 
ENDROOT
BRANCH   5  15
HETATM   15  N   UNL     1      -0.832  -0.984   1.807  1.00  0.00    -0.348 N 
HETATM   16  C   UNL     1      -1.923  -0.933   2.632  1.00  0.00     0.252 C 
HETATM   17  O   UNL     1      -3.076  -1.004   2.230  1.00  0.00    -0.268 OA
HETATM   18  H   UNL     1       0.053  -1.042   2.304  1.00  0.00     0.163 HD
BRANCH  16  19
HETATM   19  C   UNL     1      -1.645  -0.698   4.074  1.00  0.00     0.032 A 
HETATM   20  C   UNL     1      -0.579   0.105   4.495  1.00  0.00     0.019 A 
HETATM   21  C   UNL     1      -0.348   0.294   5.861  1.00  0.00     0.024 A 
HETATM   22  C   UNL     1      -1.196  -0.272   6.817  1.00  0.00     0.005 A 
HETATM   23  C   UNL     1      -2.233  -1.104   6.385  1.00  0.00     0.024 A 
HETATM   24  C   UNL     1      -2.479  -1.296   5.022  1.00  0.00     0.019 A 
BRANCH  22  25
HETATM   25  N   UNL     1      -0.873  -0.195   8.172  1.00  0.00    -0.303 NA
HETATM   26  H   UNL     1      -0.336   0.625   8.439  1.00  0.00     0.124 HD
HETATM   27  H   UNL     1      -1.649  -0.364   8.805  1.00  0.00     0.124 HD
ENDBRANCH  22  25
ENDBRANCH  16  19
ENDBRANCH   5  15
TORSDOF 3
