REMARK  7 active torsions:
REMARK  status: ('A' for Active; 'I' for Inactive)
REMARK    1  A    between atoms: O_2  and  C_3 
REMARK    2  A    between atoms: C_4  and  O_5 
REMARK    3  A    between atoms: C_6  and  C_7 
REMARK    4  A    between atoms: C_7  and  N_8 
REMARK    5  A    between atoms: C_11  and  C_12 
REMARK    6  A    between atoms: C_12  and  N_13 
REMARK    7  A    between atoms: N_13  and  C_14 
ROOT
HETATM    1  N   UNL     1       3.579   5.292  -2.758  1.00  0.00    -0.067 N 
HETATM    2  H   UNL     1       4.484   4.917  -3.105  1.00  0.00     0.280 HD
HETATM    3  C   UNL     1       3.875   6.602  -2.072  1.00  0.00     0.241 C 
HETATM    4  C   UNL     1       2.778   7.555  -2.541  1.00  0.00     0.026 C 
HETATM    5  C   UNL     1       2.554   7.090  -3.979  1.00  0.00     0.035 C 
HETATM    6  C   UNL     1       2.693   5.574  -3.945  1.00  0.00     0.235 C 
ENDROOT
BRANCH   1   7
HETATM    7  C   UNL     1       3.077   4.168  -1.884  1.00  0.00     0.276 C 
BRANCH   7   8
HETATM    8  C   UNL     1       4.018   3.788  -0.781  1.00  0.00     0.005 A 
HETATM    9  C   UNL     1       5.311   3.345  -1.068  1.00  0.00     0.107 A 
HETATM   10  C   UNL     1       6.194   2.923  -0.064  1.00  0.00     0.103 A 
HETATM   11  C   UNL     1       5.789   2.994   1.267  1.00  0.00     0.058 A 
HETATM   12  C   UNL     1       4.508   3.458   1.570  1.00  0.00     0.014 A 
HETATM   13  C   UNL     1       3.620   3.839   0.561  1.00  0.00     0.030 A 
HETATM   14 BR   UNL     1       3.957   3.582   3.375  1.00  0.00    -0.051 Br
BRANCH   9  15
HETATM   15  O   UNL     1       5.720   3.340  -2.379  1.00  0.00    -0.357 OA
HETATM   16  H   UNL     1       6.606   2.908  -2.360  1.00  0.00     0.218 HD
ENDBRANCH   9  15
BRANCH  10  17
HETATM   17  O   UNL     1       7.409   2.484  -0.516  1.00  0.00    -0.353 OA
HETATM   18  C   UNL     1       8.214   1.775   0.426  1.00  0.00     0.210 C 
ENDBRANCH  10  17
ENDBRANCH   7   8
ENDBRANCH   1   7
BRANCH   4  19
HETATM   19  C   UNL     1       1.532   7.478  -1.639  1.00  0.00     0.100 C 
BRANCH  19  20
HETATM   20  N   UNL     1       0.593   8.572  -1.957  1.00  0.00    -0.279 NA
HETATM   21  H   UNL     1       0.060   8.307  -2.794  1.00  0.00     0.129 HD
BRANCH  20  22
HETATM   22  C   UNL     1      -0.340   8.813  -0.941  1.00  0.00     0.079 A 
HETATM   23  N   UNL     1      -0.438  10.075  -0.498  1.00  0.00    -0.357 N 
HETATM   24  H   UNL     1       0.174  10.759  -0.939  1.00  0.00     0.166 HD
HETATM   25  C   UNL     1      -1.287  10.457   0.466  1.00  0.00     0.089 A 
HETATM   26  C   UNL     1      -2.124   9.520   1.057  1.00  0.00     0.017 A 
HETATM   27  C   UNL     1      -2.070   8.200   0.621  1.00  0.00     0.005 A 
HETATM   28  C   UNL     1      -1.180   7.844  -0.392  1.00  0.00     0.042 A 
ENDBRANCH  20  22
ENDBRANCH  19  20
ENDBRANCH   4  19
TORSDOF 7
