REMARK  2 active torsions:
REMARK  status: ('A' for Active; 'I' for Inactive)
REMARK    1  A    between atoms: C_15  and  C_16 
REMARK    2  A    between atoms: C_19  and  O_20 
ROOT
HETATM    1  C   UNL     1       1.659   0.914   1.214  1.00  0.00     0.048 C 
HETATM    2  C   UNL     1       2.908   0.566   0.458  1.00  0.00    -0.061 A 
HETATM    3  C   UNL     1       4.048   1.386   0.553  1.00  0.00     0.021 A 
HETATM    4  C   UNL     1       5.219   1.046  -0.154  1.00  0.00    -0.000 A 
HETATM    5  C   UNL     1       5.208  -0.115  -0.938  1.00  0.00     0.043 A 
HETATM    6  N   UNL     1       6.436  -0.211  -1.552  1.00  0.00    -0.353 N 
HETATM    7  H   UNL     1       6.721  -0.943  -2.189  1.00  0.00     0.166 HD
HETATM    8  C   UNL     1       7.233   0.806  -1.130  1.00  0.00     0.066 A 
HETATM    9  C   UNL     1       6.516   1.621  -0.277  1.00  0.00    -0.017 A 
HETATM   10  C   UNL     1       7.126   2.848   0.343  1.00  0.00     0.043 C 
HETATM   11  C   UNL     1       8.481   3.225  -0.333  1.00  0.00     0.018 C 
HETATM   12  C   UNL     1       9.359   1.977  -0.570  1.00  0.00     0.065 C 
HETATM   13  C   UNL     1       8.585   1.066  -1.481  1.00  0.00     0.082 C 
HETATM   14  N   UNL     1       9.167   0.658  -2.559  1.00  0.00    -0.203 NA
HETATM   15  C   UNL     1      10.625   2.144  -1.419  1.00  0.00     0.121 C 
HETATM   16  N   UNL     1      10.412   1.179  -2.511  1.00  0.00    -0.207 NA
HETATM   17  C   UNL     1       4.101  -0.964  -1.019  1.00  0.00     0.031 A 
HETATM   18  C   UNL     1       2.956  -0.607  -0.304  1.00  0.00     0.009 A 
HETATM   19  H   UNL     1      10.766   1.499  -3.412  1.00  0.00     0.149 HD
ENDROOT
BRANCH  15  20
HETATM   20  C   UNL     1      11.937   1.790  -0.738  1.00  0.00    -0.038 A 
HETATM   21  C   UNL     1      12.059   0.647   0.072  1.00  0.00     0.011 A 
HETATM   22  C   UNL     1      13.300   0.246   0.570  1.00  0.00     0.037 A 
HETATM   23  C   UNL     1      14.446   0.955   0.229  1.00  0.00     0.068 A 
HETATM   24  C   UNL     1      14.347   2.109  -0.545  1.00  0.00     0.037 A 
HETATM   25  C   UNL     1      13.099   2.523  -1.030  1.00  0.00     0.011 A 
BRANCH  23  26
HETATM   26  O   UNL     1      15.631   0.469   0.708  1.00  0.00    -0.356 OA
HETATM   27  C   UNL     1      16.615   0.321  -0.315  1.00  0.00     0.210 C 
ENDBRANCH  23  26
ENDBRANCH  15  20
TORSDOF 2
