REMARK  4 active torsions:
REMARK  status: ('A' for Active; 'I' for Inactive)
REMARK    1  A    between atoms: C_10  and  C_11 
REMARK    2  A    between atoms: N_14  and  C_16 
REMARK    3  A    between atoms: C_16  and  C_17 
REMARK    4  A    between atoms: C_22  and  C_23 
ROOT
HETATM    1  C   UNL     1      -2.023  -1.987  -0.073  1.00  0.00     0.024 C 
HETATM    2  C   UNL     1      -2.373  -1.757  -1.557  1.00  0.00     0.037 C 
HETATM    3  C   UNL     1      -2.095  -0.317  -1.967  1.00  0.00     0.236 C 
HETATM    4  N   UNL     1      -2.911   0.631  -1.118  1.00  0.00    -0.066 N 
HETATM    5  H   UNL     1      -3.892   0.518  -1.420  1.00  0.00     0.280 HD
HETATM    6  C   UNL     1      -2.786   0.402   0.361  1.00  0.00     0.236 C 
HETATM    7  C   UNL     1      -2.943  -1.067   0.732  1.00  0.00     0.037 C 
ENDROOT
BRANCH   4   8
HETATM    8  C   UNL     1      -2.592   2.091  -1.444  1.00  0.00     0.294 C 
BRANCH   8   9
HETATM    9  C   UNL     1      -3.080   2.540  -2.808  1.00  0.00     0.075 A 
HETATM   10  N   UNL     1      -4.060   1.768  -3.362  1.00  0.00    -0.263 NA
HETATM   11  C   UNL     1      -4.525   2.136  -4.580  1.00  0.00     0.117 A 
HETATM   12  C   UNL     1      -4.066   3.241  -5.274  1.00  0.00     0.020 A 
HETATM   13  C   UNL     1      -3.081   4.028  -4.687  1.00  0.00     0.020 A 
HETATM   14  C   UNL     1      -2.577   3.691  -3.427  1.00  0.00     0.074 A 
BRANCH  14  15
HETATM   15  C   UNL     1      -1.510   4.520  -2.768  1.00  0.00     0.419 C 
HETATM   16  F   UNL     1      -1.817   4.780  -1.466  1.00  0.00    -0.166 F 
HETATM   17  F   UNL     1      -0.321   3.860  -2.733  1.00  0.00    -0.166 F 
HETATM   18  F   UNL     1      -1.280   5.716  -3.358  1.00  0.00    -0.166 F 
ENDBRANCH  14  15
ENDBRANCH   8   9
ENDBRANCH   4   8
BRANCH   1  19
HETATM   19  C   UNL     1      -0.527  -1.842   0.174  1.00  0.00    -0.024 A 
HETATM   20  C   UNL     1       0.206  -1.160   1.217  1.00  0.00     0.018 A 
HETATM   21  C   UNL     1       1.557  -1.241   0.882  1.00  0.00     0.138 A 
HETATM   22  C   UNL     1      -0.083  -0.458   2.405  1.00  0.00     0.017 A 
HETATM   23  N   UNL     1       2.605  -0.685   1.513  1.00  0.00    -0.242 NA
HETATM   24  N   UNL     1       1.681  -2.022  -0.225  1.00  0.00    -0.350 N 
HETATM   25  C   UNL     1       2.263  -0.003   2.623  1.00  0.00     0.119 A 
HETATM   26  C   UNL     1       0.972   0.132   3.108  1.00  0.00     0.020 A 
HETATM   27  H   UNL     1       2.570  -2.269  -0.637  1.00  0.00     0.166 HD
HETATM   28  C   UNL     1       0.440  -2.405  -0.653  1.00  0.00     0.098 A 
ENDBRANCH   1  19
TORSDOF 4
