REMARK  7 active torsions:
REMARK  status: ('A' for Active; 'I' for Inactive)
REMARK    1  A    between atoms: C_2  and  C_3 
REMARK    2  A    between atoms: C_3  and  N_4 
REMARK       I    between atoms: N_4  and  C_5 
REMARK    3  A    between atoms: C_5  and  C_6 
REMARK    4  A    between atoms: C_7  and  N_8 
REMARK    5  A    between atoms: N_9  and  N_10 
REMARK    6  A    between atoms: C_11  and  C_12 
REMARK    7  A    between atoms: C_13  and  O_14 
ROOT
HETATM    1  C   UNL     1       1.206  -0.732   0.063  1.00  0.00     0.110 C 
HETATM    2  C   UNL     1       0.048  -0.092  -0.342  1.00  0.00     0.143 C 
HETATM    3  N   UNL     1      -0.819  -0.004   0.743  1.00  0.00    -0.197 N 
HETATM    4  C   UNL     1      -0.106  -0.345   1.884  1.00  0.00     0.183 A 
HETATM    5  C   UNL     1       1.123  -0.853   1.469  1.00  0.00     0.125 A 
HETATM    6  N   UNL     1       2.022  -1.353   2.356  1.00  0.00    -0.242 NA
HETATM    7  C   UNL     1       1.663  -1.240   3.646  1.00  0.00     0.086 A 
HETATM    8  C   UNL     1       0.417  -0.693   4.050  1.00  0.00     0.088 A 
HETATM    9  N   UNL     1      -0.505  -0.257   3.176  1.00  0.00    -0.225 NA
HETATM   10  C   UNL     1       2.554  -1.671   4.621  1.00  0.00     0.034 A 
HETATM   11  C   UNL     1       2.256  -1.568   5.981  1.00  0.00     0.002 A 
HETATM   12  C   UNL     1       1.040  -1.029   6.376  1.00  0.00     0.002 A 
HETATM   13  C   UNL     1       0.133  -0.599   5.407  1.00  0.00     0.034 A 
ENDROOT
BRANCH   3  14
HETATM   14  N   UNL     1      -2.151   0.272   0.528  1.00  0.00    -0.176 NA
HETATM   15  C   UNL     1      -2.983   0.106   1.501  1.00  0.00     0.153 C 
BRANCH  15  16
HETATM   16  C   UNL     1      -4.440   0.199   1.241  1.00  0.00     0.017 A 
HETATM   17  C   UNL     1      -4.952   0.282  -0.063  1.00  0.00     0.077 A 
HETATM   18  C   UNL     1      -6.326   0.284  -0.284  1.00  0.00     0.039 A 
HETATM   19  C   UNL     1      -7.201   0.199   0.799  1.00  0.00     0.022 A 
HETATM   20  C   UNL     1      -6.692   0.119   2.096  1.00  0.00     0.012 A 
HETATM   21 BR   UNL     1      -7.883  -0.009   3.559  1.00  0.00    -0.051 Br
HETATM   22  C   UNL     1      -5.315   0.116   2.327  1.00  0.00     0.034 A 
BRANCH  17  23
HETATM   23  O   UNL     1      -4.157   0.333  -1.175  1.00  0.00    -0.360 OA
HETATM   24  H   UNL     1      -3.225   0.278  -0.865  1.00  0.00     0.217 HD
ENDBRANCH  17  23
ENDBRANCH  15  16
ENDBRANCH   3  14
BRANCH   2  25
HETATM   25  N   UNL     1      -0.331   0.309  -1.586  1.00  0.00    -0.383 N 
HETATM   26  H   UNL     1       0.396   0.433  -2.296  1.00  0.00     0.157 HD
HETATM   27  H   UNL     1      -1.088   0.986  -1.680  1.00  0.00     0.157 HD
ENDBRANCH   2  25
BRANCH   1  28
HETATM   28  C   UNL     1       2.233  -1.193  -0.848  1.00  0.00     0.258 C 
HETATM   29  N   UNL     1       2.577  -2.517  -0.664  1.00  0.00    -0.352 N 
HETATM   30  H   UNL     1       2.100  -3.014   0.077  1.00  0.00     0.163 HD
HETATM   31  O   UNL     1       2.632  -0.512  -1.789  1.00  0.00    -0.267 OA
BRANCH  29  32
HETATM   32  C   UNL     1       3.133  -3.296  -1.762  1.00  0.00     0.080 C 
HETATM   33  C   UNL     1       2.059  -3.541  -2.829  1.00  0.00     0.032 C 
BRANCH  32  34
HETATM   34  C   UNL     1       3.678  -4.642  -1.263  1.00  0.00     0.020 C 
HETATM   35  C   UNL     1       4.866  -4.488  -0.326  1.00  0.00     0.007 C 
ENDBRANCH  32  34
ENDBRANCH  29  32
ENDBRANCH   1  28
TORSDOF 7
