REMARK  6 active torsions:
REMARK  status: ('A' for Active; 'I' for Inactive)
REMARK    1  A    between atoms: N_4  and  C_5 
REMARK    2  A    between atoms: C_5  and  C_6 
REMARK    3  A    between atoms: C_6  and  C_7 
REMARK    4  A    between atoms: C_7  and  N_8 
REMARK       I    between atoms: N_8  and  C_9 
REMARK       I    between atoms: C_9  and  N_10 
REMARK    5  A    between atoms: N_10  and  C_11 
REMARK    6  A    between atoms: C_12  and  O_13 
ROOT
HETATM    1  N   UNL     1       9.088   1.103   0.433  1.00  0.00    -0.343 N 
HETATM    2  C   UNL     1      10.216   1.886   0.309  1.00  0.00     0.320 C 
HETATM    3  N   UNL     1      11.212   1.198  -0.356  1.00  0.00    -0.306 N 
HETATM    4  O   UNL     1      10.309   3.007   0.794  1.00  0.00    -0.247 OA
HETATM    5  H   UNL     1       8.919   0.462  -0.335  1.00  0.00     0.164 HD
HETATM    6  H   UNL     1      11.268   0.234  -0.060  1.00  0.00     0.171 HD
ENDROOT
BRANCH   1   7
HETATM    7  C   UNL     1       7.913   1.582   1.130  1.00  0.00     0.126 C 
BRANCH   7   8
HETATM    8  C   UNL     1       7.224   2.775   0.463  1.00  0.00     0.041 C 
BRANCH   8   9
HETATM    9  C   UNL     1       6.937   2.592  -1.024  1.00  0.00     0.152 C 
BRANCH   9  10
HETATM   10  N   UNL     1       6.037   1.490  -1.299  1.00  0.00    -0.279 N 
HETATM   11  N   UNL     1       6.534   0.256  -1.528  1.00  0.00    -0.176 NA
HETATM   12  C   UNL     1       5.441  -0.488  -1.763  1.00  0.00     0.074 A 
HETATM   13  C   UNL     1       5.567  -1.930  -2.086  1.00  0.00     0.074 C 
HETATM   14  C   UNL     1       4.257   0.281  -1.663  1.00  0.00     0.077 A 
HETATM   15  C   UNL     1       4.676   1.552  -1.359  1.00  0.00     0.138 A 
HETATM   16 CL   UNL     1       2.667  -0.257  -1.876  1.00  0.00    -0.081 Cl
ENDBRANCH   9  10
ENDBRANCH   8   9
ENDBRANCH   7   8
ENDBRANCH   1   7
BRANCH   3  17
HETATM   17  C   UNL     1      12.410   1.818  -0.780  1.00  0.00     0.071 A 
HETATM   18  C   UNL     1      12.424   3.054  -1.464  1.00  0.00     0.095 A 
HETATM   19  C   UNL     1      13.653   3.623  -1.819  1.00  0.00     0.041 A 
HETATM   20  C   UNL     1      14.850   2.966  -1.521  1.00  0.00     0.026 A 
HETATM   21  C   UNL     1      14.822   1.726  -0.890  1.00  0.00     0.036 A 
HETATM   22 CL   UNL     1      16.298   0.911  -0.545  1.00  0.00    -0.084 Cl
HETATM   23  C   UNL     1      13.610   1.141  -0.532  1.00  0.00     0.056 A 
BRANCH  18  24
HETATM   24  O   UNL     1      11.209   3.571  -1.834  1.00  0.00    -0.354 OA
HETATM   25  C   UNL     1      11.184   4.910  -2.308  1.00  0.00     0.210 C 
ENDBRANCH  18  24
ENDBRANCH   3  17
TORSDOF 6
