REMARK  2 active torsions:
REMARK  status: ('A' for Active; 'I' for Inactive)
REMARK    1  A    between atoms: C_9  and  C_10 
REMARK       I    between atoms: C_10  and  N_11 
REMARK    2  A    between atoms: N_11  and  C_12 
ROOT
HETATM    1  C   UNL     1       3.545   1.632  -0.270  1.00  0.00     0.267 C 
HETATM    2  N   UNL     1       3.868   2.926   0.000  1.00  0.00    -0.156 N 
HETATM    3  O   UNL     1       4.271   0.976  -1.031  1.00  0.00    -0.270 OA
HETATM    4  H   UNL     1       4.680   3.291  -0.485  1.00  0.00     0.187 HD
ENDROOT
BRANCH   1   5
HETATM    5  C   UNL     1       2.303   0.935   0.327  1.00  0.00     0.282 C 
HETATM    6  N   UNL     1       2.425  -0.569   0.054  1.00  0.00    -0.058 N 
HETATM    7  C   UNL     1       1.333  -1.357   0.668  1.00  0.00     0.272 C 
HETATM    8  H   UNL     1       2.442  -0.701  -0.967  1.00  0.00     0.278 HD
HETATM    9  H   UNL     1       3.349  -0.888   0.371  1.00  0.00     0.278 HD
HETATM   10  C   UNL     1      -0.026  -0.786   0.384  1.00  0.00    -0.026 A 
HETATM   11  C   UNL     1      -0.181   0.542  -0.062  1.00  0.00    -0.048 A 
HETATM   12  C   UNL     1      -1.165  -1.569   0.621  1.00  0.00     0.009 A 
HETATM   13  C   UNL     1      -1.469   1.048  -0.292  1.00  0.00     0.008 A 
HETATM   14  C   UNL     1       1.016   1.416  -0.359  1.00  0.00     0.082 C 
HETATM   15  C   UNL     1      -2.591   0.255  -0.060  1.00  0.00     0.001 A 
HETATM   16  C   UNL     1      -2.440  -1.051   0.397  1.00  0.00     0.001 A 
ENDBRANCH   1   5
BRANCH   2  17
HETATM   17  C   UNL     1       3.228   3.701   0.928  1.00  0.00     0.708 A 
HETATM   18  N   UNL     1       2.239   3.339   1.708  1.00  0.00    -0.062 NA
HETATM   19  C   UNL     1       1.921   4.455   2.447  1.00  0.00     0.103 A 
HETATM   20  C   UNL     1       2.749   5.519   2.110  1.00  0.00     0.078 A 
HETATM   21  C   UNL     1       0.932   4.634   3.423  1.00  0.00     0.034 A 
HETATM   22  N   UNL     1       3.584   5.008   1.150  1.00  0.00    -0.188 N 
HETATM   23  C   UNL     1       2.648   6.783   2.693  1.00  0.00     0.032 A 
HETATM   24  H   UNL     1       4.316   5.520   0.680  1.00  0.00     0.184 HD
HETATM   25  C   UNL     1       1.652   6.947   3.663  1.00  0.00     0.002 A 
HETATM   26  C   UNL     1       0.809   5.893   4.025  1.00  0.00     0.002 A 
ENDBRANCH   2  17
TORSDOF 2
