REMARK  9 active torsions:
REMARK  status: ('A' for Active; 'I' for Inactive)
REMARK    1  A    between atoms: C_2  and  N_3 
REMARK    2  A    between atoms: N_3  and  C_4 
REMARK    3  A    between atoms: N_3  and  C_34 
REMARK    4  A    between atoms: C_6  and  O_7 
REMARK    5  A    between atoms: C_8  and  C_9 
REMARK    6  A    between atoms: N_10  and  N_11 
REMARK       I    between atoms: N_11  and  C_12 
REMARK    7  A    between atoms: C_12  and  C_13 
REMARK    8  A    between atoms: C_16  and  N_17 
REMARK    9  A    between atoms: C_21  and  C_22 
ROOT
HETATM    1  C   UNL     1      -1.132   6.857   5.685  1.00  0.00     0.033 A 
HETATM    2  C   UNL     1      -0.380   6.534   4.550  1.00  0.00     0.019 A 
HETATM    3  C   UNL     1       0.656   7.380   4.131  1.00  0.00     0.030 A 
HETATM    4  C   UNL     1       0.962   8.565   4.822  1.00  0.00     0.034 A 
HETATM    5  C   UNL     1       0.182   8.883   5.940  1.00  0.00     0.030 A 
HETATM    6  C   UNL     1      -0.850   8.041   6.371  1.00  0.00     0.019 A 
ENDROOT
BRANCH   1   7
HETATM    7  C   UNL     1      -2.255   6.005   6.172  1.00  0.00     0.271 C 
HETATM    8  N   UNL     1      -2.159   4.655   5.848  1.00  0.00    -0.243 N 
HETATM    9  H   UNL     1      -1.241   4.294   5.611  1.00  0.00     0.192 HD
HETATM   10  O   UNL     1      -3.145   6.526   6.838  1.00  0.00    -0.266 OA
BRANCH   8  11
HETATM   11  N   UNL     1      -3.016   3.679   6.289  1.00  0.00    -0.183 NA
HETATM   12  C   UNL     1      -4.278   3.974   6.376  1.00  0.00     0.153 C 
BRANCH  12  13
HETATM   13  C   UNL     1      -5.263   3.004   6.900  1.00  0.00     0.016 A 
HETATM   14  C   UNL     1      -6.614   3.328   6.968  1.00  0.00     0.079 A 
HETATM   15  C   UNL     1      -7.541   2.407   7.480  1.00  0.00     0.066 A 
HETATM   16  C   UNL     1      -7.159   1.135   7.951  1.00  0.00     0.032 A 
HETATM   17  C   UNL     1      -5.785   0.843   7.863  1.00  0.00     0.030 A 
HETATM   18  C   UNL     1      -4.849   1.753   7.349  1.00  0.00     0.018 A 
BRANCH  14  19
HETATM   19  O   UNL     1      -7.048   4.550   6.532  1.00  0.00    -0.360 OA
HETATM   20  H   UNL     1      -7.982   4.663   6.771  1.00  0.00     0.217 HD
ENDBRANCH  14  19
BRANCH  16  21
HETATM   21  N   UNL     1      -8.079   0.225   8.465  1.00  0.00    -0.382 N 
BRANCH  21  22
HETATM   22  C   UNL     1      -7.665  -1.066   9.036  1.00  0.00     0.118 C 
HETATM   23  C   UNL     1      -7.211  -0.899  10.479  1.00  0.00     0.026 C 
ENDBRANCH  21  22
BRANCH  21  24
HETATM   24  C   UNL     1      -9.519   0.513   8.533  1.00  0.00     0.118 C 
HETATM   25  C   UNL     1     -10.195   0.203   7.205  1.00  0.00     0.026 C 
ENDBRANCH  21  24
ENDBRANCH  16  21
ENDBRANCH  12  13
ENDBRANCH   8  11
ENDBRANCH   1   7
BRANCH   4  26
HETATM   26  N   UNL     1       1.975   9.397   4.315  1.00  0.00    -0.335 N 
HETATM   27  C   UNL     1       2.210  10.703   4.588  1.00  0.00     0.171 A 
HETATM   28  S   UNL     1       3.615  11.457   3.922  1.00  0.00    -0.061 SA
HETATM   29  N   UNL     1       1.458  11.513   5.297  1.00  0.00    -0.223 NA
HETATM   30  C   UNL     1       3.163  12.945   4.642  1.00  0.00     0.085 A 
HETATM   31  C   UNL     1       1.979  12.798   5.335  1.00  0.00     0.076 A 
HETATM   32  H   UNL     1       2.610   8.947   3.669  1.00  0.00     0.168 HD
BRANCH  31  33
HETATM   33  C   UNL     1       1.278  13.865   6.053  1.00  0.00    -0.007 A 
HETATM   34  C   UNL     1       1.800  15.160   6.186  1.00  0.00     0.014 A 
HETATM   35  C   UNL     1       1.090  16.150   6.874  1.00  0.00     0.001 A 
HETATM   36  C   UNL     1      -0.150  15.860   7.439  1.00  0.00     0.000 A 
HETATM   37  C   UNL     1      -0.682  14.580   7.318  1.00  0.00     0.001 A 
HETATM   38  C   UNL     1       0.027  13.592   6.631  1.00  0.00     0.014 A 
ENDBRANCH  31  33
ENDBRANCH   4  26
TORSDOF 9
