REMARK  4 active torsions:
REMARK  status: ('A' for Active; 'I' for Inactive)
REMARK    1  A    between atoms: O_2  and  C_3 
REMARK    2  A    between atoms: C_6  and  C_7 
REMARK    3  A    between atoms: C_12  and  N_13 
REMARK    4  A    between atoms: C_15  and  C_16 
ROOT
HETATM    1  C   UNL     1       4.627  -4.830  -2.306  1.00  0.00     0.135 C 
HETATM    2  N   UNL     1       4.057  -6.150  -2.061  1.00  0.00    -0.214 N 
HETATM    3  C   UNL     1       2.897  -6.459  -2.677  1.00  0.00     0.736 A 
HETATM    4  N   UNL     1       2.498  -5.804  -3.813  1.00  0.00    -0.074 N 
HETATM    5  N   UNL     1       1.262  -6.185  -4.183  1.00  0.00     0.037 NA
HETATM    6  C   UNL     1       1.009  -7.126  -3.278  1.00  0.00     0.753 A 
HETATM    7  N   UNL     1       1.983  -7.333  -2.347  1.00  0.00     0.131 NA
HETATM    8  C   UNL     1       3.209  -4.669  -4.393  1.00  0.00     0.164 C 
HETATM    9  C   UNL     1       4.634  -4.553  -3.818  1.00  0.00     0.063 C 
HETATM   10  H   UNL     1       4.155  -6.494  -1.107  1.00  0.00     0.178 HD
ENDROOT
BRANCH   1  11
HETATM   11  C   UNL     1       6.030  -4.749  -1.735  1.00  0.00    -0.035 A 
HETATM   12  C   UNL     1       6.981  -5.750  -1.982  1.00  0.00     0.012 A 
HETATM   13  C   UNL     1       8.282  -5.631  -1.490  1.00  0.00     0.037 A 
HETATM   14  C   UNL     1       8.665  -4.512  -0.749  1.00  0.00     0.068 A 
HETATM   15  C   UNL     1       7.724  -3.519  -0.484  1.00  0.00     0.037 A 
HETATM   16  C   UNL     1       6.417  -3.635  -0.975  1.00  0.00     0.012 A 
BRANCH  14  17
HETATM   17  O   UNL     1       9.970  -4.513  -0.342  1.00  0.00    -0.356 OA
HETATM   18  C   UNL     1      10.457  -3.314   0.247  1.00  0.00     0.210 C 
ENDBRANCH  14  17
ENDBRANCH   1  11
BRANCH   8  19
HETATM   19  C   UNL     1       3.253  -4.719  -5.914  1.00  0.00    -0.031 A 
HETATM   20  C   UNL     1       2.858  -3.596  -6.661  1.00  0.00     0.028 A 
HETATM   21  C   UNL     1       2.926  -3.618  -8.055  1.00  0.00     0.011 A 
HETATM   22 BR   UNL     1       2.392  -2.097  -9.042  1.00  0.00    -0.051 Br
HETATM   23  C   UNL     1       3.389  -4.748  -8.725  1.00  0.00     0.019 A 
HETATM   24  C   UNL     1       3.785  -5.867  -7.996  1.00  0.00     0.002 A 
HETATM   25  C   UNL     1       3.720  -5.853  -6.601  1.00  0.00     0.009 A 
ENDBRANCH   8  19
BRANCH   6  26
HETATM   26  N   UNL     1      -0.095  -7.866  -3.222  1.00  0.00    -0.229 N 
HETATM   27  H   UNL     1      -0.645  -7.921  -4.068  1.00  0.00     0.174 HD
HETATM   28  H   UNL     1      -0.034  -8.727  -2.697  1.00  0.00     0.174 HD
ENDBRANCH   6  26
TORSDOF 4
