REMARK  9 active torsions:
REMARK  status: ('A' for Active; 'I' for Inactive)
REMARK    1  A    between atoms: O_2  and  C_3 
REMARK    2  A    between atoms: C_4  and  O_5 
REMARK    3  A    between atoms: C_6  and  C_7 
REMARK    4  A    between atoms: N_8  and  N_9 
REMARK       I    between atoms: N_9  and  C_10 
REMARK    5  A    between atoms: C_10  and  C_11 
REMARK    6  A    between atoms: C_11  and  N_12 
REMARK       I    between atoms: N_12  and  C_13 
REMARK    7  A    between atoms: C_13  and  C_14 
REMARK    8  A    between atoms: C_15  and  C_16 
REMARK    9  A    between atoms: C_15  and  C_22 
ROOT
HETATM    1  N   UNL     1       8.009  -1.988  -1.327  1.00  0.00    -0.352 N 
HETATM    2  C   UNL     1       6.786  -2.458  -0.922  1.00  0.00     0.223 C 
HETATM    3  O   UNL     1       6.052  -1.850  -0.153  1.00  0.00    -0.273 OA
HETATM    4  H   UNL     1       8.611  -2.568  -1.896  1.00  0.00     0.162 HD
ENDROOT
BRANCH   1   5
HETATM    5  C   UNL     1       8.450  -0.645  -1.013  1.00  0.00     0.227 C 
BRANCH   5   6
HETATM    6  C   UNL     1       8.973  -0.485   0.412  1.00  0.00     0.255 C 
HETATM    7  N   UNL     1       7.953  -0.448   1.350  1.00  0.00    -0.246 N 
HETATM    8  H   UNL     1       6.999  -0.690   1.067  1.00  0.00     0.192 HD
HETATM    9  O   UNL     1      10.175  -0.363   0.644  1.00  0.00    -0.270 OA
BRANCH   7  10
HETATM   10  N   UNL     1       8.211  -0.048   2.625  1.00  0.00    -0.184 NA
HETATM   11  C   UNL     1       7.164   0.099   3.376  1.00  0.00     0.153 C 
BRANCH  11  12
HETATM   12  C   UNL     1       7.278   0.599   4.761  1.00  0.00     0.019 A 
HETATM   13  C   UNL     1       6.132   0.914   5.493  1.00  0.00     0.110 A 
HETATM   14  C   UNL     1       6.229   1.440   6.790  1.00  0.00     0.102 A 
HETATM   15  C   UNL     1       7.490   1.631   7.358  1.00  0.00     0.040 A 
HETATM   16  C   UNL     1       8.641   1.309   6.632  1.00  0.00     0.004 A 
HETATM   17  C   UNL     1       8.537   0.799   5.336  1.00  0.00     0.016 A 
BRANCH  13  18
HETATM   18  O   UNL     1       4.886   0.735   4.946  1.00  0.00    -0.357 OA
HETATM   19  H   UNL     1       4.259   1.029   5.637  1.00  0.00     0.218 HD
ENDBRANCH  13  18
BRANCH  14  20
HETATM   20  O   UNL     1       5.026   1.726   7.387  1.00  0.00    -0.353 OA
HETATM   21  C   UNL     1       5.082   2.389   8.646  1.00  0.00     0.210 C 
ENDBRANCH  14  20
ENDBRANCH  11  12
ENDBRANCH   7  10
ENDBRANCH   5   6
ENDBRANCH   1   5
BRANCH   2  22
HETATM   22  C   UNL     1       6.436  -3.772  -1.509  1.00  0.00     0.097 A 
HETATM   23  C   UNL     1       5.279  -3.906  -2.513  1.00  0.00     0.027 A 
HETATM   24  C   UNL     1       5.208  -4.533  -1.120  1.00  0.00     0.035 A 
BRANCH  23  25
HETATM   25  C   UNL     1       4.282  -2.771  -2.777  1.00  0.00    -0.044 A 
HETATM   26  C   UNL     1       4.687  -1.505  -3.237  1.00  0.00     0.008 A 
HETATM   27  C   UNL     1       3.762  -0.488  -3.490  1.00  0.00     0.001 A 
HETATM   28  C   UNL     1       2.402  -0.719  -3.304  1.00  0.00     0.000 A 
HETATM   29  C   UNL     1       1.968  -1.966  -2.868  1.00  0.00     0.001 A 
HETATM   30  C   UNL     1       2.898  -2.976  -2.611  1.00  0.00     0.008 A 
ENDBRANCH  23  25
BRANCH  23  31
HETATM   31  C   UNL     1       5.575  -4.789  -3.729  1.00  0.00    -0.044 A 
HETATM   32  C   UNL     1       4.871  -5.981  -3.974  1.00  0.00     0.008 A 
HETATM   33  C   UNL     1       5.142  -6.769  -5.096  1.00  0.00     0.001 A 
HETATM   34  C   UNL     1       6.123  -6.379  -6.003  1.00  0.00     0.000 A 
HETATM   35  C   UNL     1       6.830  -5.200  -5.792  1.00  0.00     0.001 A 
HETATM   36  C   UNL     1       6.555  -4.416  -4.669  1.00  0.00     0.008 A 
ENDBRANCH  23  31
ENDBRANCH   2  22
TORSDOF 9
