REMARK  9 active torsions:
REMARK  status: ('A' for Active; 'I' for Inactive)
REMARK    1  A    between atoms: C_3  and  C_4 
REMARK       I    between atoms: C_4  and  N_5 
REMARK    2  A    between atoms: N_5  and  C_6 
REMARK    3  A    between atoms: C_6  and  C_7 
REMARK    4  A    between atoms: C_14  and  N_15 
REMARK       I    between atoms: N_15  and  C_16 
REMARK    5  A    between atoms: C_16  and  C_17 
REMARK       I    between atoms: C_17  and  N_18 
REMARK    6  A    between atoms: N_18  and  C_19 
REMARK    7  A    between atoms: C_19  and  C_20 
REMARK    8  A    between atoms: C_20  and  C_21 
REMARK    9  A    between atoms: C_24  and  O_25 
ROOT
HETATM    1  N   UNL     1       2.416  -0.409   0.347  1.00  0.00    -0.318 N 
HETATM    2  C   UNL     1       3.343   0.321   1.060  1.00  0.00     0.313 C 
HETATM    3  O   UNL     1       3.168   1.341   1.715  1.00  0.00    -0.262 OA
HETATM    4  H   UNL     1       2.711  -1.356   0.121  1.00  0.00     0.169 HD
ENDROOT
BRANCH   1   5
HETATM    5  C   UNL     1       1.068  -0.053   0.149  1.00  0.00     0.051 A 
HETATM    6  C   UNL     1       0.586   1.260  -0.012  1.00  0.00     0.058 A 
HETATM    7  C   UNL     1      -0.800   1.484  -0.118  1.00  0.00     0.019 A 
HETATM    8  C   UNL     1      -1.696   0.416  -0.081  1.00  0.00     0.001 A 
HETATM    9  C   UNL     1      -1.217  -0.886   0.023  1.00  0.00     0.002 A 
HETATM   10  C   UNL     1       0.156  -1.119   0.122  1.00  0.00     0.030 A 
BRANCH   6  11
HETATM   11  C   UNL     1       1.487   2.405  -0.321  1.00  0.00     0.254 C 
HETATM   12  N   UNL     1       1.144   3.614   0.249  1.00  0.00    -0.353 N 
HETATM   13  H   UNL     1       0.472   3.623   1.005  1.00  0.00     0.163 HD
HETATM   14  O   UNL     1       2.436   2.256  -1.084  1.00  0.00    -0.268 OA
BRANCH  12  15
HETATM   15  C   UNL     1       1.971   4.787   0.069  1.00  0.00     0.162 C 
BRANCH  15  16
HETATM   16  C   UNL     1       1.147   6.021  -0.166  1.00  0.00    -0.023 A 
HETATM   17  C   UNL     1       1.427   7.205   0.509  1.00  0.00     0.125 A 
HETATM   18  N   UNL     1       0.764   8.369   0.315  1.00  0.00    -0.273 NA
HETATM   19  C   UNL     1      -0.219   8.360  -0.610  1.00  0.00     0.116 A 
HETATM   20  C   UNL     1      -0.571   7.243  -1.347  1.00  0.00     0.020 A 
HETATM   21  C   UNL     1       0.128   6.060  -1.123  1.00  0.00     0.012 A 
ENDBRANCH  15  16
ENDBRANCH  12  15
ENDBRANCH   6  11
ENDBRANCH   1   5
BRANCH   2  22
HETATM   22  C   UNL     1       4.725  -0.372   1.096  1.00  0.00     0.309 C 
HETATM   23  N   UNL     1       5.618   0.218   1.961  1.00  0.00    -0.353 N 
HETATM   24  H   UNL     1       5.304   1.068   2.421  1.00  0.00     0.162 HD
HETATM   25  O   UNL     1       4.926  -1.371   0.420  1.00  0.00    -0.262 OA
BRANCH  23  26
HETATM   26  C   UNL     1       6.998  -0.209   2.075  1.00  0.00     0.128 C 
BRANCH  26  27
HETATM   27  C   UNL     1       7.908   0.608   1.158  1.00  0.00     0.058 C 
BRANCH  27  28
HETATM   28  C   UNL     1       9.352   0.185   1.258  1.00  0.00    -0.057 A 
HETATM   29  C   UNL     1       9.893  -0.714   0.327  1.00  0.00     0.010 A 
HETATM   30  C   UNL     1      11.231  -1.105   0.412  1.00  0.00     0.037 A 
HETATM   31  C   UNL     1      12.026  -0.601   1.436  1.00  0.00     0.065 A 
HETATM   32  C   UNL     1      11.505   0.279   2.375  1.00  0.00     0.037 A 
HETATM   33  C   UNL     1      10.168   0.673   2.288  1.00  0.00     0.010 A 
BRANCH  31  34
HETATM   34  O   UNL     1      13.339  -0.951   1.553  1.00  0.00    -0.361 OA
HETATM   35  H   UNL     1      13.566  -1.542   0.816  1.00  0.00     0.217 HD
ENDBRANCH  31  34
ENDBRANCH  27  28
ENDBRANCH  26  27
ENDBRANCH  23  26
ENDBRANCH   2  22
TORSDOF 9
