REMARK  6 active torsions:
REMARK  status: ('A' for Active; 'I' for Inactive)
REMARK    1  A    between atoms: C_2  and  O_3 
REMARK    2  A    between atoms: O_3  and  C_4 
REMARK    3  A    between atoms: C_7  and  C_8 
REMARK    4  A    between atoms: C_8  and  N_9 
REMARK       I    between atoms: N_9  and  C_10 
REMARK    5  A    between atoms: C_10  and  C_11 
REMARK    6  A    between atoms: C_15  and  C_16 
ROOT
HETATM    1  N   UNL     1       9.063  -0.311   2.518  1.00  0.00    -0.347 N 
HETATM    2  C   UNL     1       8.249  -0.187   3.625  1.00  0.00     0.272 C 
HETATM    3  O   UNL     1       7.078  -0.556   3.652  1.00  0.00    -0.266 OA
HETATM    4  H   UNL     1      10.033  -0.056   2.669  1.00  0.00     0.163 HD
ENDROOT
BRANCH   2   5
HETATM    5  C   UNL     1       8.928   0.370   4.804  1.00  0.00     0.146 A 
HETATM    6  N   UNL     1      10.234   0.703   4.806  1.00  0.00    -0.169 NA
HETATM    7  N   UNL     1      10.462   1.095   6.075  1.00  0.00    -0.277 N 
HETATM    8  H   UNL     1      11.405   1.370   6.326  1.00  0.00     0.189 HD
HETATM    9  C   UNL     1       9.370   1.024   6.901  1.00  0.00     0.063 A 
HETATM   10  C   UNL     1       8.353   0.571   6.084  1.00  0.00     0.071 A 
BRANCH   9  11
HETATM   11  C   UNL     1       9.393   1.326   8.333  1.00  0.00    -0.008 A 
HETATM   12  C   UNL     1      10.311   2.233   8.880  1.00  0.00     0.014 A 
HETATM   13  C   UNL     1      10.322   2.496  10.254  1.00  0.00     0.001 A 
HETATM   14  C   UNL     1       9.416   1.857  11.097  1.00  0.00     0.000 A 
HETATM   15  C   UNL     1       8.494   0.959  10.569  1.00  0.00     0.001 A 
HETATM   16  C   UNL     1       8.483   0.697   9.196  1.00  0.00     0.014 A 
ENDBRANCH   9  11
ENDBRANCH   2   5
BRANCH   1  17
HETATM   17  C   UNL     1       8.686  -1.166   1.413  1.00  0.00     0.114 C 
HETATM   18  C   UNL     1       8.930  -2.639   1.760  1.00  0.00     0.037 C 
BRANCH  17  19
HETATM   19  C   UNL     1       9.403  -0.794   0.128  1.00  0.00    -0.036 A 
HETATM   20  C   UNL     1      10.802  -0.784   0.028  1.00  0.00     0.012 A 
HETATM   21  C   UNL     1      11.434  -0.528  -1.197  1.00  0.00     0.037 A 
HETATM   22  C   UNL     1      10.675  -0.287  -2.341  1.00  0.00     0.068 A 
HETATM   23  C   UNL     1       9.284  -0.258  -2.242  1.00  0.00     0.037 A 
HETATM   24  C   UNL     1       8.652  -0.511  -1.023  1.00  0.00     0.012 A 
BRANCH  22  25
HETATM   25  O   UNL     1      11.163  -0.064  -3.598  1.00  0.00    -0.352 OA
BRANCH  25  26
HETATM   26  C   UNL     1      12.535  -0.388  -3.822  1.00  0.00     0.171 C 
HETATM   27  C   UNL     1      12.785  -0.352  -5.319  1.00  0.00     0.034 C 
ENDBRANCH  25  26
ENDBRANCH  22  25
ENDBRANCH  17  19
ENDBRANCH   1  17
TORSDOF 6
