REMARK  7 active torsions:
REMARK  status: ('A' for Active; 'I' for Inactive)
REMARK    1  A    between atoms: N_2  and  C_4 
REMARK    2  A    between atoms: N_2  and  C_27 
REMARK    3  A    between atoms: C_4  and  C_5 
REMARK       I    between atoms: C_5  and  N_6 
REMARK    4  A    between atoms: N_6  and  N_7 
REMARK    5  A    between atoms: C_11  and  C_12 
REMARK    6  A    between atoms: C_11  and  C_18 
REMARK    7  A    between atoms: C_27  and  C_28 
ROOT
HETATM    1  N   UNL     1       0.997  -0.514  -2.142  1.00  0.00    -0.167 N 
HETATM    2  C   UNL     1       1.921  -1.514  -2.234  1.00  0.00     0.346 C 
HETATM    3  O   UNL     1       3.083  -1.401  -2.585  1.00  0.00    -0.245 OA
HETATM    4  N   UNL     1       1.311  -2.699  -1.925  1.00  0.00    -0.315 N 
HETATM    5  C   UNL     1      -0.138  -2.600  -1.758  1.00  0.00     0.173 C 
HETATM    6  C   UNL     1      -0.263  -1.046  -1.998  1.00  0.00     0.285 C 
HETATM    7  O   UNL     1      -1.288  -0.369  -2.037  1.00  0.00    -0.267 OA
HETATM    8  H   UNL     1       1.830  -3.564  -1.984  1.00  0.00     0.166 HD
ENDROOT
BRANCH   1   9
HETATM    9  N   UNL     1       1.232   0.721  -2.741  1.00  0.00    -0.255 N 
HETATM   10  C   UNL     1       1.080   1.930  -2.123  1.00  0.00     0.262 C 
HETATM   11  O   UNL     1       1.484   2.951  -2.685  1.00  0.00    -0.270 OA
HETATM   12  H   UNL     1       1.776   0.700  -3.603  1.00  0.00     0.191 HD
BRANCH  10  13
HETATM   13  C   UNL     1       0.409   2.001  -0.746  1.00  0.00     0.338 C 
BRANCH  13  14
HETATM   14  N   UNL     1       0.045   3.417  -0.272  1.00  0.00    -0.061 N 
HETATM   15  C   UNL     1      -0.927   4.109  -1.173  1.00  0.00     0.270 C 
HETATM   16  H   UNL     1      -0.416   3.272   0.640  1.00  0.00     0.280 HD
BRANCH  14  17
HETATM   17  C   UNL     1       1.254   4.279   0.075  1.00  0.00     0.301 C 
BRANCH  17  18
HETATM   18  C   UNL     1       1.848   3.862   1.389  1.00  0.00     0.102 A 
HETATM   19  S   UNL     1       3.385   4.420   1.879  1.00  0.00    -0.071 SA
HETATM   20  C   UNL     1       3.245   3.513   3.337  1.00  0.00     0.035 A 
HETATM   21  C   UNL     1       2.016   2.846   3.343  1.00  0.00     0.074 A 
HETATM   22  C   UNL     1       4.156   3.399   4.399  1.00  0.00     0.021 A 
HETATM   23  N   UNL     1       1.223   3.052   2.220  1.00  0.00    -0.243 NA
HETATM   24  C   UNL     1       1.688   2.038   4.449  1.00  0.00     0.033 A 
HETATM   25  C   UNL     1       2.589   1.918   5.512  1.00  0.00     0.002 A 
HETATM   26  C   UNL     1       3.807   2.591   5.484  1.00  0.00     0.002 A 
ENDBRANCH  17  18
ENDBRANCH  14  17
ENDBRANCH  13  14
ENDBRANCH  10  13
ENDBRANCH   1   9
BRANCH   5  27
HETATM   27  C   UNL     1      -0.537  -3.014  -0.335  1.00  0.00    -0.016 A 
HETATM   28  C   UNL     1      -1.629  -2.425   0.329  1.00  0.00     0.010 A 
HETATM   29  C   UNL     1      -1.998  -2.830   1.616  1.00  0.00     0.001 A 
HETATM   30  C   UNL     1      -1.294  -3.841   2.261  1.00  0.00     0.000 A 
HETATM   31  C   UNL     1      -0.227  -4.457   1.617  1.00  0.00     0.001 A 
HETATM   32  C   UNL     1       0.143  -4.055   0.331  1.00  0.00     0.010 A 
ENDBRANCH   5  27
BRANCH   5  33
HETATM   33  C   UNL     1      -0.899  -3.392  -2.831  1.00  0.00    -0.016 A 
HETATM   34  C   UNL     1      -0.322  -4.485  -3.506  1.00  0.00     0.010 A 
HETATM   35  C   UNL     1      -1.037  -5.198  -4.474  1.00  0.00     0.001 A 
HETATM   36  C   UNL     1      -2.346  -4.845  -4.781  1.00  0.00     0.000 A 
HETATM   37  C   UNL     1      -2.948  -3.786  -4.113  1.00  0.00     0.001 A 
HETATM   38  C   UNL     1      -2.236  -3.074  -3.144  1.00  0.00     0.010 A 
ENDBRANCH   5  33
TORSDOF 7
