REMARK  5 active torsions:
REMARK  status: ('A' for Active; 'I' for Inactive)
REMARK    1  A    between atoms: C_7  and  C_8 
REMARK    2  A    between atoms: C_10  and  N_11 
REMARK       I    between atoms: N_11  and  C_12 
REMARK    3  A    between atoms: C_12  and  C_13 
REMARK    4  A    between atoms: C_15  and  O_16 
REMARK    5  A    between atoms: C_19  and  O_20 
ROOT
HETATM    1  C   UNL     1       7.939  -2.603  -0.359  1.00  0.00     0.019 A 
HETATM    2  C   UNL     1       9.030  -1.717  -0.291  1.00  0.00     0.045 A 
HETATM    3  C   UNL     1      10.343  -2.170  -0.452  1.00  0.00     0.035 A 
HETATM    4  C   UNL     1      10.565  -3.535  -0.668  1.00  0.00     0.029 A 
HETATM    5  C   UNL     1       9.495  -4.432  -0.714  1.00  0.00     0.003 A 
HETATM    6  C   UNL     1       8.190  -3.966  -0.565  1.00  0.00     0.016 A 
ENDROOT
BRANCH   3   7
HETATM    7  N   UNL     1      11.478  -1.324  -0.445  1.00  0.00    -0.323 N 
HETATM    8  C   UNL     1      11.509   0.028  -0.147  1.00  0.00     0.256 C 
HETATM    9  O   UNL     1      10.550   0.699   0.223  1.00  0.00    -0.267 OA
HETATM   10  H   UNL     1      12.338  -1.772  -0.722  1.00  0.00     0.169 HD
BRANCH   8  11
HETATM   11  C   UNL     1      12.825   0.728  -0.304  1.00  0.00     0.037 A 
HETATM   12  C   UNL     1      12.792   2.129  -0.419  1.00  0.00     0.054 A 
HETATM   13  C   UNL     1      13.970   2.857  -0.565  1.00  0.00     0.071 A 
HETATM   14  C   UNL     1      15.185   2.176  -0.618  1.00  0.00     0.073 A 
HETATM   15  C   UNL     1      15.241   0.785  -0.497  1.00  0.00     0.071 A 
HETATM   16  C   UNL     1      14.059   0.060  -0.325  1.00  0.00     0.054 A 
BRANCH  13  17
HETATM   17  O   UNL     1      14.064   4.217  -0.675  1.00  0.00    -0.356 OA
HETATM   18  C   UNL     1      12.878   4.963  -0.426  1.00  0.00     0.210 C 
ENDBRANCH  13  17
BRANCH  15  19
HETATM   19  O   UNL     1      16.504   0.263  -0.551  1.00  0.00    -0.356 OA
HETATM   20  C   UNL     1      16.630  -1.153  -0.529  1.00  0.00     0.210 C 
ENDBRANCH  15  19
ENDBRANCH   8  11
ENDBRANCH   3   7
BRANCH   1  21
HETATM   21  C   UNL     1       6.559  -2.128  -0.261  1.00  0.00     0.181 A 
HETATM   22  O   UNL     1       6.387  -0.801   0.045  1.00  0.00    -0.289 OA
HETATM   23  C   UNL     1       5.037  -0.626   0.016  1.00  0.00     0.106 A 
HETATM   24  C   UNL     1       4.459  -1.843  -0.298  1.00  0.00     0.094 A 
HETATM   25  C   UNL     1       4.337   0.549   0.247  1.00  0.00     0.040 A 
HETATM   26  C   UNL     1       3.063  -1.921  -0.408  1.00  0.00     0.041 A 
HETATM   27  N   UNL     1       5.434  -2.796  -0.458  1.00  0.00    -0.221 NA
HETATM   28  C   UNL     1       2.305  -0.749  -0.208  1.00  0.00    -0.060 A 
HETATM   29  C   UNL     1       0.807  -0.801  -0.304  1.00  0.00     0.048 C 
HETATM   30  C   UNL     1       2.944   0.458   0.131  1.00  0.00     0.009 A 
ENDBRANCH   1  21
TORSDOF 5
