REMARK  2 active torsions:
REMARK  status: ('A' for Active; 'I' for Inactive)
REMARK    1  A    between atoms: C_5  and  C_6 
REMARK    2  A    between atoms: C_9  and  C_10 
ROOT
HETATM    1  C   UNL     1       6.832  -0.324  -0.917  1.00  0.00     0.220 C 
HETATM    2  N   UNL     1       7.926   0.344  -1.599  1.00  0.00    -0.126 NA
HETATM    3  N   UNL     1       7.757   1.734  -1.414  1.00  0.00    -0.126 NA
HETATM    4  C   UNL     1       8.214   2.394  -2.622  1.00  0.00     0.220 C 
HETATM    5  N   UNL     1       8.670   1.319  -3.465  1.00  0.00    -0.324 N 
HETATM    6  C   UNL     1       8.285   0.102  -2.915  1.00  0.00     0.315 C 
HETATM    7  O   UNL     1       8.203  -0.945  -3.533  1.00  0.00    -0.252 OA
HETATM    8  C   UNL     1       6.528   1.966  -0.818  1.00  0.00     0.315 C 
HETATM    9  O   UNL     1       5.891   3.004  -0.795  1.00  0.00    -0.252 OA
HETATM   10  N   UNL     1       6.075   0.747  -0.324  1.00  0.00    -0.324 N 
HETATM   11  H   UNL     1       8.810   1.401  -4.460  1.00  0.00     0.165 HD
HETATM   12  H   UNL     1       5.125   0.656   0.000  1.00  0.00     0.165 HD
ENDROOT
BRANCH   1  13
HETATM   13  C   UNL     1       7.306  -1.322   0.111  1.00  0.00    -0.020 A 
HETATM   14  C   UNL     1       8.364  -1.023   0.986  1.00  0.00     0.011 A 
HETATM   15  C   UNL     1       8.833  -1.974   1.894  1.00  0.00     0.007 A 
HETATM   16  C   UNL     1       8.252  -3.244   1.952  1.00  0.00    -0.062 A 
HETATM   17  C   UNL     1       8.758  -4.273   2.918  1.00  0.00     0.048 C 
HETATM   18  C   UNL     1       7.163  -3.530   1.121  1.00  0.00     0.007 A 
HETATM   19  C   UNL     1       6.696  -2.581   0.208  1.00  0.00     0.011 A 
ENDBRANCH   1  13
BRANCH   4  20
HETATM   20  C   UNL     1       9.299   3.410  -2.359  1.00  0.00    -0.020 A 
HETATM   21  C   UNL     1      10.357   3.138  -1.475  1.00  0.00     0.011 A 
HETATM   22  C   UNL     1      11.323   4.106  -1.194  1.00  0.00     0.007 A 
HETATM   23  C   UNL     1      11.255   5.367  -1.793  1.00  0.00    -0.062 A 
HETATM   24  C   UNL     1      12.287   6.411  -1.485  1.00  0.00     0.048 C 
HETATM   25  C   UNL     1      10.237   5.627  -2.716  1.00  0.00     0.007 A 
HETATM   26  C   UNL     1       9.267   4.660  -2.995  1.00  0.00     0.011 A 
ENDBRANCH   4  20
TORSDOF 2
