REMARK  9 active torsions:
REMARK  status: ('A' for Active; 'I' for Inactive)
REMARK    1  A    between atoms: C_2  and  C_3 
REMARK    2  A    between atoms: C_6  and  N_7 
REMARK    3  A    between atoms: N_7  and  S_8 
REMARK    4  A    between atoms: S_8  and  C_9 
REMARK    5  A    between atoms: C_15  and  C_16 
REMARK       I    between atoms: C_16  and  N_17 
REMARK    6  A    between atoms: N_17  and  C_18 
REMARK    7  A    between atoms: C_18  and  C_19 
REMARK    8  A    between atoms: C_19  and  C_20 
REMARK    9  A    between atoms: C_20  and  O_21 
ROOT
HETATM    1  C   UNL     1       4.311  -0.208   6.760  1.00  0.00     0.081 A 
HETATM    2  C   UNL     1       4.668  -1.558   6.705  1.00  0.00     0.043 A 
HETATM    3  C   UNL     1       3.763  -2.517   7.167  1.00  0.00     0.043 A 
HETATM    4  C   UNL     1       2.500  -2.143   7.661  1.00  0.00     0.046 A 
HETATM    5  N   UNL     1       1.631  -3.122   8.154  1.00  0.00    -0.364 N 
HETATM    6  C   UNL     1       1.966  -4.451   8.105  1.00  0.00     0.109 A 
HETATM    7  C   UNL     1       3.131  -4.945   7.650  1.00  0.00     0.098 A 
HETATM    8  C   UNL     1       4.129  -3.960   7.145  1.00  0.00     0.201 A 
HETATM    9  O   UNL     1       5.229  -4.311   6.724  1.00  0.00    -0.286 OA
HETATM   10  C   UNL     1       2.161  -0.787   7.704  1.00  0.00     0.032 A 
HETATM   11  C   UNL     1       3.059   0.182   7.246  1.00  0.00     0.027 A 
HETATM   12  H   UNL     1       0.678  -2.871   8.393  1.00  0.00     0.165 HD
ENDROOT
BRANCH   1  13
HETATM   13  S   UNL     1       5.455   1.014   6.154  1.00  0.00     0.263 S 
HETATM   14  O   UNL     1       4.711   2.222   5.874  1.00  0.00    -0.200 OA
HETATM   15  O   UNL     1       6.257   0.373   5.133  1.00  0.00    -0.200 OA
BRANCH  13  16
HETATM   16  N   UNL     1       6.472   1.258   7.477  1.00  0.00    -0.281 N 
HETATM   17  H   UNL     1       7.210   0.558   7.539  1.00  0.00     0.179 HD
BRANCH  16  18
HETATM   18  C   UNL     1       5.926   1.756   8.691  1.00  0.00     0.042 A 
HETATM   19  C   UNL     1       5.779   0.907   9.785  1.00  0.00     0.030 A 
HETATM   20  C   UNL     1       5.228   1.393  10.975  1.00  0.00     0.010 A 
HETATM   21  C   UNL     1       4.831   2.735  11.087  1.00  0.00    -0.055 A 
HETATM   22  C   UNL     1       4.970   3.570   9.968  1.00  0.00     0.010 A 
HETATM   23  C   UNL     1       5.510   3.082   8.776  1.00  0.00     0.030 A 
BRANCH  21  24
HETATM   24  C   UNL     1       4.244   3.298  12.370  1.00  0.00     0.010 C 
HETATM   25  C   UNL     1       5.114   3.000  13.595  1.00  0.00     0.015 C 
HETATM   26  C   UNL     1       2.815   2.796  12.582  1.00  0.00     0.015 C 
ENDBRANCH  21  24
ENDBRANCH  16  18
ENDBRANCH  13  16
ENDBRANCH   1  13
BRANCH   7  27
HETATM   27  C   UNL     1       3.342  -6.421   7.690  1.00  0.00     0.257 C 
HETATM   28  N   UNL     1       4.523  -6.860   7.148  1.00  0.00    -0.357 N 
HETATM   29  H   UNL     1       5.181  -6.162   6.796  1.00  0.00     0.162 HD
HETATM   30  O   UNL     1       2.508  -7.176   8.183  1.00  0.00    -0.267 OA
BRANCH  28  31
HETATM   31  C   UNL     1       4.922  -8.251   7.159  1.00  0.00     0.125 C 
BRANCH  31  32
HETATM   32  C   UNL     1       4.204  -9.100   6.116  1.00  0.00     0.046 C 
BRANCH  32  33
HETATM   33  C   UNL     1       4.523  -8.674   4.688  1.00  0.00     0.168 C 
BRANCH  33  34
HETATM   34  O   UNL     1       3.899  -9.601   3.797  1.00  0.00    -0.396 OA
HETATM   35  C   UNL     1       4.124  -9.257   2.437  1.00  0.00     0.201 C 
ENDBRANCH  33  34
ENDBRANCH  32  33
ENDBRANCH  31  32
ENDBRANCH  28  31
ENDBRANCH   7  27
TORSDOF 9
