REMARK  8 active torsions:
REMARK  status: ('A' for Active; 'I' for Inactive)
REMARK    1  A    between atoms: C_3  and  N_4 
REMARK       I    between atoms: N_4  and  C_5 
REMARK    2  A    between atoms: C_5  and  C_6 
REMARK    3  A    between atoms: C_6  and  N_7 
REMARK    4  A    between atoms: N_11  and  C_12 
REMARK    5  A    between atoms: C_14  and  N_15 
REMARK    6  A    between atoms: N_15  and  C_16 
REMARK    7  A    between atoms: C_23  and  N_24 
REMARK    8  A    between atoms: N_24  and  C_25 
ROOT
HETATM    1  C   UNL     1       5.122  -1.840   1.286  1.00  0.00     0.756 A 
HETATM    2  N   UNL     1       4.458  -2.671   0.495  1.00  0.00     0.131 NA
HETATM    3  C   UNL     1       3.627  -3.523   1.084  1.00  0.00     0.758 A 
HETATM    4  N   UNL     1       3.376  -3.507   2.382  1.00  0.00     0.131 NA
HETATM    5  C   UNL     1       4.031  -2.614   3.106  1.00  0.00     0.758 A 
HETATM    6  N   UNL     1       4.916  -1.764   2.593  1.00  0.00     0.131 NA
ENDROOT
BRANCH   1   7
HETATM    7  N   UNL     1       6.077  -1.002   0.699  1.00  0.00    -0.210 N 
HETATM    8  C   UNL     1       6.585   0.089   1.547  1.00  0.00     0.169 C 
HETATM    9  C   UNL     1       5.632   1.306   1.511  1.00  0.00     0.256 C 
HETATM   10  N   UNL     1       5.407   1.728   0.044  1.00  0.00    -0.060 N 
HETATM   11  H   UNL     1       6.342   1.900  -0.343  1.00  0.00     0.280 HD
HETATM   12  C   UNL     1       4.821   0.561  -0.762  1.00  0.00     0.256 C 
HETATM   13  C   UNL     1       5.799  -0.636  -0.698  1.00  0.00     0.169 C 
BRANCH  10  14
HETATM   14  C   UNL     1       4.634   3.033  -0.120  1.00  0.00     0.337 C 
BRANCH  14  15
HETATM   15  C   UNL     1       3.207   3.078   0.449  1.00  0.00     0.248 C 
HETATM   16  N   UNL     1       2.564   4.270   0.160  1.00  0.00    -0.325 N 
HETATM   17  H   UNL     1       3.137   5.001  -0.249  1.00  0.00     0.169 HD
HETATM   18  O   UNL     1       2.783   2.145   1.115  1.00  0.00    -0.271 OA
BRANCH  16  19
HETATM   19  C   UNL     1       1.282   4.731   0.564  1.00  0.00     0.042 A 
HETATM   20  C   UNL     1       0.185   3.964   0.998  1.00  0.00    -0.035 A 
HETATM   21  C   UNL     1       0.106   2.463   0.999  1.00  0.00     0.050 C 
HETATM   22  C   UNL     1      -0.979   4.632   1.448  1.00  0.00     0.011 A 
HETATM   23  C   UNL     1      -1.089   6.020   1.411  1.00  0.00     0.024 A 
HETATM   24  C   UNL     1      -0.034   6.765   0.917  1.00  0.00     0.036 A 
HETATM   25  C   UNL     1       1.135   6.132   0.495  1.00  0.00     0.053 A 
HETATM   26 CL   UNL     1      -0.153   8.479   0.834  1.00  0.00    -0.084 Cl
ENDBRANCH  16  19
ENDBRANCH  14  15
ENDBRANCH  10  14
ENDBRANCH   1   7
BRANCH   3  27
HETATM   27  N   UNL     1       2.974  -4.417   0.239  1.00  0.00    -0.187 N 
HETATM   28  H   UNL     1       3.252  -4.264  -0.719  1.00  0.00     0.184 HD
BRANCH  27  29
HETATM   29  C   UNL     1       2.393  -5.672   0.481  1.00  0.00     0.049 A 
HETATM   30  C   UNL     1       1.590  -6.243  -0.520  1.00  0.00     0.030 A 
HETATM   31  C   UNL     1       0.957  -7.474  -0.328  1.00  0.00     0.002 A 
HETATM   32  C   UNL     1       1.111  -8.155   0.876  1.00  0.00     0.000 A 
HETATM   33  C   UNL     1       1.886  -7.596   1.888  1.00  0.00     0.002 A 
HETATM   34  C   UNL     1       2.509  -6.359   1.695  1.00  0.00     0.030 A 
ENDBRANCH  27  29
ENDBRANCH   3  27
BRANCH   5  35
HETATM   35  N   UNL     1       3.684  -2.607   4.454  1.00  0.00    -0.187 N 
HETATM   36  H   UNL     1       2.969  -3.307   4.610  1.00  0.00     0.184 HD
BRANCH  35  37
HETATM   37  C   UNL     1       4.161  -1.954   5.593  1.00  0.00     0.049 A 
HETATM   38  C   UNL     1       5.302  -1.147   5.611  1.00  0.00     0.030 A 
HETATM   39  C   UNL     1       5.708  -0.495   6.781  1.00  0.00     0.002 A 
HETATM   40  C   UNL     1       4.970  -0.633   7.953  1.00  0.00     0.000 A 
HETATM   41  C   UNL     1       3.826  -1.423   7.956  1.00  0.00     0.002 A 
HETATM   42  C   UNL     1       3.426  -2.072   6.785  1.00  0.00     0.030 A 
ENDBRANCH  35  37
ENDBRANCH   5  35
TORSDOF 8
