REMARK  9 active torsions:
REMARK  status: ('A' for Active; 'I' for Inactive)
REMARK       I    between atoms: C_2  and  N_3 
REMARK    1  A    between atoms: N_3  and  C_4 
REMARK    2  A    between atoms: C_4  and  C_5 
REMARK    3  A    between atoms: C_5  and  N_6 
REMARK       I    between atoms: N_6  and  C_7 
REMARK    4  A    between atoms: C_7  and  C_8 
REMARK    5  A    between atoms: C_8  and  C_9 
REMARK    6  A    between atoms: C_13  and  C_14 
REMARK    7  A    between atoms: C_14  and  O_15 
REMARK    8  A    between atoms: C_17  and  O_18 
REMARK    9  A    between atoms: C_25  and  C_26 
ROOT
HETATM    1  C   UNL     1       0.596   0.019  -1.689  1.00  0.00     0.056 C 
HETATM    2  C   UNL     1       0.997  -1.514  -1.497  1.00  0.00    -0.030 C 
HETATM    3  C   UNL     1      -0.256  -2.417  -1.754  1.00  0.00     0.016 C 
HETATM    4  C   UNL     1       1.507  -1.850  -0.030  1.00  0.00     0.012 C 
HETATM    5  C   UNL     1       3.025  -1.539   0.319  1.00  0.00     0.008 C 
HETATM    6  C   UNL     1       3.465  -2.601   1.377  1.00  0.00     0.020 C 
HETATM    7  C   UNL     1       3.948  -1.746  -0.925  1.00  0.00     0.128 C 
HETATM    8  C   UNL     1       3.293  -2.605  -2.002  1.00  0.00     0.033 C 
HETATM    9  C   UNL     1       2.059  -1.909  -2.570  1.00  0.00     0.013 C 
HETATM   10  C   UNL     1       0.490  -1.417   1.060  1.00  0.00     0.054 C 
HETATM   11  C   UNL     1      -0.089  -0.084   0.765  1.00  0.00     0.010 A 
HETATM   12  C   UNL     1      -0.093   0.559  -0.453  1.00  0.00     0.054 A 
HETATM   13  N   UNL     1      -0.713   1.802  -0.444  1.00  0.00    -0.244 NA
HETATM   14  C   UNL     1      -1.070   2.127   0.790  1.00  0.00     0.108 A 
HETATM   15  S   UNL     1      -0.851   0.865   1.949  1.00  0.00    -0.072 SA
ENDROOT
BRANCH   1  16
HETATM   16  C   UNL     1      -0.227   0.242  -2.972  1.00  0.00     0.114 C 
BRANCH  16  17
HETATM   17  C   UNL     1      -0.078   1.619  -3.591  1.00  0.00     0.218 C 
HETATM   18  N   UNL     1      -0.920   2.558  -3.059  1.00  0.00    -0.359 N 
HETATM   19  H   UNL     1      -1.195   2.410  -2.086  1.00  0.00     0.162 HD
HETATM   20  O   UNL     1       0.668   1.831  -4.543  1.00  0.00    -0.274 OA
BRANCH  18  21
HETATM   21  C   UNL     1      -1.111   3.867  -3.642  1.00  0.00     0.142 C 
BRANCH  21  22
HETATM   22  C   UNL     1      -0.154   4.932  -3.104  1.00  0.00     0.142 C 
BRANCH  22  23
HETATM   23  N   UNL     1      -0.376   6.227  -3.732  1.00  0.00    -0.360 N 
HETATM   24  C   UNL     1      -1.498   6.976  -3.465  1.00  0.00     0.213 C 
HETATM   25  C   UNL     1      -1.619   8.235  -4.281  1.00  0.00     0.117 C 
HETATM   26  O   UNL     1      -2.351   6.656  -2.643  1.00  0.00    -0.274 OA
HETATM   27  H   UNL     1       0.235   6.492  -4.493  1.00  0.00     0.162 HD
ENDBRANCH  22  23
ENDBRANCH  21  22
ENDBRANCH  18  21
ENDBRANCH  16  17
ENDBRANCH   1  16
BRANCH   5  28
HETATM   28  C   UNL     1       3.283  -0.166   0.993  1.00  0.00     0.176 C 
BRANCH  28  29
HETATM   29  O   UNL     1       2.983   0.932   0.154  1.00  0.00    -0.400 OA
HETATM   30  H   UNL     1       3.519   0.789  -0.657  1.00  0.00     0.209 HD
ENDBRANCH  28  29
ENDBRANCH   5  28
BRANCH  14  31
HETATM   31  C   UNL     1      -1.633   3.430   1.189  1.00  0.00    -0.000 A 
HETATM   32  C   UNL     1      -2.333   4.202   0.249  1.00  0.00     0.014 A 
HETATM   33  C   UNL     1      -2.840   5.461   0.582  1.00  0.00     0.001 A 
HETATM   34  C   UNL     1      -2.660   5.970   1.865  1.00  0.00     0.000 A 
HETATM   35  C   UNL     1      -1.970   5.223   2.814  1.00  0.00     0.001 A 
HETATM   36  C   UNL     1      -1.457   3.966   2.477  1.00  0.00     0.014 A 
ENDBRANCH  14  31
BRANCH   7  37
HETATM   37  O   UNL     1       4.323  -0.494  -1.512  1.00  0.00    -0.395 OA
HETATM   38  H   UNL     1       4.918  -0.689  -2.260  1.00  0.00     0.210 HD
ENDBRANCH   7  37
TORSDOF 9
