REMARK  3 active torsions:
REMARK  status: ('A' for Active; 'I' for Inactive)
REMARK    1  A    between atoms: C_9  and  C_10 
REMARK    2  A    between atoms: C_16  and  C_17 
REMARK       I    between atoms: C_17  and  N_18 
REMARK    3  A    between atoms: N_18  and  C_19 
ROOT
HETATM    1  C   UNL     1       1.008   0.079  -0.501  1.00  0.00     0.070 C 
HETATM    2  C   UNL     1       2.398   0.027   0.083  1.00  0.00     0.037 C 
HETATM    3  N   UNL     1       2.984   1.262   0.348  1.00  0.00    -0.191 N 
HETATM    4  C   UNL     1       4.287   1.401   0.669  1.00  0.00     0.735 A 
HETATM    5  N   UNL     1       5.051   0.285   0.862  1.00  0.00    -0.092 N 
HETATM    6  N   UNL     1       6.326   0.630   1.099  1.00  0.00     0.012 NA
HETATM    7  N   UNL     1       6.317   1.960   1.093  1.00  0.00     0.033 NA
HETATM    8  N   UNL     1       5.053   2.453   0.825  1.00  0.00     0.030 NA
HETATM    9  C   UNL     1       4.559  -1.087   0.768  1.00  0.00     0.199 C 
HETATM   10  C   UNL     1       3.107  -1.110   0.295  1.00  0.00     0.062 C 
HETATM   11  H   UNL     1       2.455   2.097   0.104  1.00  0.00     0.184 HD
ENDROOT
BRANCH  10  12
HETATM   12  C   UNL     1       2.603  -2.478  -0.005  1.00  0.00     0.256 C 
HETATM   13  N   UNL     1       1.427  -2.780   0.643  1.00  0.00    -0.323 N 
HETATM   14  H   UNL     1       1.029  -2.067   1.240  1.00  0.00     0.169 HD
HETATM   15  O   UNL     1       3.282  -3.203  -0.719  1.00  0.00    -0.267 OA
BRANCH  13  16
HETATM   16  C   UNL     1       0.703  -3.990   0.580  1.00  0.00     0.035 A 
HETATM   17  C   UNL     1       1.129  -5.119  -0.122  1.00  0.00     0.029 A 
HETATM   18  C   UNL     1       0.349  -6.280  -0.136  1.00  0.00     0.002 A 
HETATM   19  C   UNL     1      -0.865  -6.319   0.544  1.00  0.00     0.000 A 
HETATM   20  C   UNL     1      -1.300  -5.199   1.246  1.00  0.00     0.002 A 
HETATM   21  C   UNL     1      -0.517  -4.041   1.267  1.00  0.00     0.029 A 
ENDBRANCH  13  16
ENDBRANCH  10  12
BRANCH   9  22
HETATM   22  C   UNL     1       4.742  -1.807   2.092  1.00  0.00    -0.011 A 
HETATM   23  C   UNL     1       5.394  -3.038   2.129  1.00  0.00     0.125 A 
HETATM   24  N   UNL     1       5.592  -3.759   3.255  1.00  0.00    -0.272 NA
HETATM   25  C   UNL     1       5.121  -3.236   4.406  1.00  0.00     0.116 A 
HETATM   26  C   UNL     1       4.450  -2.028   4.482  1.00  0.00     0.020 A 
HETATM   27  C   UNL     1       4.254  -1.307   3.307  1.00  0.00     0.012 A 
ENDBRANCH   9  22
TORSDOF 3
