REMARK  8 active torsions:
REMARK  status: ('A' for Active; 'I' for Inactive)
REMARK    1  A    between atoms: C_6  and  N_7 
REMARK       I    between atoms: N_7  and  C_8 
REMARK    2  A    between atoms: C_8  and  C_9 
REMARK    3  A    between atoms: C_10  and  N_11 
REMARK       I    between atoms: N_11  and  C_12 
REMARK    4  A    between atoms: C_12  and  C_13 
REMARK    5  A    between atoms: C_13  and  N_14 
REMARK    6  A    between atoms: N_14  and  C_17 
REMARK    7  A    between atoms: C_17  and  C_18 
REMARK    8  A    between atoms: C_30  and  C_31 
ROOT
HETATM    1  C   UNL     1       7.330  -2.785  -0.399  1.00  0.00     0.073 A 
HETATM    2  C   UNL     1       7.923  -4.032  -0.462  1.00  0.00     0.093 A 
HETATM    3  S   UNL     1       6.807  -5.309  -0.285  1.00  0.00    -0.075 SA
HETATM    4  C   UNL     1       5.507  -4.234  -0.133  1.00  0.00    -0.008 A 
HETATM    5  C   UNL     1       5.903  -2.914  -0.171  1.00  0.00    -0.026 A 
HETATM    6  C   UNL     1       4.923  -1.793   0.029  1.00  0.00     0.041 C 
HETATM    7  C   UNL     1       3.534  -2.284   0.482  1.00  0.00     0.010 C 
HETATM    8  C   UNL     1       3.048  -3.630  -0.132  1.00  0.00    -0.002 C 
HETATM    9  C   UNL     1       4.117  -4.726   0.115  1.00  0.00     0.052 C 
ENDROOT
BRANCH   2  10
HETATM   10  N   UNL     1       9.199  -4.528  -0.608  1.00  0.00    -0.319 N 
HETATM   11  C   UNL     1      10.284  -3.808  -1.039  1.00  0.00     0.248 C 
HETATM   12  O   UNL     1      10.289  -2.700  -1.567  1.00  0.00    -0.271 OA
HETATM   13  H   UNL     1       9.262  -5.533  -0.471  1.00  0.00     0.169 HD
BRANCH  11  14
HETATM   14  C   UNL     1      11.616  -4.529  -0.865  1.00  0.00     0.335 C 
BRANCH  14  15
HETATM   15  N   UNL     1      12.768  -3.561  -0.901  1.00  0.00    -0.063 N 
HETATM   16  H   UNL     1      13.624  -4.024  -1.227  1.00  0.00     0.278 HD
HETATM   17  H   UNL     1      12.532  -2.846  -1.612  1.00  0.00     0.278 HD
BRANCH  15  18
HETATM   18  C   UNL     1      13.037  -2.831   0.374  1.00  0.00     0.272 C 
BRANCH  18  19
HETATM   19  C   UNL     1      14.400  -2.214   0.349  1.00  0.00    -0.015 A 
HETATM   20  C   UNL     1      14.583  -0.895  -0.051  1.00  0.00     0.125 A 
HETATM   21  N   UNL     1      15.792  -0.309  -0.167  1.00  0.00    -0.273 NA
HETATM   22  C   UNL     1      16.877  -1.049   0.149  1.00  0.00     0.116 A 
HETATM   23  C   UNL     1      16.804  -2.366   0.564  1.00  0.00     0.020 A 
HETATM   24  C   UNL     1      15.548  -2.958   0.661  1.00  0.00     0.012 A 
ENDBRANCH  18  19
ENDBRANCH  15  18
ENDBRANCH  14  15
ENDBRANCH  11  14
ENDBRANCH   2  10
BRANCH   1  25
HETATM   25  C   UNL     1       8.039  -1.508  -0.459  1.00  0.00     0.259 C 
HETATM   26  N   UNL     1       7.880  -0.890  -1.687  1.00  0.00    -0.322 N 
HETATM   27  H   UNL     1       7.642  -1.527  -2.436  1.00  0.00     0.169 HD
HETATM   28  O   UNL     1       8.735  -1.133   0.477  1.00  0.00    -0.267 OA
BRANCH  26  29
HETATM   29  C   UNL     1       8.542   0.295  -2.072  1.00  0.00     0.041 A 
HETATM   30  C   UNL     1       8.570   1.469  -1.303  1.00  0.00    -0.035 A 
HETATM   31  C   UNL     1       9.309   2.572  -1.777  1.00  0.00     0.015 A 
HETATM   32  C   UNL     1       7.805   1.644  -0.021  1.00  0.00     0.050 C 
HETATM   33  C   UNL     1       9.963   2.539  -3.015  1.00  0.00    -0.061 A 
HETATM   34  C   UNL     1      10.750   3.719  -3.505  1.00  0.00     0.048 C 
HETATM   35  C   UNL     1       9.878   1.384  -3.792  1.00  0.00     0.009 A 
HETATM   36  C   UNL     1       9.160   0.279  -3.331  1.00  0.00     0.030 A 
ENDBRANCH  26  29
ENDBRANCH   1  25
BRANCH   8  37
HETATM   37  C   UNL     1       2.448  -3.549  -1.591  1.00  0.00    -0.047 C 
HETATM   38  C   UNL     1       3.372  -2.883  -2.622  1.00  0.00     0.015 C 
HETATM   39  C   UNL     1       2.093  -4.956  -2.125  1.00  0.00     0.015 C 
HETATM   40  C   UNL     1       1.127  -2.743  -1.551  1.00  0.00     0.015 C 
ENDBRANCH   8  37
TORSDOF 8
