REMARK  9 active torsions:
REMARK  status: ('A' for Active; 'I' for Inactive)
REMARK    1  A    between atoms: C_2  and  O_3 
REMARK    2  A    between atoms: O_3  and  C_4 
REMARK    3  A    between atoms: C_7  and  N_8 
REMARK       I    between atoms: N_8  and  C_9 
REMARK    4  A    between atoms: C_9  and  C_10 
REMARK    5  A    between atoms: C_10  and  S_11 
REMARK    6  A    between atoms: S_11  and  C_12 
REMARK    7  A    between atoms: C_16  and  C_17 
REMARK       I    between atoms: C_17  and  N_18 
REMARK    8  A    between atoms: N_18  and  C_19 
REMARK    9  A    between atoms: C_27  and  C_28 
ROOT
HETATM    1  C   UNL     1       6.014  -3.710  -1.491  1.00  0.00     0.087 C 
HETATM    2  N   UNL     1       6.730  -4.857  -1.200  1.00  0.00    -0.353 N 
HETATM    3  C   UNL     1       6.200  -6.132  -1.145  1.00  0.00     0.019 C 
HETATM    4  C   UNL     1       7.203  -7.253  -1.016  1.00  0.00     0.069 C 
HETATM    5  C   UNL     1       4.860  -6.299  -1.204  1.00  0.00     0.046 C 
HETATM    6  C   UNL     1       3.931  -5.087  -1.197  1.00  0.00     0.104 C 
HETATM    7  C   UNL     1       4.662  -3.753  -1.461  1.00  0.00     0.055 C 
HETATM    8  C   UNL     1       3.806  -2.497  -1.504  1.00  0.00     0.019 C 
HETATM    9  N   UNL     1       3.097  -1.456  -1.539  1.00  0.00    -0.096 N 
HETATM   10  H   UNL     1       7.742  -4.785  -1.343  1.00  0.00     0.166 HD
ENDROOT
BRANCH   1  11
HETATM   11  S   UNL     1       6.887  -2.232  -1.844  1.00  0.00    -0.102 SA
BRANCH  11  12
HETATM   12  C   UNL     1       7.401  -2.520  -3.576  1.00  0.00     0.184 C 
BRANCH  12  13
HETATM   13  C   UNL     1       7.941  -3.930  -3.800  1.00  0.00     0.231 C 
HETATM   14  N   UNL     1       7.152  -4.675  -4.669  1.00  0.00    -0.327 N 
HETATM   15  H   UNL     1       6.317  -4.229  -5.028  1.00  0.00     0.169 HD
HETATM   16  O   UNL     1       8.924  -4.340  -3.185  1.00  0.00    -0.272 OA
BRANCH  14  17
HETATM   17  C   UNL     1       7.257  -6.055  -4.945  1.00  0.00     0.034 A 
HETATM   18  C   UNL     1       8.349  -6.846  -4.591  1.00  0.00     0.032 A 
HETATM   19  C   UNL     1       8.316  -8.232  -4.803  1.00  0.00     0.039 A 
HETATM   20  C   UNL     1       7.188  -8.839  -5.350  1.00  0.00     0.068 A 
HETATM   21  C   UNL     1       6.126  -8.046  -5.775  1.00  0.00     0.039 A 
HETATM   22  C   UNL     1       6.167  -6.660  -5.583  1.00  0.00     0.032 A 
BRANCH  20  23
HETATM   23  O   UNL     1       7.229 -10.204  -5.451  1.00  0.00    -0.352 OA
BRANCH  23  24
HETATM   24  C   UNL     1       5.962 -10.852  -5.298  1.00  0.00     0.171 C 
HETATM   25  C   UNL     1       6.211 -12.326  -5.028  1.00  0.00     0.034 C 
ENDBRANCH  23  24
ENDBRANCH  20  23
ENDBRANCH  14  17
ENDBRANCH  12  13
ENDBRANCH  11  12
ENDBRANCH   1  11
BRANCH   6  26
HETATM   26  C   UNL     1       2.701  -5.245  -2.088  1.00  0.00    -0.042 A 
HETATM   27  C   UNL     1       1.424  -4.990  -1.567  1.00  0.00     0.027 A 
HETATM   28  C   UNL     1       0.321  -5.146  -2.391  1.00  0.00     0.116 A 
HETATM   29  N   UNL     1       0.401  -5.536  -3.679  1.00  0.00    -0.273 NA
HETATM   30  C   UNL     1       1.636  -5.771  -4.169  1.00  0.00     0.116 A 
HETATM   31  C   UNL     1       2.800  -5.630  -3.429  1.00  0.00     0.027 A 
ENDBRANCH   6  26
BRANCH   5  32
HETATM   32  C   UNL     1       4.355  -7.676  -1.471  1.00  0.00     0.255 C 
HETATM   33  N   UNL     1       3.331  -8.099  -0.656  1.00  0.00    -0.323 N 
HETATM   34  H   UNL     1       2.913  -7.429  -0.027  1.00  0.00     0.169 HD
HETATM   35  O   UNL     1       4.834  -8.305  -2.410  1.00  0.00    -0.268 OA
BRANCH  33  36
HETATM   36  C   UNL     1       2.735  -9.382  -0.696  1.00  0.00     0.035 A 
HETATM   37  C   UNL     1       3.306 -10.478  -1.356  1.00  0.00     0.031 A 
HETATM   38  C   UNL     1       2.670 -11.723  -1.361  1.00  0.00     0.026 A 
HETATM   39  C   UNL     1       1.453 -11.879  -0.707  1.00  0.00     0.034 A 
HETATM   40 CL   UNL     1       0.664 -13.406  -0.722  1.00  0.00    -0.084 Cl
HETATM   41  C   UNL     1       0.876 -10.802  -0.038  1.00  0.00     0.026 A 
HETATM   42  C   UNL     1       1.521  -9.560  -0.024  1.00  0.00     0.031 A 
ENDBRANCH  33  36
ENDBRANCH   5  32
TORSDOF 9
