REMARK  6 active torsions:
REMARK  status: ('A' for Active; 'I' for Inactive)
REMARK    1  A    between atoms: O_2  and  C_3 
REMARK    2  A    between atoms: C_4  and  C_5 
REMARK    3  A    between atoms: N_7  and  C_8 
REMARK    4  A    between atoms: C_15  and  C_16 
REMARK       I    between atoms: C_16  and  N_17 
REMARK    5  A    between atoms: N_17  and  N_18 
REMARK       I    between atoms: N_18  and  C_19 
REMARK    6  A    between atoms: C_19  and  C_20 
ROOT
HETATM    1  C   UNL     1       2.063   2.567   0.011  1.00  0.00     0.107 A 
HETATM    2  N   UNL     1       1.470   1.978   1.060  1.00  0.00    -0.166 NA
HETATM    3  N   UNL     1       0.965   2.979   1.808  1.00  0.00    -0.244 N 
HETATM    4  C   UNL     1       1.319   4.207   1.299  1.00  0.00     0.138 A 
HETATM    5  C   UNL     1       2.025   3.990   0.127  1.00  0.00     0.082 A 
ENDROOT
BRANCH   5   6
HETATM    6  C   UNL     1       2.576   4.993  -0.775  1.00  0.00     0.274 C 
HETATM    7  N   UNL     1       2.393   6.306  -0.382  1.00  0.00    -0.263 N 
HETATM    8  H   UNL     1       1.989   6.583   0.508  1.00  0.00     0.190 HD
HETATM    9  O   UNL     1       3.182   4.721  -1.809  1.00  0.00    -0.266 OA
BRANCH   7  10
HETATM   10  N   UNL     1       2.994   7.325  -1.131  1.00  0.00    -0.262 N 
HETATM   11  C   UNL     1       3.057   8.593  -0.592  1.00  0.00     0.286 C 
HETATM   12  O   UNL     1       2.545   8.854   0.497  1.00  0.00    -0.264 OA
HETATM   13  H   UNL     1       3.458   7.052  -1.993  1.00  0.00     0.190 HD
BRANCH  11  14
HETATM   14  C   UNL     1       3.760   9.578  -1.382  1.00  0.00     0.102 A 
HETATM   15  N   UNL     1       3.875  10.887  -0.959  1.00  0.00    -0.361 N 
HETATM   16  H   UNL     1       3.484  11.233  -0.090  1.00  0.00     0.165 HD
HETATM   17  C   UNL     1       4.577  11.623  -1.873  1.00  0.00     0.088 A 
HETATM   18  C   UNL     1       4.929  10.787  -2.906  1.00  0.00     0.019 A 
HETATM   19  C   UNL     1       4.416   9.501  -2.601  1.00  0.00     0.036 A 
ENDBRANCH  11  14
ENDBRANCH   7  10
ENDBRANCH   5   6
BRANCH   1  20
HETATM   20  C   UNL     1       2.661   1.744  -1.040  1.00  0.00     0.029 A 
HETATM   21  C   UNL     1       1.889   0.851  -1.802  1.00  0.00     0.080 A 
HETATM   22  C   UNL     1       2.476   0.086  -2.816  1.00  0.00     0.037 A 
HETATM   23  C   UNL     1       3.847   0.177  -3.052  1.00  0.00     0.003 A 
HETATM   24  C   UNL     1       4.628   1.038  -2.285  1.00  0.00     0.001 A 
HETATM   25  C   UNL     1       4.040   1.817  -1.284  1.00  0.00     0.017 A 
BRANCH  21  26
HETATM   26  O   UNL     1       0.530   0.770  -1.625  1.00  0.00    -0.355 OA
HETATM   27  C   UNL     1       0.199  -0.421  -0.908  1.00  0.00     0.210 C 
ENDBRANCH  21  26
ENDBRANCH   1  20
BRANCH   3  28
HETATM   28  C   UNL     1       0.176   2.701   2.961  1.00  0.00     0.058 A 
HETATM   29  C   UNL     1      -0.087   1.366   3.309  1.00  0.00     0.031 A 
HETATM   30  C   UNL     1      -0.872   1.069   4.424  1.00  0.00     0.002 A 
HETATM   31  C   UNL     1      -1.399   2.098   5.201  1.00  0.00     0.000 A 
HETATM   32  C   UNL     1      -1.141   3.426   4.865  1.00  0.00     0.002 A 
HETATM   33  C   UNL     1      -0.357   3.732   3.749  1.00  0.00     0.031 A 
ENDBRANCH   3  28
TORSDOF 6
