REMARK  4 active torsions:
REMARK  status: ('A' for Active; 'I' for Inactive)
REMARK    1  A    between atoms: O_2  and  C_3 
REMARK    2  A    between atoms: C_9  and  C_13 
REMARK    3  A    between atoms: C_19  and  C_24 
REMARK    4  A    between atoms: C_28  and  N_29 
ROOT
HETATM    1  C   UNL     1       6.517   3.424  -3.734  1.00  0.00     0.112 A 
HETATM    2  N   UNL     1       6.725   3.241  -2.445  1.00  0.00    -0.230 NA
HETATM    3  C   UNL     1       8.094   3.218  -2.282  1.00  0.00     0.124 A 
HETATM    4  C   UNL     1       8.888   3.051  -1.139  1.00  0.00     0.148 A 
HETATM    5  F   UNL     1       8.336   2.877   0.071  1.00  0.00    -0.203 F 
HETATM    6  C   UNL     1      10.284   3.065  -1.252  1.00  0.00     0.058 A 
HETATM    7  C   UNL     1      10.924   3.242  -2.493  1.00  0.00    -0.002 A 
HETATM    8  C   UNL     1      10.124   3.417  -3.645  1.00  0.00     0.046 A 
HETATM    9  C   UNL     1       8.732   3.395  -3.503  1.00  0.00     0.066 A 
HETATM   10  N   UNL     1       7.712   3.522  -4.408  1.00  0.00    -0.342 N 
HETATM   11  H   UNL     1       7.813   3.658  -5.406  1.00  0.00     0.167 HD
ENDROOT
BRANCH   1  12
HETATM   12  C   UNL     1       5.171   3.486  -4.405  1.00  0.00     0.084 C 
HETATM   13  C   UNL     1       5.115   4.490  -5.556  1.00  0.00     0.188 C 
HETATM   14  O   UNL     1       5.945   4.131  -6.670  1.00  0.00    -0.350 OA
HETATM   15  C   UNL     1       5.842   2.826  -7.072  1.00  0.00     0.075 A 
HETATM   16  C   UNL     1       6.384   2.527  -8.319  1.00  0.00     0.040 A 
HETATM   17  C   UNL     1       5.301   1.812  -6.277  1.00  0.00    -0.021 A 
HETATM   18  C   UNL     1       6.360   1.214  -8.792  1.00  0.00     0.039 A 
HETATM   19  C   UNL     1       5.797   0.193  -8.024  1.00  0.00     0.068 A 
HETATM   20  C   UNL     1       5.269   0.495  -6.768  1.00  0.00     0.046 A 
HETATM   21  C   UNL     1       4.734   2.113  -4.916  1.00  0.00     0.056 C 
BRANCH  19  22
HETATM   22  O   UNL     1       5.833  -1.044  -8.606  1.00  0.00    -0.356 OA
HETATM   23  C   UNL     1       5.217  -2.110  -7.893  1.00  0.00     0.210 C 
ENDBRANCH  19  22
ENDBRANCH   1  12
BRANCH   7  24
HETATM   24  C   UNL     1      12.398   3.258  -2.612  1.00  0.00     0.072 A 
HETATM   25  C   UNL     1      13.224   2.475  -1.830  1.00  0.00     0.052 A 
HETATM   26  C   UNL     1      14.572   2.600  -2.061  1.00  0.00     0.122 A 
HETATM   27  N   UNL     1      15.093   3.425  -2.985  1.00  0.00    -0.231 NA
HETATM   28  C   UNL     1      14.220   4.126  -3.710  1.00  0.00     0.199 A 
HETATM   29  N   UNL     1      12.895   4.089  -3.556  1.00  0.00    -0.218 NA
BRANCH  28  30
HETATM   30  N   UNL     1      14.728   4.994  -4.654  1.00  0.00    -0.271 NA
HETATM   31  H   UNL     1      15.673   5.246  -4.402  1.00  0.00     0.127 HD
HETATM   32  H   UNL     1      14.073   5.748  -4.804  1.00  0.00     0.127 HD
ENDBRANCH  28  30
ENDBRANCH   7  24
TORSDOF 4
