REMARK  6 active torsions:
REMARK  status: ('A' for Active; 'I' for Inactive)
REMARK    1  A    between atoms: C_6  and  O_7 
REMARK    2  A    between atoms: C_12  and  C_13 
REMARK    3  A    between atoms: C_13  and  C_14 
REMARK       I    between atoms: C_14  and  N_15 
REMARK    4  A    between atoms: N_15  and  C_16 
REMARK    5  A    between atoms: C_16  and  C_17 
REMARK    6  A    between atoms: C_17  and  C_18 
ROOT
HETATM    1  C   UNL     1       9.192  -0.566  -0.591  1.00  0.00     0.222 C 
HETATM    2  N   UNL     1       8.696  -1.789  -0.185  1.00  0.00    -0.360 N 
HETATM    3  O   UNL     1       9.958  -0.444  -1.545  1.00  0.00    -0.273 OA
HETATM    4  H   UNL     1       8.211  -1.823   0.703  1.00  0.00     0.162 HD
ENDROOT
BRANCH   1   5
HETATM    5  C   UNL     1       8.807   0.626   0.282  1.00  0.00     0.148 C 
BRANCH   5   6
HETATM    6  C   UNL     1       7.354   1.014   0.470  1.00  0.00     0.033 C 
HETATM    7  C   UNL     1       7.161   1.799   1.728  1.00  0.00     0.295 C 
HETATM    8  O   UNL     1       5.977   2.495   1.869  1.00  0.00    -0.274 OA
HETATM    9  O   UNL     1       8.044   1.894   2.574  1.00  0.00    -0.259 OA
HETATM   10  C   UNL     1       4.858   2.155   1.097  1.00  0.00     0.093 A 
HETATM   11  C   UNL     1       3.654   2.754   1.483  1.00  0.00     0.045 A 
HETATM   12  C   UNL     1       4.950   1.245   0.047  1.00  0.00     0.038 A 
HETATM   13  C   UNL     1       2.471   2.418   0.828  1.00  0.00    -0.057 A 
HETATM   14  C   UNL     1       1.166   3.054   1.204  1.00  0.00     0.048 C 
HETATM   15  C   UNL     1       2.516   1.446  -0.176  1.00  0.00     0.044 A 
HETATM   16  C   UNL     1       3.736   0.865  -0.552  1.00  0.00     0.079 A 
HETATM   17  C   UNL     1       6.307   0.796  -0.357  1.00  0.00    -0.034 C 
HETATM   18  C   UNL     1       6.445   0.206  -1.733  1.00  0.00     0.050 C 
BRANCH  16  19
HETATM   19  O   UNL     1       3.711  -0.119  -1.504  1.00  0.00    -0.360 OA
HETATM   20  H   UNL     1       2.795  -0.291  -1.775  1.00  0.00     0.217 HD
ENDBRANCH  16  19
ENDBRANCH   5   6
ENDBRANCH   1   5
BRANCH   2  21
HETATM   21  C   UNL     1       9.318  -3.017  -0.666  1.00  0.00     0.127 C 
BRANCH  21  22
HETATM   22  C   UNL     1       8.452  -4.259  -0.489  1.00  0.00     0.060 C 
BRANCH  22  23
HETATM   23  C   UNL     1       7.503  -4.655  -1.590  1.00  0.00    -0.029 A 
HETATM   24  C   UNL     1       7.102  -3.994  -2.805  1.00  0.00    -0.000 A 
HETATM   25  C   UNL     1       6.190  -4.834  -3.456  1.00  0.00     0.043 A 
HETATM   26  C   UNL     1       7.411  -2.768  -3.435  1.00  0.00     0.038 A 
HETATM   27  C   UNL     1       5.574  -4.513  -4.673  1.00  0.00     0.032 A 
HETATM   28  N   UNL     1       6.053  -5.963  -2.687  1.00  0.00    -0.365 N 
HETATM   29  C   UNL     1       5.889  -3.287  -5.258  1.00  0.00     0.026 A 
HETATM   30  C   UNL     1       6.795  -2.429  -4.646  1.00  0.00     0.035 A 
HETATM   31 CL   UNL     1       7.157  -0.917  -5.389  1.00  0.00    -0.084 Cl
HETATM   32  H   UNL     1       5.463  -6.749  -2.922  1.00  0.00     0.165 HD
HETATM   33  C   UNL     1       6.828  -5.865  -1.569  1.00  0.00     0.096 A 
ENDBRANCH  22  23
ENDBRANCH  21  22
ENDBRANCH   2  21
TORSDOF 6
