REMARK  2 active torsions:
REMARK  status: ('A' for Active; 'I' for Inactive)
REMARK    1  A    between atoms: C_5  and  N_6 
REMARK    2  A    between atoms: C_8  and  C_9 
REMARK       I    between atoms: C_9  and  N_10 
ROOT
HETATM    1  C   UNL     1       9.840   1.876  -1.164  1.00  0.00     0.279 C 
HETATM    2  N   UNL     1       9.524   3.200  -1.554  1.00  0.00    -0.301 N 
HETATM    3  C   UNL     1      10.493   4.265  -1.524  1.00  0.00     0.067 A 
HETATM    4  C   UNL     1      10.250   5.457  -2.221  1.00  0.00     0.079 A 
HETATM    5  C   UNL     1      11.214   6.462  -2.203  1.00  0.00     0.148 A 
HETATM    6  N   UNL     1      12.381   6.379  -1.533  1.00  0.00    -0.271 NA
HETATM    7  C   UNL     1      12.591   5.239  -0.848  1.00  0.00     0.118 A 
HETATM    8  C   UNL     1      11.694   4.179  -0.810  1.00  0.00     0.051 A 
HETATM    9  N   UNL     1       9.078   5.654  -2.952  1.00  0.00    -0.323 N 
HETATM   10  C   UNL     1       8.059   4.753  -2.980  1.00  0.00     0.240 C 
HETATM   11  O   UNL     1       7.040   4.993  -3.627  1.00  0.00    -0.271 OA
HETATM   12  C   UNL     1       8.198   3.521  -2.101  1.00  0.00     0.235 C 
HETATM   13  O   UNL     1      11.001   1.487  -1.015  1.00  0.00    -0.265 OA
HETATM   14  H   UNL     1       8.939   6.497  -3.494  1.00  0.00     0.169 HD
ENDROOT
BRANCH   1  15
HETATM   15  C   UNL     1       8.751   0.886  -0.966  1.00  0.00     0.147 A 
HETATM   16  N   UNL     1       7.467   1.188  -0.732  1.00  0.00    -0.162 NA
HETATM   17  N   UNL     1       6.799   0.000  -0.608  1.00  0.00    -0.238 N 
HETATM   18  C   UNL     1       7.683  -1.069  -0.738  1.00  0.00     0.035 A 
HETATM   19  C   UNL     1       8.929  -0.513  -0.944  1.00  0.00     0.066 A 
HETATM   20  C   UNL     1       7.366  -2.516  -0.679  1.00  0.00     0.070 C 
BRANCH  17  21
HETATM   21  C   UNL     1       5.381   0.041  -0.388  1.00  0.00     0.058 A 
HETATM   22  C   UNL     1       4.743   1.295  -0.330  1.00  0.00     0.032 A 
HETATM   23  C   UNL     1       3.360   1.399  -0.138  1.00  0.00     0.009 A 
HETATM   24  C   UNL     1       2.580   0.252   0.011  1.00  0.00    -0.062 A 
HETATM   25  C   UNL     1       1.094   0.343   0.189  1.00  0.00     0.048 C 
HETATM   26  C   UNL     1       3.205  -0.996  -0.042  1.00  0.00     0.009 A 
HETATM   27  C   UNL     1       4.590  -1.102  -0.236  1.00  0.00     0.032 A 
ENDBRANCH  17  21
ENDBRANCH   1  15
TORSDOF 2
