REMARK  6 active torsions:
REMARK  status: ('A' for Active; 'I' for Inactive)
REMARK    1  A    between atoms: C_9  and  C_10 
REMARK    2  A    between atoms: C_12  and  N_13 
REMARK    3  A    between atoms: N_13  and  C_14 
REMARK    4  A    between atoms: C_14  and  C_15 
REMARK    5  A    between atoms: C_15  and  C_16 
REMARK    6  A    between atoms: C_16  and  N_17 
ROOT
HETATM    1  C   UNL     1      -3.640  -1.523   0.333  1.00  0.00     0.071 A 
HETATM    2  N   UNL     1      -4.765  -0.817   0.624  1.00  0.00    -0.218 NA
HETATM    3  C   UNL     1      -5.884  -1.538   0.823  1.00  0.00     0.202 A 
HETATM    4  N   UNL     1      -5.953  -2.866   0.778  1.00  0.00    -0.231 NA
HETATM    5  C   UNL     1      -4.817  -3.526   0.486  1.00  0.00     0.122 A 
HETATM    6  C   UNL     1      -3.621  -2.899   0.245  1.00  0.00     0.052 A 
ENDROOT
BRANCH   1   7
HETATM    7  C   UNL     1      -2.444  -0.705   0.107  1.00  0.00    -0.006 A 
HETATM    8  C   UNL     1      -1.752  -0.750  -1.111  1.00  0.00     0.014 A 
HETATM    9  C   UNL     1      -0.644   0.072  -1.334  1.00  0.00     0.013 A 
HETATM   10  C   UNL     1      -0.202   0.964  -0.348  1.00  0.00    -0.026 A 
HETATM   11  C   UNL     1       0.903   1.802  -0.566  1.00  0.00     0.012 A 
HETATM   12  C   UNL     1      -0.877   1.014   0.892  1.00  0.00    -0.025 A 
HETATM   13  C   UNL     1       1.333   2.684   0.426  1.00  0.00     0.001 A 
HETATM   14  C   UNL     1       0.671   2.733   1.649  1.00  0.00     0.001 A 
HETATM   15  C   UNL     1      -0.426   1.901   1.883  1.00  0.00     0.012 A 
HETATM   16  C   UNL     1      -1.983   0.174   1.104  1.00  0.00     0.026 A 
ENDBRANCH   1   7
BRANCH   3  17
HETATM   17  N   UNL     1      -7.066  -0.868   1.127  1.00  0.00    -0.261 NA
HETATM   18  H   UNL     1      -7.753  -1.626   1.164  1.00  0.00     0.130 HD
BRANCH  17  19
HETATM   19  C   UNL     1      -7.427   0.160   0.165  1.00  0.00     0.097 C 
BRANCH  19  20
HETATM   20  C   UNL     1      -7.556   1.515   0.862  1.00  0.00     0.042 C 
BRANCH  20  21
HETATM   21  C   UNL     1      -6.387   1.911   1.756  1.00  0.00     0.230 C 
BRANCH  21  22
HETATM   22  N   UNL     1      -5.100   1.861   1.033  1.00  0.00    -0.079 N 
HETATM   23  H   UNL     1      -4.872   0.870   0.805  1.00  0.00     0.274 HD
HETATM   24  H   UNL     1      -5.090   2.388   0.154  1.00  0.00     0.274 HD
HETATM   25  H   UNL     1      -4.322   2.194   1.612  1.00  0.00     0.274 HD
ENDBRANCH  21  22
ENDBRANCH  20  21
ENDBRANCH  19  20
ENDBRANCH  17  19
ENDBRANCH   3  17
TORSDOF 6
