REMARK  9 active torsions:
REMARK  status: ('A' for Active; 'I' for Inactive)
REMARK    1  A    between atoms: C_2  and  N_3 
REMARK    2  A    between atoms: N_3  and  C_4 
REMARK    3  A    between atoms: N_3  and  C_32 
REMARK    4  A    between atoms: C_7  and  C_8 
REMARK       I    between atoms: C_8  and  N_9 
REMARK    5  A    between atoms: N_9  and  C_10 
REMARK    6  A    between atoms: C_10  and  N_11 
REMARK    7  A    between atoms: N_11  and  C_12 
REMARK    8  A    between atoms: C_14  and  C_15 
REMARK    9  A    between atoms: C_24  and  O_25 
ROOT
HETATM    1  N   UNL     1       0.260  -5.572   4.991  1.00  0.00    -0.337 N 
HETATM    2  H   UNL     1       0.251  -6.390   4.387  1.00  0.00     0.168 HD
ENDROOT
BRANCH   1   3
HETATM    3  C   UNL     1      -0.229  -4.433   4.391  1.00  0.00     0.157 C 
HETATM    4  S   UNL     1      -0.361  -4.421   2.726  1.00  0.00    -0.047 SA
BRANCH   3   5
HETATM    5  N   UNL     1      -0.653  -3.447   5.264  1.00  0.00    -0.201 NA
HETATM    6  C   UNL     1      -1.437  -2.361   4.920  1.00  0.00     0.237 C 
HETATM    7  O   UNL     1      -2.614  -2.321   5.271  1.00  0.00    -0.274 OA
HETATM    8  H   UNL     1      -1.111  -3.917   6.038  1.00  0.00     0.139 HD
BRANCH   6   9
HETATM    9  C   UNL     1      -0.802  -1.196   4.243  1.00  0.00     0.026 A 
HETATM   10  C   UNL     1      -1.635  -0.205   3.721  1.00  0.00     0.019 A 
HETATM   11  C   UNL     1      -1.096   0.977   3.196  1.00  0.00     0.030 A 
HETATM   12  C   UNL     1       0.285   1.227   3.192  1.00  0.00     0.030 A 
HETATM   13  C   UNL     1       1.103   0.184   3.669  1.00  0.00     0.030 A 
HETATM   14  C   UNL     1       0.578  -1.006   4.198  1.00  0.00     0.019 A 
BRANCH  12  15
HETATM   15  N   UNL     1       0.841   2.423   2.732  1.00  0.00    -0.382 N 
BRANCH  15  16
HETATM   16  C   UNL     1       1.960   2.998   3.498  1.00  0.00     0.118 C 
HETATM   17  C   UNL     1       3.172   3.185   2.597  1.00  0.00     0.026 C 
ENDBRANCH  15  16
BRANCH  15  18
HETATM   18  C   UNL     1       0.035   3.397   1.977  1.00  0.00     0.118 C 
HETATM   19  C   UNL     1      -0.179   2.938   0.542  1.00  0.00     0.026 C 
ENDBRANCH  15  18
ENDBRANCH  12  15
ENDBRANCH   6   9
ENDBRANCH   3   5
ENDBRANCH   1   3
BRANCH   1  20
HETATM   20  C   UNL     1       0.810  -5.753   6.278  1.00  0.00     0.035 A 
HETATM   21  C   UNL     1       1.400  -4.708   7.002  1.00  0.00     0.046 A 
HETATM   22  C   UNL     1       2.010  -4.927   8.254  1.00  0.00     0.035 A 
HETATM   23  C   UNL     1       1.971  -6.236   8.768  1.00  0.00     0.078 A 
HETATM   24  C   UNL     1       1.391  -7.284   8.054  1.00  0.00     0.040 A 
HETATM   25  C   UNL     1       0.834  -7.047   6.798  1.00  0.00     0.032 A 
BRANCH  22  26
HETATM   26  C   UNL     1       2.727  -3.858   8.987  1.00  0.00     0.112 A 
HETATM   27  S   UNL     1       2.832  -2.241   8.405  1.00  0.00    -0.067 SA
HETATM   28  C   UNL     1       3.874  -1.820   9.704  1.00  0.00     0.035 A 
HETATM   29  C   UNL     1       4.040  -2.932  10.528  1.00  0.00     0.075 A 
HETATM   30  C   UNL     1       4.504  -0.594   9.972  1.00  0.00     0.021 A 
HETATM   31  N   UNL     1       3.369  -4.075  10.123  1.00  0.00    -0.239 NA
HETATM   32  C   UNL     1       4.864  -2.815  11.666  1.00  0.00     0.033 A 
HETATM   33  C   UNL     1       5.504  -1.601  11.939  1.00  0.00     0.002 A 
HETATM   34  C   UNL     1       5.325  -0.506  11.100  1.00  0.00     0.002 A 
ENDBRANCH  22  26
BRANCH  23  35
HETATM   35  O   UNL     1       2.514  -6.580   9.981  1.00  0.00    -0.360 OA
HETATM   36  H   UNL     1       2.938  -5.779  10.360  1.00  0.00     0.217 HD
ENDBRANCH  23  35
ENDBRANCH   1  20
TORSDOF 9
