REMARK  10 active torsions:
REMARK  status: ('A' for Active; 'I' for Inactive)
REMARK    1  A    between atoms: C_2  and  O_3 
REMARK    2  A    between atoms: O_3  and  C_4 
REMARK    3  A    between atoms: C_4  and  C_5 
REMARK    4  A    between atoms: C_6  and  C_7 
REMARK    5  A    between atoms: C_16  and  C_17 
REMARK    6  A    between atoms: C_17  and  C_18 
REMARK       I    between atoms: C_18  and  N_19 
REMARK    7  A    between atoms: N_19  and  C_20 
REMARK    8  A    between atoms: C_20  and  C_21 
REMARK    9  A    between atoms: C_21  and  N_22 
REMARK   10  A    between atoms: C_31  and  C_32 
ROOT
HETATM    1  C   UNL     1       5.390   0.699   0.243  1.00  0.00     0.078 C 
HETATM    2  C   UNL     1       6.815   1.082  -0.037  1.00  0.00     0.167 C 
HETATM    3  N   UNL     1       7.767  -0.036   0.182  1.00  0.00    -0.318 N 
HETATM    4  C   UNL     1       9.059  -0.129   0.175  1.00  0.00     0.011 C 
HETATM    5  C   UNL     1       7.099  -1.418   0.379  1.00  0.00     0.170 C 
HETATM    6  S   UNL     1       8.263  -2.694   0.488  1.00  0.00    -0.086 SA
HETATM    7  C   UNL     1       9.623  -1.503   0.469  1.00  0.00     0.135 C 
HETATM    8  N   UNL     1       5.837  -1.637   0.452  1.00  0.00    -0.219 NA
HETATM    9  C   UNL     1       4.958  -0.564   0.459  1.00  0.00     0.157 C 
ENDROOT
BRANCH   4  10
HETATM   10  C   UNL     1       9.969   1.026  -0.132  1.00  0.00     0.156 C 
BRANCH  10  11
HETATM   11  C   UNL     1      10.108   2.074   0.947  1.00  0.00     0.223 C 
HETATM   12  N   UNL     1      11.105   2.987   0.712  1.00  0.00    -0.359 N 
HETATM   13  H   UNL     1      11.724   2.827  -0.082  1.00  0.00     0.162 HD
HETATM   14  O   UNL     1       9.358   2.135   1.918  1.00  0.00    -0.273 OA
BRANCH  12  15
HETATM   15  C   UNL     1      11.587   3.971   1.684  1.00  0.00     0.150 C 
BRANCH  15  16
HETATM   16  C   UNL     1      10.583   5.075   2.080  1.00  0.00     0.253 C 
BRANCH  16  17
HETATM   17  N   UNL     1       9.544   4.590   3.072  1.00  0.00    -0.077 N 
HETATM   18  H   UNL     1       9.241   3.647   2.761  1.00  0.00     0.279 HD
HETATM   19  C   UNL     1      10.082   4.427   4.470  1.00  0.00     0.269 C 
HETATM   20  C   UNL     1       8.325   5.475   3.081  1.00  0.00     0.269 C 
ENDBRANCH  16  17
ENDBRANCH  15  16
ENDBRANCH  12  15
ENDBRANCH  10  11
ENDBRANCH   4  10
BRANCH   2  21
HETATM   21  C   UNL     1       7.003   1.663  -1.441  1.00  0.00    -0.024 A 
HETATM   22  C   UNL     1       7.270   3.035  -1.667  1.00  0.00    -0.053 A 
HETATM   23  C   UNL     1       7.263   4.090  -0.592  1.00  0.00     0.049 C 
HETATM   24  C   UNL     1       7.476   3.484  -2.983  1.00  0.00     0.008 A 
HETATM   25  C   UNL     1       7.440   2.605  -4.063  1.00  0.00     0.007 A 
HETATM   26  C   UNL     1       7.169   1.255  -3.861  1.00  0.00    -0.061 A 
HETATM   27  C   UNL     1       7.069   0.319  -5.032  1.00  0.00     0.048 C 
HETATM   28  C   UNL     1       6.924   0.798  -2.561  1.00  0.00     0.017 A 
ENDBRANCH   2  21
BRANCH   1  29
HETATM   29  C   UNL     1       4.504   1.866   0.430  1.00  0.00     0.294 C 
HETATM   30  O   UNL     1       4.846   2.805   1.131  1.00  0.00    -0.259 OA
BRANCH  29  31
HETATM   31  O   UNL     1       3.386   1.736  -0.305  1.00  0.00    -0.318 OA
BRANCH  31  32
HETATM   32  C   UNL     1       2.380   2.747  -0.111  1.00  0.00     0.174 C 
HETATM   33  C   UNL     1       2.645   3.942  -1.005  1.00  0.00     0.034 C 
ENDBRANCH  31  32
ENDBRANCH  29  31
ENDBRANCH   1  29
BRANCH   9  34
HETATM   34  C   UNL     1       3.499  -0.899   0.838  1.00  0.00     0.435 C 
HETATM   35  F   UNL     1       3.413  -2.094   1.472  1.00  0.00    -0.165 F 
HETATM   36  F   UNL     1       2.978   0.023   1.685  1.00  0.00    -0.165 F 
HETATM   37  F   UNL     1       2.708  -0.961  -0.257  1.00  0.00    -0.165 F 
ENDBRANCH   9  34
TORSDOF 10
