REMARK  5 active torsions:
REMARK  status: ('A' for Active; 'I' for Inactive)
REMARK    1  A    between atoms: C_3  and  C_4 
REMARK    2  A    between atoms: C_4  and  N_5 
REMARK       I    between atoms: N_5  and  C_6 
REMARK    3  A    between atoms: C_6  and  C_7 
REMARK    4  A    between atoms: C_10  and  N_11 
REMARK       I    between atoms: N_11  and  C_12 
REMARK       I    between atoms: C_12  and  N_13 
REMARK    5  A    between atoms: N_13  and  C_14 
ROOT
HETATM    1  C   UNL     1       1.934   5.574  -0.801  1.00  0.00     0.032 A 
HETATM    2  C   UNL     1       2.481   6.809  -0.435  1.00  0.00     0.019 A 
HETATM    3  C   UNL     1       3.866   7.016  -0.509  1.00  0.00     0.030 A 
HETATM    4  C   UNL     1       4.716   5.996  -0.942  1.00  0.00     0.036 A 
HETATM    5  C   UNL     1       4.160   4.776  -1.344  1.00  0.00     0.030 A 
HETATM    6  C   UNL     1       2.780   4.567  -1.276  1.00  0.00     0.019 A 
ENDROOT
BRANCH   1   7
HETATM    7  C   UNL     1       0.474   5.287  -0.724  1.00  0.00     0.251 C 
HETATM    8  N   UNL     1      -0.256   6.022   0.186  1.00  0.00    -0.353 N 
HETATM    9  H   UNL     1       0.234   6.543   0.899  1.00  0.00     0.163 HD
HETATM   10  O   UNL     1      -0.013   4.405  -1.422  1.00  0.00    -0.268 OA
BRANCH   8  11
HETATM   11  C   UNL     1      -1.637   5.679   0.459  1.00  0.00     0.164 C 
BRANCH  11  12
HETATM   12  C   UNL     1      -2.410   6.858   0.977  1.00  0.00    -0.002 A 
HETATM   13  C   UNL     1      -2.471   8.056   0.249  1.00  0.00     0.012 A 
HETATM   14  C   UNL     1      -3.228   9.134   0.715  1.00  0.00     0.001 A 
HETATM   15  C   UNL     1      -3.940   9.025   1.909  1.00  0.00     0.003 A 
HETATM   16  C   UNL     1      -3.895   7.837   2.637  1.00  0.00     0.043 A 
HETATM   17  C   UNL     1      -3.138   6.768   2.167  1.00  0.00     0.124 A 
HETATM   18  F   UNL     1      -3.118   5.633   2.880  1.00  0.00    -0.205 F 
ENDBRANCH  11  12
ENDBRANCH   8  11
ENDBRANCH   1   7
BRANCH   4  19
HETATM   19  N   UNL     1       6.118   6.118  -1.018  1.00  0.00    -0.309 N 
HETATM   20  C   UNL     1       6.901   7.117  -0.504  1.00  0.00     0.325 C 
HETATM   21  N   UNL     1       8.244   7.031  -0.762  1.00  0.00    -0.306 N 
HETATM   22  O   UNL     1       6.512   8.033   0.217  1.00  0.00    -0.247 OA
HETATM   23  H   UNL     1       8.793   7.663  -0.193  1.00  0.00     0.171 HD
HETATM   24  H   UNL     1       6.617   5.278  -1.270  1.00  0.00     0.170 HD
BRANCH  21  25
HETATM   25  C   UNL     1       8.924   6.316  -1.728  1.00  0.00     0.072 A 
HETATM   26  C   UNL     1       8.503   5.604  -2.873  1.00  0.00     0.169 A 
HETATM   27  N   UNL     1       9.521   5.044  -3.531  1.00  0.00    -0.185 NA
HETATM   28  N   UNL     1      10.601   5.435  -2.836  1.00  0.00    -0.287 N 
HETATM   29  H   UNL     1      11.516   5.136  -3.158  1.00  0.00     0.188 HD
HETATM   30  C   UNL     1      10.296   6.214  -1.757  1.00  0.00     0.140 A 
ENDBRANCH  21  25
ENDBRANCH   4  19
TORSDOF 5
