REMARK  8 active torsions:
REMARK  status: ('A' for Active; 'I' for Inactive)
REMARK    1  A    between atoms: C_5  and  O_6 
REMARK    2  A    between atoms: O_6  and  C_7 
REMARK    3  A    between atoms: C_7  and  C_8 
REMARK    4  A    between atoms: C_12  and  S_13 
REMARK    5  A    between atoms: S_13  and  C_14 
REMARK    6  A    between atoms: C_14  and  C_15 
REMARK       I    between atoms: C_15  and  N_16 
REMARK    7  A    between atoms: N_16  and  C_17 
REMARK    8  A    between atoms: C_20  and  C_21 
REMARK       I    between atoms: C_21  and  N_22 
ROOT
HETATM    1  S   UNL     1      12.528  -1.308  -0.876  1.00  0.00    -0.081 SA
ENDROOT
BRANCH   1   2
HETATM    2  C   UNL     1      10.885  -0.809  -0.925  1.00  0.00     0.185 A 
HETATM    3  N   UNL     1      10.494   0.362  -1.489  1.00  0.00    -0.254 N 
HETATM    4  N   UNL     1       9.156   0.494  -1.440  1.00  0.00    -0.155 NA
HETATM    5  H   UNL     1      11.061   1.087  -1.913  1.00  0.00     0.191 HD
HETATM    6  C   UNL     1       8.793  -0.666  -0.864  1.00  0.00     0.172 A 
HETATM    7  N   UNL     1       9.845  -1.479  -0.507  1.00  0.00    -0.204 NA
BRANCH   6   8
HETATM    8  C   UNL     1       7.370  -1.063  -0.622  1.00  0.00     0.258 C 
BRANCH   8   9
HETATM    9  O   UNL     1       6.748  -1.515  -1.830  1.00  0.00    -0.344 OA
BRANCH   9  10
HETATM   10  C   UNL     1       5.454  -1.947  -1.740  1.00  0.00     0.069 A 
HETATM   11  C   UNL     1       4.848  -2.224  -2.967  1.00  0.00     0.037 A 
HETATM   12  C   UNL     1       3.530  -2.684  -3.025  1.00  0.00     0.009 A 
HETATM   13  C   UNL     1       2.796  -2.869  -1.850  1.00  0.00    -0.062 A 
HETATM   14  C   UNL     1       1.394  -3.399  -1.900  1.00  0.00     0.048 C 
HETATM   15  C   UNL     1       3.411  -2.607  -0.621  1.00  0.00     0.009 A 
HETATM   16  C   UNL     1       4.730  -2.143  -0.565  1.00  0.00     0.037 A 
ENDBRANCH   9  10
ENDBRANCH   8   9
ENDBRANCH   6   8
ENDBRANCH   1   2
BRANCH   1  17
HETATM   17  C   UNL     1      12.509  -2.405   0.575  1.00  0.00     0.185 C 
BRANCH  17  18
HETATM   18  C   UNL     1      11.785  -3.740   0.416  1.00  0.00     0.231 C 
HETATM   19  N   UNL     1      11.429  -4.088  -0.870  1.00  0.00    -0.327 N 
HETATM   20  H   UNL     1      11.585  -3.372  -1.570  1.00  0.00     0.169 HD
HETATM   21  O   UNL     1      11.611  -4.440   1.415  1.00  0.00    -0.272 OA
BRANCH  19  22
HETATM   22  C   UNL     1      10.729  -5.230  -1.302  1.00  0.00     0.034 A 
HETATM   23  C   UNL     1      10.359  -6.286  -0.467  1.00  0.00     0.030 A 
HETATM   24  C   UNL     1       9.645  -7.381  -0.973  1.00  0.00     0.019 A 
HETATM   25  C   UNL     1       9.291  -7.427  -2.325  1.00  0.00     0.032 A 
HETATM   26  C   UNL     1       9.677  -6.382  -3.169  1.00  0.00     0.019 A 
HETATM   27  C   UNL     1      10.387  -5.290  -2.659  1.00  0.00     0.030 A 
BRANCH  25  28
HETATM   28  C   UNL     1       8.530  -8.563  -2.909  1.00  0.00     0.249 C 
HETATM   29  N   UNL     1       7.770  -9.319  -2.061  1.00  0.00    -0.366 N 
HETATM   30  H   UNL     1       7.531  -9.015  -1.128  1.00  0.00     0.159 HD
HETATM   31  H   UNL     1       7.175 -10.014  -2.494  1.00  0.00     0.159 HD
HETATM   32  O   UNL     1       8.551  -8.800  -4.111  1.00  0.00    -0.268 OA
ENDBRANCH  25  28
ENDBRANCH  19  22
ENDBRANCH  17  18
ENDBRANCH   1  17
TORSDOF 8
