REMARK  6 active torsions:
REMARK  status: ('A' for Active; 'I' for Inactive)
REMARK    1  A    between atoms: C_2  and  C_3 
REMARK    2  A    between atoms: C_4  and  N_5 
REMARK       I    between atoms: N_5  and  C_6 
REMARK    3  A    between atoms: C_6  and  C_7 
REMARK    4  A    between atoms: C_10  and  C_11 
REMARK    5  A    between atoms: C_11  and  C_12 
REMARK    6  A    between atoms: C_25  and  C_26 
ROOT
HETATM    1  N   UNL     1       7.860  -0.989  -1.935  1.00  0.00    -0.307 N 
HETATM    2  C   UNL     1       7.789  -0.999  -3.363  1.00  0.00     0.257 C 
HETATM    3  O   UNL     1       7.568   0.073  -3.898  1.00  0.00    -0.267 OA
HETATM    4  H   UNL     1       7.430  -0.188  -1.486  1.00  0.00     0.170 HD
ENDROOT
BRANCH   2   5
HETATM    5  C   UNL     1       7.896  -2.266  -4.124  1.00  0.00     0.032 A 
HETATM    6  C   UNL     1       7.371  -3.460  -3.614  1.00  0.00     0.017 A 
HETATM    7  C   UNL     1       7.491  -4.646  -4.338  1.00  0.00     0.008 A 
HETATM    8  C   UNL     1       8.084  -4.647  -5.605  1.00  0.00    -0.057 A 
HETATM    9  C   UNL     1       8.572  -3.439  -6.127  1.00  0.00     0.008 A 
HETATM   10  C   UNL     1       8.479  -2.252  -5.393  1.00  0.00     0.017 A 
BRANCH   8  11
HETATM   11  C   UNL     1       8.166  -5.920  -6.423  1.00  0.00     0.053 C 
BRANCH  11  12
HETATM   12  C   UNL     1       6.922  -6.269  -7.256  1.00  0.00     0.091 C 
HETATM   13  C   UNL     1       6.486  -5.106  -8.112  1.00  0.00     0.229 C 
HETATM   14  O   UNL     1       7.151  -4.583  -8.992  1.00  0.00    -0.273 OA
HETATM   15  N   UNL     1       5.271  -4.679  -7.687  1.00  0.00    -0.297 N 
HETATM   16  C   UNL     1       4.807  -5.379  -6.623  1.00  0.00     0.225 C 
HETATM   17  H   UNL     1       4.834  -3.838  -8.029  1.00  0.00     0.171 HD
HETATM   18  O   UNL     1       3.842  -5.082  -5.939  1.00  0.00    -0.273 OA
HETATM   19  C   UNL     1       5.670  -6.592  -6.439  1.00  0.00     0.117 C 
ENDBRANCH  11  12
ENDBRANCH   8  11
ENDBRANCH   2   5
BRANCH   1  20
HETATM   20  C   UNL     1       8.522  -1.917  -1.151  1.00  0.00     0.133 A 
HETATM   21  C   UNL     1       8.203  -2.223   0.160  1.00  0.00     0.018 A 
HETATM   22  C   UNL     1       9.113  -3.291   0.512  1.00  0.00     0.097 A 
HETATM   23  N   UNL     1       9.946  -3.540  -0.516  1.00  0.00    -0.172 NA
HETATM   24  N   UNL     1       9.585  -2.700  -1.483  1.00  0.00    -0.261 N 
HETATM   25  H   UNL     1      10.114  -2.721  -2.348  1.00  0.00     0.191 HD
BRANCH  21  26
HETATM   26  C   UNL     1       7.077  -1.624   0.939  1.00  0.00     0.040 C 
HETATM   27  C   UNL     1       7.515  -0.430   1.773  1.00  0.00     0.010 C 
ENDBRANCH  21  26
BRANCH  22  28
HETATM   28  C   UNL     1       9.227  -4.127   1.725  1.00  0.00    -0.002 A 
HETATM   29  C   UNL     1      10.007  -5.293   1.682  1.00  0.00     0.033 A 
HETATM   30  C   UNL     1      10.099  -6.098   2.805  1.00  0.00     0.117 A 
HETATM   31  N   UNL     1       9.468  -5.830   3.964  1.00  0.00    -0.273 NA
HETATM   32  C   UNL     1       8.733  -4.702   4.001  1.00  0.00     0.117 A 
HETATM   33  C   UNL     1       8.590  -3.830   2.930  1.00  0.00     0.033 A 
ENDBRANCH  22  28
ENDBRANCH   1  20
TORSDOF 6
