REMARK  14 active torsions:
REMARK  status: ('A' for Active; 'I' for Inactive)
REMARK    1  A    between atoms: C_2  and  N_3 
REMARK    2  A    between atoms: N_3  and  C_5 
REMARK    3  A    between atoms: N_3  and  C_37 
REMARK    4  A    between atoms: C_5  and  C_6 
REMARK    5  A    between atoms: C_6  and  N_7 
REMARK    6  A    between atoms: C_10  and  O_11 
REMARK    7  A    between atoms: C_12  and  C_13 
REMARK    8  A    between atoms: C_13  and  C_14 
REMARK    9  A    between atoms: C_18  and  O_19 
REMARK   10  A    between atoms: O_19  and  C_20 
REMARK   11  A    between atoms: C_20  and  C_21 
REMARK   12  A    between atoms: C_27  and  C_28 
REMARK   13  A    between atoms: C_30  and  O_31 
REMARK   14  A    between atoms: C_33  and  O_34 
ROOT
HETATM    1  N   UNL     1       0.382   3.762   1.310  1.00  0.00    -0.332 N 
HETATM    2  C   UNL     1       0.891   5.007   1.017  1.00  0.00     0.278 A 
HETATM    3  O   UNL     1       1.850   5.265   0.314  1.00  0.00    -0.265 OA
HETATM    4  C   UNL     1       0.017   6.008   1.661  1.00  0.00     0.146 A 
HETATM    5  C   UNL     1      -0.994   5.337   2.226  1.00  0.00     0.059 A 
HETATM    6  C   UNL     1      -0.824   3.851   2.123  1.00  0.00     0.161 A 
ENDROOT
BRANCH   5   7
HETATM    7  C   UNL     1      -2.226   5.875   2.838  1.00  0.00     0.193 C 
HETATM    8  O   UNL     1      -2.828   5.216   3.681  1.00  0.00    -0.287 OA
BRANCH   7   9
HETATM    9  C   UNL     1      -2.818   7.149   2.360  1.00  0.00     0.015 A 
HETATM   10  C   UNL     1      -3.482   7.965   3.282  1.00  0.00     0.025 A 
HETATM   11  C   UNL     1      -4.134   9.136   2.861  1.00  0.00    -0.028 A 
HETATM   12  C   UNL     1      -4.854   9.994   3.865  1.00  0.00     0.051 C 
HETATM   13  C   UNL     1      -4.144   9.469   1.494  1.00  0.00     0.074 A 
HETATM   14  C   UNL     1      -3.476   8.653   0.577  1.00  0.00     0.038 A 
HETATM   15  C   UNL     1      -2.828   7.491   1.004  1.00  0.00     0.018 A 
BRANCH  13  16
HETATM   16  O   UNL     1      -4.818  10.612   1.154  1.00  0.00    -0.350 OA
BRANCH  16  17
HETATM   17  C   UNL     1      -5.278  10.704  -0.197  1.00  0.00     0.179 C 
BRANCH  17  18
HETATM   18  C   UNL     1      -6.278  11.863  -0.307  1.00  0.00     0.002 C 
HETATM   19  C   UNL     1      -5.603  13.206  -0.023  1.00  0.00     0.011 C 
HETATM   20  C   UNL     1      -6.925  11.876  -1.691  1.00  0.00     0.011 C 
ENDBRANCH  17  18
ENDBRANCH  16  17
ENDBRANCH  13  16
ENDBRANCH   7   9
ENDBRANCH   5   7
BRANCH   4  21
HETATM   21  O   UNL     1       0.213   7.351   1.563  1.00  0.00    -0.355 OA
HETATM   22  H   UNL     1       1.043   7.484   1.062  1.00  0.00     0.218 HD
ENDBRANCH   4  21
BRANCH   6  23
HETATM   23  C   UNL     1      -0.635   3.100   3.429  1.00  0.00    -0.028 A 
HETATM   24  C   UNL     1      -1.631   2.199   3.858  1.00  0.00     0.049 A 
HETATM   25  C   UNL     1      -1.476   1.474   5.041  1.00  0.00     0.101 A 
HETATM   26  C   UNL     1      -0.305   1.638   5.784  1.00  0.00     0.099 A 
HETATM   27  C   UNL     1       0.681   2.534   5.397  1.00  0.00     0.040 A 
HETATM   28  C   UNL     1       0.512   3.273   4.227  1.00  0.00     0.012 A 
BRANCH  25  29
HETATM   29  O   UNL     1      -2.371   0.569   5.549  1.00  0.00    -0.353 OA
HETATM   30  C   UNL     1      -3.715   0.696   5.091  1.00  0.00     0.210 C 
ENDBRANCH  25  29
BRANCH  26  31
HETATM   31  O   UNL     1      -0.109   0.923   6.933  1.00  0.00    -0.358 OA
HETATM   32  H   UNL     1      -0.939   0.426   7.075  1.00  0.00     0.218 HD
ENDBRANCH  26  31
ENDBRANCH   6  23
BRANCH   1  33
HETATM   33  C   UNL     1       0.783   2.549   0.619  1.00  0.00     0.155 C 
BRANCH  33  34
HETATM   34  C   UNL     1       2.267   2.202   0.833  1.00  0.00     0.254 C 
BRANCH  34  35
HETATM   35  N   UNL     1       2.730   0.981   0.041  1.00  0.00    -0.070 N 
HETATM   36  H   UNL     1       3.725   0.872   0.282  1.00  0.00     0.279 HD
BRANCH  35  37
HETATM   37  C   UNL     1       2.703   1.159  -1.471  1.00  0.00     0.230 C 
HETATM   38  C   UNL     1       3.575   2.316  -1.920  1.00  0.00     0.034 C 
ENDBRANCH  35  37
BRANCH  35  39
HETATM   39  C   UNL     1       2.070  -0.328   0.437  1.00  0.00     0.230 C 
HETATM   40  C   UNL     1       2.325  -0.666   1.894  1.00  0.00     0.034 C 
ENDBRANCH  35  39
ENDBRANCH  34  35
ENDBRANCH  33  34
ENDBRANCH   1  33
TORSDOF 14
