REMARK  8 active torsions:
REMARK  status: ('A' for Active; 'I' for Inactive)
REMARK    1  A    between atoms: O_2  and  C_3 
REMARK    2  A    between atoms: C_5  and  N_6 
REMARK    3  A    between atoms: N_6  and  C_7 
REMARK    4  A    between atoms: C_9  and  N_10 
REMARK    5  A    between atoms: C_12  and  C_13 
REMARK    6  A    between atoms: C_13  and  N_14 
REMARK    7  A    between atoms: N_18  and  C_19 
REMARK    8  A    between atoms: C_29  and  O_30 
ROOT
HETATM    1  C   UNL     1       1.147   4.948   0.608  1.00  0.00     0.731 A 
HETATM    2  N   UNL     1       0.349   3.926   0.894  1.00  0.00    -0.031 NA
HETATM    3  C   UNL     1      -0.517   4.093   1.874  1.00  0.00     0.219 A 
HETATM    4  N   UNL     1      -0.690   5.225   2.534  1.00  0.00    -0.200 NA
HETATM    5  C   UNL     1       0.122   6.215   2.169  1.00  0.00     0.174 A 
HETATM    6  N   UNL     1       1.045   6.132   1.212  1.00  0.00    -0.045 NA
ENDROOT
BRANCH   5   7
HETATM    7  C   UNL     1      -0.238   7.604   2.660  1.00  0.00     0.316 C 
BRANCH   7   8
HETATM    8  N   UNL     1      -1.393   8.294   1.896  1.00  0.00    -0.061 N 
HETATM    9  H   UNL     1      -1.496   9.212   2.346  1.00  0.00     0.280 HD
HETATM   10  C   UNL     1      -1.054   8.530   0.427  1.00  0.00     0.255 C 
HETATM   11  C   UNL     1      -2.209   9.287  -0.274  1.00  0.00     0.152 C 
HETATM   12  N   UNL     1      -3.534   8.650  -0.063  1.00  0.00    -0.364 N 
HETATM   13  C   UNL     1      -3.856   8.333   1.351  1.00  0.00     0.152 C 
HETATM   14  C   UNL     1      -2.715   7.546   2.043  1.00  0.00     0.255 C 
BRANCH  12  15
HETATM   15  C   UNL     1      -4.070   7.829  -1.039  1.00  0.00     0.102 A 
HETATM   16  N   UNL     1      -5.411   7.798  -1.158  1.00  0.00    -0.352 N 
HETATM   17  H   UNL     1      -5.946   8.414  -0.551  1.00  0.00     0.166 HD
HETATM   18  C   UNL     1      -6.069   7.069  -2.073  1.00  0.00     0.089 A 
HETATM   19  C   UNL     1      -5.363   6.288  -2.973  1.00  0.00     0.017 A 
HETATM   20  C   UNL     1      -3.977   6.293  -2.913  1.00  0.00     0.005 A 
HETATM   21  C   UNL     1      -3.327   7.070  -1.953  1.00  0.00     0.048 A 
ENDBRANCH  12  15
ENDBRANCH   7   8
ENDBRANCH   5   7
BRANCH   3  22
HETATM   22  N   UNL     1      -1.341   3.035   2.189  1.00  0.00    -0.270 NA
HETATM   23  H   UNL     1      -0.935   2.174   1.833  1.00  0.00     0.127 HD
HETATM   24  H   UNL     1      -1.560   3.015   3.176  1.00  0.00     0.127 HD
ENDBRANCH   3  22
BRANCH   1  25
HETATM   25  N   UNL     1       2.121   4.845  -0.377  1.00  0.00    -0.185 N 
HETATM   26  H   UNL     1       2.926   5.430  -0.179  1.00  0.00     0.184 HD
BRANCH  25  27
HETATM   27  C   UNL     1       2.437   3.769  -1.234  1.00  0.00     0.085 A 
HETATM   28  C   UNL     1       1.452   2.928  -1.768  1.00  0.00     0.069 A 
HETATM   29  C   UNL     1       1.781   1.884  -2.636  1.00  0.00     0.070 A 
HETATM   30  C   UNL     1       3.117   1.665  -2.963  1.00  0.00     0.039 A 
HETATM   31  C   UNL     1       4.117   2.488  -2.433  1.00  0.00     0.042 A 
HETATM   32  C   UNL     1       3.786   3.536  -1.571  1.00  0.00     0.095 A 
BRANCH  29  33
HETATM   33  O   UNL     1       0.709   1.170  -3.097  1.00  0.00    -0.356 OA
HETATM   34  C   UNL     1       0.985   0.107  -4.003  1.00  0.00     0.210 C 
ENDBRANCH  29  33
BRANCH  32  35
HETATM   35  O   UNL     1       4.689   4.403  -0.997  1.00  0.00    -0.354 OA
HETATM   36  C   UNL     1       6.064   4.035  -1.086  1.00  0.00     0.210 C 
ENDBRANCH  32  35
ENDBRANCH  25  27
ENDBRANCH   1  25
TORSDOF 8
