REMARK  9 active torsions:
REMARK  status: ('A' for Active; 'I' for Inactive)
REMARK    1  A    between atoms: C_2  and  C_3 
REMARK    2  A    between atoms: C_6  and  N_7 
REMARK    3  A    between atoms: C_8  and  C_10 
REMARK    4  A    between atoms: C_8  and  O_9 
REMARK       I    between atoms: C_10  and  N_11 
REMARK    5  A    between atoms: N_11  and  C_12 
REMARK    6  A    between atoms: C_12  and  C_13 
REMARK    7  A    between atoms: C_13  and  N_14 
REMARK    8  A    between atoms: N_14  and  C_16 
REMARK    9  A    between atoms: N_14  and  C_18 
ROOT
HETATM    1  N   UNL     1       3.532   5.311  -2.240  1.00  0.00    -0.254 N 
HETATM    2  C   UNL     1       4.623   6.067  -2.891  1.00  0.00     0.256 C 
HETATM    3  C   UNL     1       4.394   7.558  -3.020  1.00  0.00     0.034 A 
HETATM    4  C   UNL     1       3.159   8.085  -2.683  1.00  0.00     0.048 A 
HETATM    5  N   UNL     1       2.163   7.228  -2.252  1.00  0.00    -0.308 N 
HETATM    6  C   UNL     1       2.283   5.890  -2.050  1.00  0.00     0.330 C 
HETATM    7  O   UNL     1       1.269   5.293  -1.692  1.00  0.00    -0.246 OA
HETATM    8  C   UNL     1       5.376   8.433  -3.523  1.00  0.00     0.015 A 
HETATM    9  C   UNL     1       5.127   9.803  -3.629  1.00  0.00     0.001 A 
HETATM   10  C   UNL     1       3.886  10.313  -3.260  1.00  0.00     0.002 A 
HETATM   11  C   UNL     1       2.894   9.452  -2.796  1.00  0.00     0.030 A 
HETATM   12  H   UNL     1       1.232   7.590  -2.076  1.00  0.00     0.170 HD
ENDROOT
BRANCH   2  13
HETATM   13  C   UNL     1       5.985   5.886  -2.043  1.00  0.00     0.279 C 
HETATM   14  N   UNL     1       5.844   5.803  -0.670  1.00  0.00    -0.355 N 
HETATM   15  H   UNL     1       4.890   5.867  -0.318  1.00  0.00     0.162 HD
HETATM   16  O   UNL     1       7.107   5.899  -2.557  1.00  0.00    -0.268 OA
BRANCH  14  17
HETATM   17  C   UNL     1       6.893   5.599   0.322  1.00  0.00     0.150 C 
BRANCH  17  18
HETATM   18  C   UNL     1       8.153   4.806  -0.094  1.00  0.00     0.254 C 
BRANCH  18  19
HETATM   19  N   UNL     1       9.082   5.566  -1.029  1.00  0.00    -0.070 N 
HETATM   20  H   UNL     1       8.479   5.762  -1.858  1.00  0.00     0.279 HD
BRANCH  19  21
HETATM   21  C   UNL     1       9.519   6.938  -0.571  1.00  0.00     0.230 C 
HETATM   22  C   UNL     1      10.312   6.885   0.721  1.00  0.00     0.034 C 
ENDBRANCH  19  21
BRANCH  19  23
HETATM   23  C   UNL     1      10.232   4.733  -1.551  1.00  0.00     0.230 C 
HETATM   24  C   UNL     1       9.767   3.761  -2.621  1.00  0.00     0.034 C 
ENDBRANCH  19  23
ENDBRANCH  18  19
ENDBRANCH  17  18
ENDBRANCH  14  17
ENDBRANCH   2  13
BRANCH   2  25
HETATM   25  O   UNL     1       4.729   5.590  -4.222  1.00  0.00    -0.359 OA
HETATM   26  H   UNL     1       3.964   5.001  -4.336  1.00  0.00     0.213 HD
ENDBRANCH   2  25
BRANCH   1  27
HETATM   27  C   UNL     1       3.774   3.942  -1.807  1.00  0.00     0.043 A 
HETATM   28  C   UNL     1       4.771   3.138  -2.387  1.00  0.00     0.030 A 
HETATM   29  C   UNL     1       5.093   1.879  -1.861  1.00  0.00     0.009 A 
HETATM   30  C   UNL     1       4.427   1.386  -0.738  1.00  0.00    -0.058 A 
HETATM   31  C   UNL     1       3.419   2.161  -0.165  1.00  0.00     0.009 A 
HETATM   32  C   UNL     1       3.095   3.415  -0.696  1.00  0.00     0.030 A 
BRANCH  30  33
HETATM   33  C   UNL     1       4.808   0.058  -0.133  1.00  0.00     0.034 C 
HETATM   34  C   UNL     1       5.988   0.201   0.819  1.00  0.00     0.010 C 
ENDBRANCH  30  33
ENDBRANCH   1  27
TORSDOF 9
