REMARK  5 active torsions:
REMARK  status: ('A' for Active; 'I' for Inactive)
REMARK    1  A    between atoms: C_5  and  O_6 
REMARK    2  A    between atoms: O_6  and  C_7 
REMARK    3  A    between atoms: C_7  and  C_8 
REMARK       I    between atoms: C_8  and  N_9 
REMARK    4  A    between atoms: N_9  and  N_10 
REMARK    5  A    between atoms: C_11  and  C_12 
ROOT
HETATM    1  C   UNL     1       8.737  -0.823  -1.199  1.00  0.00     0.261 C 
HETATM    2  N   UNL     1       9.162   0.492  -1.073  1.00  0.00    -0.246 N 
HETATM    3  O   UNL     1       9.391  -1.736  -1.701  1.00  0.00    -0.269 OA
HETATM    4  H   UNL     1       8.568   1.171  -0.605  1.00  0.00     0.192 HD
ENDROOT
BRANCH   2   5
HETATM    5  N   UNL     1      10.398   0.843  -1.529  1.00  0.00    -0.184 NA
HETATM    6  C   UNL     1      10.690   2.102  -1.511  1.00  0.00     0.152 C 
BRANCH   6   7
HETATM    7  C   UNL     1      11.987   2.528  -1.998  1.00  0.00     0.011 A 
HETATM    8  C   UNL     1      12.444   3.865  -2.236  1.00  0.00     0.004 A 
HETATM    9  C   UNL     1      13.753   3.779  -2.717  1.00  0.00     0.043 A 
HETATM   10  C   UNL     1      11.865   5.145  -2.104  1.00  0.00     0.014 A 
HETATM   11  C   UNL     1      14.510   4.903  -3.070  1.00  0.00     0.030 A 
HETATM   12  N   UNL     1      14.083   2.445  -2.763  1.00  0.00    -0.364 N 
HETATM   13  C   UNL     1      13.910   6.157  -2.932  1.00  0.00     0.002 A 
HETATM   14  C   UNL     1      12.608   6.280  -2.457  1.00  0.00     0.001 A 
HETATM   15  H   UNL     1      14.973   2.082  -3.075  1.00  0.00     0.165 HD
HETATM   16  C   UNL     1      13.029   1.685  -2.340  1.00  0.00     0.102 A 
ENDBRANCH   6   7
ENDBRANCH   2   5
BRANCH   1  17
HETATM   17  C   UNL     1       7.295  -1.035  -0.753  1.00  0.00     0.280 C 
BRANCH  17  18
HETATM   18  O   UNL     1       6.982  -0.259   0.406  1.00  0.00    -0.342 OA
BRANCH  18  19
HETATM   19  C   UNL     1       5.836  -0.715   1.005  1.00  0.00     0.069 A 
HETATM   20  C   UNL     1       5.919  -1.107   2.339  1.00  0.00     0.037 A 
HETATM   21  C   UNL     1       4.784  -1.592   2.995  1.00  0.00     0.009 A 
HETATM   22  C   UNL     1       3.557  -1.674   2.323  1.00  0.00    -0.062 A 
HETATM   23  C   UNL     1       2.329  -2.183   3.019  1.00  0.00     0.048 C 
HETATM   24  C   UNL     1       3.477  -1.234   0.996  1.00  0.00     0.009 A 
HETATM   25  C   UNL     1       4.612  -0.752   0.339  1.00  0.00     0.037 A 
ENDBRANCH  18  19
ENDBRANCH  17  18
ENDBRANCH   1  17
TORSDOF 5
