REMARK  10 active torsions:
REMARK  status: ('A' for Active; 'I' for Inactive)
REMARK    1  A    between atoms: O_2  and  C_3 
REMARK    2  A    between atoms: C_4  and  O_5 
REMARK    3  A    between atoms: O_5  and  C_6 
REMARK    4  A    between atoms: C_6  and  C_7 
REMARK       I    between atoms: C_7  and  N_8 
REMARK    5  A    between atoms: N_8  and  C_9 
REMARK    6  A    between atoms: C_9  and  N_10 
REMARK    7  A    between atoms: N_10  and  N_11 
REMARK    8  A    between atoms: N_11  and  C_12 
REMARK    9  A    between atoms: C_12  and  N_13 
REMARK   10  A    between atoms: N_13  and  C_14 
ROOT
HETATM    1  C   UNL     1       1.581   1.796   2.585  1.00  0.00     0.193 C 
HETATM    2  S   UNL     1       3.113   2.137   2.003  1.00  0.00    -0.039 SA
ENDROOT
BRANCH   1   3
HETATM    3  N   UNL     1       0.467   2.638   2.535  1.00  0.00    -0.301 N 
HETATM    4  C   UNL     1       0.354   3.978   2.146  1.00  0.00     0.248 C 
HETATM    5  O   UNL     1       1.274   4.707   1.790  1.00  0.00    -0.271 OA
HETATM    6  H   UNL     1      -0.389   2.220   2.869  1.00  0.00     0.171 HD
BRANCH   4   7
HETATM    7  C   UNL     1      -1.089   4.496   2.232  1.00  0.00     0.278 C 
BRANCH   7   8
HETATM    8  O   UNL     1      -1.467   5.059   3.485  1.00  0.00    -0.339 OA
BRANCH   8   9
HETATM    9  C   UNL     1      -1.451   4.159   4.515  1.00  0.00     0.102 A 
HETATM   10  C   UNL     1      -2.327   3.073   4.603  1.00  0.00     0.101 A 
HETATM   11  C   UNL     1      -2.219   2.165   5.657  1.00  0.00     0.039 A 
HETATM   12  C   UNL     1      -1.270   2.377   6.658  1.00  0.00     0.003 A 
HETATM   13  C   UNL     1      -0.429   3.489   6.600  1.00  0.00     0.003 A 
HETATM   14  C   UNL     1      -0.523   4.383   5.532  1.00  0.00     0.039 A 
BRANCH  10  15
HETATM   15  O   UNL     1      -3.260   2.815   3.634  1.00  0.00    -0.353 OA
HETATM   16  C   UNL     1      -4.409   3.642   3.837  1.00  0.00     0.210 C 
ENDBRANCH  10  15
ENDBRANCH   8   9
ENDBRANCH   7   8
ENDBRANCH   4   7
ENDBRANCH   1   3
BRANCH   1  17
HETATM   17  N   UNL     1       1.240   0.567   3.155  1.00  0.00    -0.274 N 
HETATM   18  H   UNL     1       0.382   0.455   3.692  1.00  0.00     0.189 HD
BRANCH  17  19
HETATM   19  N   UNL     1       2.236  -0.383   3.458  1.00  0.00    -0.274 N 
HETATM   20  H   UNL     1       3.049  -0.363   2.842  1.00  0.00     0.189 HD
BRANCH  19  21
HETATM   21  C   UNL     1       1.925  -1.552   4.099  1.00  0.00     0.191 C 
HETATM   22  S   UNL     1       0.384  -1.952   4.633  1.00  0.00    -0.039 SA
BRANCH  21  23
HETATM   23  N   UNL     1       2.924  -2.462   4.291  1.00  0.00    -0.332 N 
HETATM   24  H   UNL     1       2.575  -3.377   4.558  1.00  0.00     0.168 HD
BRANCH  23  25
HETATM   25  C   UNL     1       4.329  -2.335   4.267  1.00  0.00     0.034 A 
HETATM   26  C   UNL     1       5.011  -1.118   4.321  1.00  0.00     0.029 A 
HETATM   27  C   UNL     1       6.410  -1.088   4.315  1.00  0.00     0.002 A 
HETATM   28  C   UNL     1       7.138  -2.274   4.274  1.00  0.00     0.000 A 
HETATM   29  C   UNL     1       6.468  -3.494   4.251  1.00  0.00     0.002 A 
HETATM   30  C   UNL     1       5.071  -3.523   4.254  1.00  0.00     0.029 A 
ENDBRANCH  23  25
ENDBRANCH  21  23
ENDBRANCH  19  21
ENDBRANCH  17  19
ENDBRANCH   1  17
TORSDOF 10
