REMARK  4 active torsions:
REMARK  status: ('A' for Active; 'I' for Inactive)
REMARK    1  A    between atoms: C_3  and  N_4 
REMARK       I    between atoms: N_4  and  C_5 
REMARK       I    between atoms: C_5  and  N_6 
REMARK    2  A    between atoms: N_6  and  C_7 
REMARK    3  A    between atoms: C_18  and  C_19 
REMARK       I    between atoms: C_19  and  N_20 
REMARK    4  A    between atoms: N_20  and  C_21 
ROOT
HETATM    1  C   UNL     1       0.733  -0.281   0.615  1.00  0.00     0.050 C 
HETATM    2  C   UNL     1       2.229  -0.155   0.497  1.00  0.00    -0.034 A 
HETATM    3  C   UNL     1       2.955   0.992   0.847  1.00  0.00     0.042 A 
HETATM    4  C   UNL     1       4.356   0.941   0.870  1.00  0.00     0.031 A 
HETATM    5  C   UNL     1       5.046  -0.193   0.428  1.00  0.00     0.019 A 
HETATM    6  C   UNL     1       4.345  -1.319   0.015  1.00  0.00     0.032 A 
HETATM    7  C   UNL     1       2.940  -1.290   0.055  1.00  0.00     0.026 A 
ENDROOT
BRANCH   3   8
HETATM    8  N   UNL     1       2.379   2.213   1.235  1.00  0.00    -0.308 N 
HETATM    9  C   UNL     1       1.460   3.007   0.594  1.00  0.00     0.325 C 
HETATM   10  N   UNL     1       1.029   2.593  -0.634  1.00  0.00    -0.305 N 
HETATM   11  O   UNL     1       1.158   4.063   1.146  1.00  0.00    -0.247 OA
HETATM   12  H   UNL     1       1.270   1.659  -0.917  1.00  0.00     0.171 HD
HETATM   13  H   UNL     1       2.899   2.780   1.894  1.00  0.00     0.170 HD
BRANCH  10  14
HETATM   14  C   UNL     1       0.227   3.299  -1.519  1.00  0.00     0.086 A 
HETATM   15  C   UNL     1      -0.149   4.671  -1.623  1.00  0.00     0.079 A 
HETATM   16  C   UNL     1       0.261   5.848  -0.817  1.00  0.00     0.075 C 
HETATM   17  N   UNL     1      -0.958   4.878  -2.674  1.00  0.00    -0.177 NA
HETATM   18  N   UNL     1      -1.087   3.673  -3.234  1.00  0.00    -0.280 N 
HETATM   19  H   UNL     1      -1.673   3.593  -4.058  1.00  0.00     0.189 HD
HETATM   20  C   UNL     1      -0.382   2.690  -2.601  1.00  0.00     0.052 A 
HETATM   21  C   UNL     1      -0.412   1.289  -3.081  1.00  0.00     0.072 C 
ENDBRANCH  10  14
ENDBRANCH   3   8
BRANCH   6  22
HETATM   22  C   UNL     1       4.979  -2.516  -0.587  1.00  0.00     0.252 C 
HETATM   23  N   UNL     1       6.138  -3.101  -0.162  1.00  0.00    -0.352 N 
HETATM   24  H   UNL     1       6.336  -3.891  -0.767  1.00  0.00     0.163 HD
HETATM   25  O   UNL     1       4.397  -3.050  -1.534  1.00  0.00    -0.268 OA
BRANCH  23  26
HETATM   26  C   UNL     1       7.129  -2.896   0.880  1.00  0.00     0.084 C 
HETATM   27  C   UNL     1       8.255  -1.932   0.513  1.00  0.00     0.025 C 
HETATM   28  C   UNL     1       8.844  -1.559   1.864  1.00  0.00     0.002 C 
HETATM   29  C   UNL     1       7.629  -1.451   2.776  1.00  0.00     0.002 C 
HETATM   30  C   UNL     1       6.648  -2.515   2.281  1.00  0.00     0.025 C 
ENDBRANCH  23  26
ENDBRANCH   6  22
TORSDOF 4
