REMARK  5 active torsions:
REMARK  status: ('A' for Active; 'I' for Inactive)
REMARK    1  A    between atoms: O_2  and  C_3 
REMARK    2  A    between atoms: C_4  and  N_5 
REMARK       I    between atoms: N_5  and  C_6 
REMARK    3  A    between atoms: C_6  and  C_7 
REMARK    4  A    between atoms: C_7  and  N_8 
REMARK    5  A    between atoms: N_8  and  C_9 
ROOT
HETATM    1  C   UNL     1       6.358   0.840   3.356  1.00  0.00     0.195 C 
ENDROOT
BRANCH   1   2
HETATM    2  C   UNL     1       5.809   1.716   2.221  1.00  0.00     0.235 C 
HETATM    3  N   UNL     1       4.538   1.349   1.829  1.00  0.00    -0.324 N 
HETATM    4  H   UNL     1       4.125   0.569   2.340  1.00  0.00     0.169 HD
HETATM    5  O   UNL     1       6.460   2.662   1.786  1.00  0.00    -0.272 OA
BRANCH   3   6
HETATM    6  C   UNL     1       3.774   1.842   0.753  1.00  0.00     0.068 A 
HETATM    7  C   UNL     1       2.437   1.413   0.655  1.00  0.00     0.095 A 
HETATM    8  C   UNL     1       1.651   1.803  -0.434  1.00  0.00     0.039 A 
HETATM    9  C   UNL     1       2.181   2.648  -1.409  1.00  0.00     0.003 A 
HETATM   10  C   UNL     1       3.494   3.101  -1.298  1.00  0.00     0.002 A 
HETATM   11  C   UNL     1       4.288   2.701  -0.220  1.00  0.00     0.032 A 
BRANCH   7  12
HETATM   12  O   UNL     1       1.972   0.586   1.652  1.00  0.00    -0.354 OA
HETATM   13  C   UNL     1       0.643   0.887   2.072  1.00  0.00     0.210 C 
ENDBRANCH   7  12
ENDBRANCH   3   6
ENDBRANCH   1   2
BRANCH   1  14
HETATM   14  N   UNL     1       5.809  -0.531   3.348  1.00  0.00    -0.284 NA
HETATM   15  H   UNL     1       5.759  -0.912   4.292  1.00  0.00     0.128 HD
BRANCH  14  16
HETATM   16  C   UNL     1       6.384  -1.478   2.479  1.00  0.00     0.009 A 
HETATM   17  C   UNL     1       7.016  -1.148   1.272  1.00  0.00     0.035 A 
HETATM   18  C   UNL     1       7.509  -2.131   0.392  1.00  0.00    -0.024 A 
HETATM   19  C   UNL     1       7.347  -3.494   0.716  1.00  0.00    -0.026 A 
HETATM   20  C   UNL     1       8.155  -1.783  -0.806  1.00  0.00     0.012 A 
HETATM   21  C   UNL     1       6.680  -3.833   1.900  1.00  0.00     0.014 A 
HETATM   22  C   UNL     1       7.843  -4.473  -0.161  1.00  0.00     0.012 A 
HETATM   23  C   UNL     1       6.192  -2.837   2.755  1.00  0.00     0.024 A 
HETATM   24  C   UNL     1       8.488  -4.111  -1.345  1.00  0.00     0.001 A 
HETATM   25  C   UNL     1       8.641  -2.766  -1.668  1.00  0.00     0.001 A 
ENDBRANCH  14  16
ENDBRANCH   1  14
TORSDOF 5
