REMARK  8 active torsions:
REMARK  status: ('A' for Active; 'I' for Inactive)
REMARK    1  A    between atoms: C_6  and  N_7 
REMARK       I    between atoms: N_7  and  C_8 
REMARK    2  A    between atoms: C_8  and  C_9 
REMARK    3  A    between atoms: C_9  and  N_10 
REMARK       I    between atoms: N_10  and  C_11 
REMARK    4  A    between atoms: C_11  and  C_12 
REMARK    5  A    between atoms: C_12  and  S_13 
REMARK    6  A    between atoms: S_13  and  C_14 
REMARK    7  A    between atoms: C_16  and  C_17 
REMARK    8  A    between atoms: C_20  and  O_21 
ROOT
HETATM    1  N   UNL     1       5.837  -2.461  -1.290  1.00  0.00    -0.352 N 
HETATM    2  C   UNL     1       5.204  -3.671  -1.167  1.00  0.00     0.227 C 
HETATM    3  O   UNL     1       5.735  -4.624  -0.596  1.00  0.00    -0.273 OA
HETATM    4  H   UNL     1       5.308  -1.680  -1.676  1.00  0.00     0.162 HD
ENDROOT
BRANCH   2   5
HETATM    5  C   UNL     1       3.833  -3.765  -1.821  1.00  0.00     0.185 C 
BRANCH   5   6
HETATM    6  S   UNL     1       2.591  -2.723  -0.991  1.00  0.00    -0.081 SA
BRANCH   6   7
HETATM    7  C   UNL     1       2.882  -1.196  -1.723  1.00  0.00     0.185 A 
HETATM    8  N   UNL     1       3.941  -0.830  -2.398  1.00  0.00    -0.201 NA
HETATM    9  C   UNL     1       3.687   0.494  -2.701  1.00  0.00     0.182 A 
HETATM   10  N   UNL     1       2.503   0.936  -2.240  1.00  0.00    -0.152 NA
HETATM   11  N   UNL     1       2.019  -0.154  -1.617  1.00  0.00    -0.253 N 
HETATM   12  H   UNL     1       1.123  -0.115  -1.146  1.00  0.00     0.191 HD
BRANCH   9  13
HETATM   13  C   UNL     1       4.661   1.309  -3.422  1.00  0.00     0.014 A 
HETATM   14  C   UNL     1       5.859   0.738  -3.872  1.00  0.00     0.018 A 
HETATM   15  C   UNL     1       6.814   1.514  -4.535  1.00  0.00     0.037 A 
HETATM   16  C   UNL     1       6.591   2.872  -4.763  1.00  0.00     0.068 A 
HETATM   17  C   UNL     1       5.397   3.448  -4.329  1.00  0.00     0.037 A 
HETATM   18  C   UNL     1       4.439   2.671  -3.662  1.00  0.00     0.018 A 
BRANCH  16  19
HETATM   19  O   UNL     1       7.608   3.512  -5.415  1.00  0.00    -0.356 OA
HETATM   20  C   UNL     1       7.461   4.911  -5.623  1.00  0.00     0.210 C 
ENDBRANCH  16  19
ENDBRANCH   9  13
ENDBRANCH   6   7
ENDBRANCH   5   6
ENDBRANCH   2   5
BRANCH   1  21
HETATM   21  C   UNL     1       7.155  -2.182  -0.756  1.00  0.00     0.225 C 
BRANCH  21  22
HETATM   22  C   UNL     1       7.154  -1.925   0.757  1.00  0.00     0.239 C 
HETATM   23  N   UNL     1       6.724  -3.025   1.485  1.00  0.00    -0.325 N 
HETATM   24  H   UNL     1       6.682  -3.891   0.948  1.00  0.00     0.169 HD
HETATM   25  O   UNL     1       7.617  -0.885   1.220  1.00  0.00    -0.271 OA
BRANCH  23  26
HETATM   26  C   UNL     1       6.829  -3.152   2.887  1.00  0.00     0.046 A 
HETATM   27  C   UNL     1       6.345  -2.171   3.775  1.00  0.00    -0.034 A 
HETATM   28  C   UNL     1       6.516  -2.357   5.160  1.00  0.00     0.015 A 
HETATM   29  C   UNL     1       5.601  -0.939   3.334  1.00  0.00     0.050 C 
HETATM   30  C   UNL     1       7.116  -3.509   5.673  1.00  0.00    -0.061 A 
HETATM   31  C   UNL     1       7.268  -3.708   7.151  1.00  0.00     0.048 C 
HETATM   32  C   UNL     1       7.533  -4.504   4.786  1.00  0.00     0.015 A 
HETATM   33  C   UNL     1       7.398  -4.341   3.397  1.00  0.00    -0.034 A 
HETATM   34  C   UNL     1       7.913  -5.432   2.496  1.00  0.00     0.050 C 
ENDBRANCH  23  26
ENDBRANCH  21  22
ENDBRANCH   1  21
TORSDOF 8
