REMARK  9 active torsions:
REMARK  status: ('A' for Active; 'I' for Inactive)
REMARK    1  A    between atoms: C_2  and  C_3 
REMARK    2  A    between atoms: C_7  and  C_8 
REMARK    3  A    between atoms: C_8  and  C_9 
REMARK       I    between atoms: C_9  and  N_10 
REMARK    4  A    between atoms: N_10  and  C_11 
REMARK    5  A    between atoms: C_11  and  C_12 
REMARK    6  A    between atoms: C_12  and  C_13 
REMARK    7  A    between atoms: C_21  and  C_22 
REMARK    8  A    between atoms: C_32  and  C_33 
REMARK    9  A    between atoms: C_33  and  O_34 
ROOT
HETATM    1  C   UNL     1       2.683   1.352   0.455  1.00  0.00     0.051 C 
HETATM    2  N   UNL     1       2.475   2.211   1.546  1.00  0.00    -0.228 NA
HETATM    3  C   UNL     1       3.545   2.701   2.083  1.00  0.00     0.170 C 
HETATM    4  N   UNL     1       4.949   2.597   1.396  1.00  0.00    -0.318 N 
HETATM    5  C   UNL     1       5.795   2.173   2.284  1.00  0.00     0.011 C 
HETATM    6  C   UNL     1       4.694   2.634  -0.063  1.00  0.00     0.166 C 
HETATM    7  S   UNL     1       3.706   3.202   3.721  1.00  0.00    -0.086 SA
HETATM    8  C   UNL     1       5.378   2.447   3.728  1.00  0.00     0.135 C 
HETATM    9  C   UNL     1       3.801   1.456  -0.309  1.00  0.00     0.069 C 
ENDROOT
BRANCH   5  10
HETATM   10  C   UNL     1       6.899   1.229   1.895  1.00  0.00     0.156 C 
BRANCH  10  11
HETATM   11  C   UNL     1       7.989   0.964   2.911  1.00  0.00     0.222 C 
HETATM   12  N   UNL     1       8.955   0.089   2.461  1.00  0.00    -0.361 N 
HETATM   13  H   UNL     1       8.846  -0.324   1.535  1.00  0.00     0.162 HD
HETATM   14  O   UNL     1       8.007   1.453   4.038  1.00  0.00    -0.273 OA
BRANCH  12  15
HETATM   15  C   UNL     1       9.859  -0.608   3.360  1.00  0.00     0.124 C 
BRANCH  15  16
HETATM   16  C   UNL     1      11.175   0.116   3.656  1.00  0.00     0.053 C 
BRANCH  16  17
HETATM   17  C   UNL     1      11.051   1.468   4.348  1.00  0.00     0.189 C 
HETATM   18  N   UNL     1      10.342   1.460   5.687  1.00  0.00    -0.071 N 
HETATM   19  H   UNL     1       9.325   1.455   5.482  1.00  0.00     0.279 HD
HETATM   20  C   UNL     1      10.638   0.322   6.628  1.00  0.00     0.270 C 
HETATM   21  C   UNL     1      10.706   2.794   6.332  1.00  0.00     0.235 C 
HETATM   22  C   UNL     1      11.926   3.299   5.569  1.00  0.00     0.030 C 
HETATM   23  C   UNL     1      12.368   2.149   4.679  1.00  0.00     0.035 C 
ENDBRANCH  16  17
ENDBRANCH  15  16
ENDBRANCH  12  15
ENDBRANCH  10  11
ENDBRANCH   5  10
BRANCH   6  24
HETATM   24  C   UNL     1       5.806   3.039  -1.032  1.00  0.00    -0.024 C 
HETATM   25  C   UNL     1       5.580   3.114  -2.434  1.00  0.00    -0.053 C 
HETATM   26  C   UNL     1       4.254   2.860  -3.112  1.00  0.00     0.049 C 
HETATM   27  C   UNL     1       6.625   3.499  -3.300  1.00  0.00     0.014 C 
HETATM   28  C   UNL     1       7.868   3.903  -2.818  1.00  0.00    -0.061 C 
HETATM   29  C   UNL     1       8.931   4.381  -3.763  1.00  0.00     0.048 C 
HETATM   30  C   UNL     1       8.052   3.964  -1.442  1.00  0.00     0.007 C 
HETATM   31  C   UNL     1       7.035   3.558  -0.569  1.00  0.00     0.011 C 
ENDBRANCH   6  24
BRANCH   9  32
HETATM   32  C   UNL     1       4.390   0.309  -1.010  1.00  0.00     0.293 C 
HETATM   33  O   UNL     1       5.470  -0.132  -0.642  1.00  0.00    -0.259 OA
BRANCH  32  34
HETATM   34  O   UNL     1       3.630  -0.111  -2.034  1.00  0.00    -0.323 OA
HETATM   35  C   UNL     1       4.188  -1.209  -2.764  1.00  0.00     0.213 C 
ENDBRANCH  32  34
ENDBRANCH   9  32
BRANCH   1  36
HETATM   36  C   UNL     1       1.674   0.218   0.385  1.00  0.00     0.056 C 
HETATM   37  C   UNL     1       1.778  -0.724   1.577  1.00  0.00     0.011 C 
ENDBRANCH   1  36
TORSDOF 9
