REMARK  9 active torsions:
REMARK  status: ('A' for Active; 'I' for Inactive)
REMARK    1  A    between atoms: C_3  and  N_4 
REMARK       I    between atoms: N_4  and  C_5 
REMARK    2  A    between atoms: C_5  and  C_6 
REMARK    3  A    between atoms: C_6  and  S_7 
REMARK    4  A    between atoms: S_7  and  C_8 
REMARK    5  A    between atoms: N_9  and  C_10 
REMARK    6  A    between atoms: C_10  and  C_11 
REMARK       I    between atoms: C_11  and  N_12 
REMARK    7  A    between atoms: N_12  and  C_13 
REMARK    8  A    between atoms: C_15  and  O_16 
REMARK    9  A    between atoms: C_21  and  C_22 
ROOT
HETATM    1  C   UNL     1      -0.447   1.936   1.628  1.00  0.00     0.169 A 
HETATM    2  N   UNL     1      -1.426   1.969   0.665  1.00  0.00    -0.315 N 
HETATM    3  C   UNL     1      -2.299   2.990   1.006  1.00  0.00     0.065 A 
HETATM    4  C   UNL     1      -1.746   3.538   2.150  1.00  0.00     0.150 A 
HETATM    5  N   UNL     1      -0.610   2.877   2.522  1.00  0.00    -0.234 NA
ENDROOT
BRANCH   1   6
HETATM    6  S   UNL     1       0.863   0.808   1.650  1.00  0.00    -0.083 SA
BRANCH   6   7
HETATM    7  C   UNL     1       1.326   0.849   3.414  1.00  0.00     0.185 C 
BRANCH   7   8
HETATM    8  C   UNL     1       2.424   1.855   3.738  1.00  0.00     0.231 C 
HETATM    9  N   UNL     1       2.245   3.111   3.188  1.00  0.00    -0.326 N 
HETATM   10  H   UNL     1       1.614   3.138   2.396  1.00  0.00     0.169 HD
HETATM   11  O   UNL     1       3.359   1.529   4.468  1.00  0.00    -0.272 OA
BRANCH   9  12
HETATM   12  C   UNL     1       3.117   4.210   3.339  1.00  0.00     0.046 A 
HETATM   13  C   UNL     1       3.479   4.927   2.174  1.00  0.00    -0.035 A 
HETATM   14  C   UNL     1       3.026   4.505   0.801  1.00  0.00     0.050 C 
HETATM   15  C   UNL     1       4.329   6.040   2.282  1.00  0.00     0.009 A 
HETATM   16  C   UNL     1       4.811   6.445   3.521  1.00  0.00     0.001 A 
HETATM   17  C   UNL     1       4.433   5.757   4.670  1.00  0.00     0.009 A 
HETATM   18  C   UNL     1       3.565   4.652   4.601  1.00  0.00    -0.035 A 
HETATM   19  C   UNL     1       3.125   4.045   5.906  1.00  0.00     0.050 C 
ENDBRANCH   9  12
ENDBRANCH   7   8
ENDBRANCH   6   7
ENDBRANCH   1   6
BRANCH   2  20
HETATM   20  C   UNL     1      -1.505   1.122  -0.513  1.00  0.00     0.234 C 
BRANCH  20  21
HETATM   21  C   UNL     1      -1.980  -0.304  -0.273  1.00  0.00     0.240 C 
HETATM   22  N   UNL     1      -2.649  -0.543   0.915  1.00  0.00    -0.326 N 
HETATM   23  H   UNL     1      -2.721   0.214   1.583  1.00  0.00     0.169 HD
HETATM   24  O   UNL     1      -1.799  -1.137  -1.162  1.00  0.00    -0.271 OA
BRANCH  22  25
HETATM   25  C   UNL     1      -3.237  -1.755   1.343  1.00  0.00     0.037 A 
HETATM   26  C   UNL     1      -3.243  -2.934   0.593  1.00  0.00     0.066 A 
HETATM   27  C   UNL     1      -3.860  -4.077   1.101  1.00  0.00     0.067 A 
HETATM   28  C   UNL     1      -4.475  -4.069   2.346  1.00  0.00     0.036 A 
HETATM   29  C   UNL     1      -4.474  -2.900   3.101  1.00  0.00     0.005 A 
HETATM   30  C   UNL     1      -3.858  -1.749   2.601  1.00  0.00     0.029 A 
BRANCH  27  31
HETATM   31  O   UNL     1      -3.881  -5.243   0.392  1.00  0.00    -0.361 OA
HETATM   32  H   UNL     1      -3.398  -5.107  -0.440  1.00  0.00     0.217 HD
ENDBRANCH  27  31
ENDBRANCH  22  25
ENDBRANCH  20  21
ENDBRANCH   2  20
BRANCH   3  33
HETATM   33  C   UNL     1      -3.490   3.405   0.274  1.00  0.00    -0.008 A 
HETATM   34  C   UNL     1      -4.581   2.540   0.111  1.00  0.00     0.017 A 
HETATM   35  C   UNL     1      -5.723   2.968  -0.571  1.00  0.00     0.043 A 
HETATM   36  C   UNL     1      -5.777   4.260  -1.079  1.00  0.00     0.116 A 
HETATM   37  F   UNL     1      -6.875   4.670  -1.725  1.00  0.00    -0.206 F 
HETATM   38  C   UNL     1      -4.710   5.135  -0.918  1.00  0.00     0.043 A 
HETATM   39  C   UNL     1      -3.567   4.708  -0.239  1.00  0.00     0.017 A 
ENDBRANCH   3  33
TORSDOF 9
