REMARK  4 active torsions:
REMARK  status: ('A' for Active; 'I' for Inactive)
REMARK    1  A    between atoms: C_9  and  C_10 
REMARK    2  A    between atoms: C_11  and  O_12 
REMARK    3  A    between atoms: C_18  and  C_19 
REMARK       I    between atoms: C_19  and  N_20 
REMARK    4  A    between atoms: N_20  and  C_21 
ROOT
HETATM    1  C   UNL     1       0.900  -0.067  -1.233  1.00  0.00     0.070 C 
HETATM    2  C   UNL     1       2.281  -0.085  -0.626  1.00  0.00     0.037 C 
HETATM    3  N   UNL     1       2.819   1.163  -0.322  1.00  0.00    -0.192 N 
HETATM    4  C   UNL     1       4.132   1.345  -0.074  1.00  0.00     0.725 A 
HETATM    5  N   UNL     1       4.943   0.255   0.098  1.00  0.00    -0.084 N 
HETATM    6  N   UNL     1       6.231   0.625   0.260  1.00  0.00    -0.149 NA
HETATM    7  C   UNL     1       6.113   1.957   0.209  1.00  0.00     0.275 A 
HETATM    8  N   UNL     1       4.845   2.439   0.013  1.00  0.00    -0.054 NA
HETATM    9  C   UNL     1       4.463  -1.136   0.082  1.00  0.00     0.205 C 
HETATM   10  C   UNL     1       3.030  -1.202  -0.440  1.00  0.00     0.063 C 
HETATM   11  H   UNL     1       2.272   1.982  -0.577  1.00  0.00     0.184 HD
ENDROOT
BRANCH  10  12
HETATM   12  C   UNL     1       2.592  -2.554  -0.869  1.00  0.00     0.256 C 
HETATM   13  N   UNL     1       1.438  -2.978  -0.243  1.00  0.00    -0.323 N 
HETATM   14  H   UNL     1       1.040  -2.358   0.451  1.00  0.00     0.169 HD
HETATM   15  O   UNL     1       3.248  -3.151  -1.711  1.00  0.00    -0.267 OA
BRANCH  13  16
HETATM   16  C   UNL     1       0.708  -4.153  -0.519  1.00  0.00     0.035 A 
HETATM   17  C   UNL     1       1.135  -5.146  -1.405  1.00  0.00     0.031 A 
HETATM   18  C   UNL     1       0.339  -6.270  -1.653  1.00  0.00     0.026 A 
HETATM   19  C   UNL     1      -0.891  -6.404  -1.018  1.00  0.00     0.034 A 
HETATM   20 CL   UNL     1      -1.876  -7.777  -1.335  1.00  0.00    -0.084 Cl
HETATM   21  C   UNL     1      -1.328  -5.427  -0.128  1.00  0.00     0.026 A 
HETATM   22  C   UNL     1      -0.526  -4.308   0.125  1.00  0.00     0.031 A 
ENDBRANCH  13  16
ENDBRANCH  10  12
BRANCH   9  23
HETATM   23  C   UNL     1       4.584  -1.751   1.480  1.00  0.00     0.005 A 
HETATM   24  C   UNL     1       5.165  -3.022   1.655  1.00  0.00     0.076 A 
HETATM   25  C   UNL     1       5.284  -3.564   2.940  1.00  0.00     0.037 A 
HETATM   26  C   UNL     1       4.809  -2.865   4.052  1.00  0.00     0.003 A 
HETATM   27  C   UNL     1       4.206  -1.624   3.889  1.00  0.00     0.001 A 
HETATM   28  C   UNL     1       4.088  -1.072   2.614  1.00  0.00     0.012 A 
BRANCH  24  29
HETATM   29  O   UNL     1       5.598  -3.645   0.516  1.00  0.00    -0.355 OA
HETATM   30  C   UNL     1       5.931  -5.025   0.608  1.00  0.00     0.210 C 
ENDBRANCH  24  29
ENDBRANCH   9  23
TORSDOF 4
