REMARK  5 active torsions:
REMARK  status: ('A' for Active; 'I' for Inactive)
REMARK    1  A    between atoms: C_9  and  C_10 
REMARK    2  A    between atoms: C_13  and  O_14 
REMARK    3  A    between atoms: O_14  and  C_15 
REMARK    4  A    between atoms: C_20  and  C_21 
REMARK       I    between atoms: C_21  and  N_22 
REMARK    5  A    between atoms: N_22  and  C_23 
ROOT
HETATM    1  C   UNL     1       0.762   0.031  -0.517  1.00  0.00     0.070 C 
HETATM    2  C   UNL     1       2.252   0.057  -0.273  1.00  0.00     0.037 C 
HETATM    3  N   UNL     1       2.823   1.327  -0.185  1.00  0.00    -0.192 N 
HETATM    4  C   UNL     1       4.155   1.524  -0.244  1.00  0.00     0.725 A 
HETATM    5  N   UNL     1       4.990   0.448  -0.134  1.00  0.00    -0.084 N 
HETATM    6  N   UNL     1       6.280   0.797  -0.318  1.00  0.00    -0.149 NA
HETATM    7  C   UNL     1       6.150   2.120  -0.480  1.00  0.00     0.275 A 
HETATM    8  N   UNL     1       4.867   2.605  -0.442  1.00  0.00    -0.054 NA
HETATM    9  C   UNL     1       4.528  -0.916   0.129  1.00  0.00     0.202 C 
HETATM   10  C   UNL     1       3.032  -1.050  -0.152  1.00  0.00     0.062 C 
HETATM   11  H   UNL     1       2.219   2.117  -0.406  1.00  0.00     0.184 HD
ENDROOT
BRANCH   9  12
HETATM   12  C   UNL     1       4.913  -1.291   1.564  1.00  0.00    -0.028 A 
HETATM   13  C   UNL     1       4.158  -0.865   2.668  1.00  0.00     0.012 A 
HETATM   14  C   UNL     1       4.544  -1.204   3.967  1.00  0.00     0.037 A 
HETATM   15  C   UNL     1       5.693  -1.961   4.198  1.00  0.00     0.074 A 
HETATM   16  C   UNL     1       6.462  -2.374   3.110  1.00  0.00     0.037 A 
HETATM   17  C   UNL     1       6.075  -2.042   1.805  1.00  0.00     0.012 A 
BRANCH  15  18
HETATM   18  O   UNL     1       5.956  -2.199   5.516  1.00  0.00    -0.290 OA
BRANCH  18  19
HETATM   19  C   UNL     1       7.030  -3.074   5.814  1.00  0.00     0.505 C 
HETATM   20  F   UNL     1       8.202  -2.473   5.495  1.00  0.00    -0.184 F 
HETATM   21  F   UNL     1       7.041  -3.259   7.158  1.00  0.00    -0.184 F 
ENDBRANCH  18  19
ENDBRANCH  15  18
ENDBRANCH   9  12
BRANCH  10  22
HETATM   22  C   UNL     1       2.500  -2.400  -0.515  1.00  0.00     0.256 C 
HETATM   23  N   UNL     1       2.976  -3.437   0.258  1.00  0.00    -0.323 N 
HETATM   24  H   UNL     1       3.574  -3.220   1.043  1.00  0.00     0.169 HD
HETATM   25  O   UNL     1       1.747  -2.505  -1.477  1.00  0.00    -0.267 OA
BRANCH  23  26
HETATM   26  C   UNL     1       2.726  -4.817   0.080  1.00  0.00     0.035 A 
HETATM   27  C   UNL     1       1.823  -5.339  -0.849  1.00  0.00     0.029 A 
HETATM   28  C   UNL     1       1.645  -6.721  -0.967  1.00  0.00     0.002 A 
HETATM   29  C   UNL     1       2.375  -7.595  -0.165  1.00  0.00     0.000 A 
HETATM   30  C   UNL     1       3.278  -7.086   0.764  1.00  0.00     0.002 A 
HETATM   31  C   UNL     1       3.447  -5.705   0.891  1.00  0.00     0.029 A 
ENDBRANCH  23  26
ENDBRANCH  10  22
TORSDOF 5
