REMARK  2 active torsions:
REMARK  status: ('A' for Active; 'I' for Inactive)
REMARK    1  A    between atoms: C_6  and  C_7 
REMARK    2  A    between atoms: C_7  and  N_8 
ROOT
HETATM    1  N   UNL     1      -2.709  -2.107  -0.437  1.00  0.00    -0.203 NA
HETATM    2  S   UNL     1      -3.267  -2.151  -2.042  1.00  0.00     0.219 S 
HETATM    3  O   UNL     1      -4.016  -3.365  -2.240  1.00  0.00    -0.211 OA
HETATM    4  O   UNL     1      -2.189  -1.729  -2.910  1.00  0.00    -0.211 OA
HETATM    5  C   UNL     1      -4.364  -0.747  -1.924  1.00  0.00     0.164 C 
HETATM    6  C   UNL     1      -4.424  -0.405  -0.444  1.00  0.00     0.116 C 
HETATM    7  O   UNL     1      -5.592  -1.120   0.020  1.00  0.00    -0.369 OA
HETATM    8  C   UNL     1      -6.582  -0.870  -1.002  1.00  0.00     0.149 C 
HETATM    9  C   UNL     1      -7.101   0.567  -0.779  1.00  0.00     0.264 C 
HETATM   10  N   UNL     1      -5.951   1.557  -0.881  1.00  0.00    -0.070 N 
HETATM   11  H   UNL     1      -5.758   1.764  -1.871  1.00  0.00     0.277 HD
HETATM   12  H   UNL     1      -6.255   2.454  -0.473  1.00  0.00     0.277 HD
HETATM   13  C   UNL     1      -4.690   1.092  -0.173  1.00  0.00     0.273 C 
HETATM   14  C   UNL     1      -3.136  -0.870   0.246  1.00  0.00     0.148 C 
HETATM   15  C   UNL     1      -5.810  -1.023  -2.314  1.00  0.00     0.058 C 
ENDROOT
BRANCH   1  16
HETATM   16  C   UNL     1      -1.274  -2.431  -0.232  1.00  0.00     0.145 C 
BRANCH  16  17
HETATM   17  C   UNL     1      -0.877  -3.832  -0.616  1.00  0.00    -0.043 A 
HETATM   18  C   UNL     1      -1.454  -4.937   0.025  1.00  0.00     0.032 A 
HETATM   19  C   UNL     1      -1.043  -6.230  -0.301  1.00  0.00     0.034 A 
HETATM   20  C   UNL     1      -0.061  -6.439  -1.266  1.00  0.00     0.024 A 
HETATM   21 CL   UNL     1      -1.747  -7.576   0.508  1.00  0.00    -0.084 Cl
HETATM   22  C   UNL     1       0.511  -5.347  -1.917  1.00  0.00     0.002 A 
HETATM   23  C   UNL     1       0.105  -4.051  -1.595  1.00  0.00     0.008 A 
ENDBRANCH  16  17
ENDBRANCH   1  16
TORSDOF 2
