REMARK  7 active torsions:
REMARK  status: ('A' for Active; 'I' for Inactive)
REMARK    1  A    between atoms: C_5  and  N_6 
REMARK    2  A    between atoms: N_6  and  C_9 
REMARK    3  A    between atoms: C_9  and  C_10 
REMARK    4  A    between atoms: C_10  and  C_11 
REMARK    5  A    between atoms: C_10  and  C_13 
REMARK    6  A    between atoms: C_11  and  O_12 
REMARK    7  A    between atoms: C_13  and  C_14 
ROOT
HETATM    1  N   UNL     1       9.124   5.740  -1.789  1.00  0.00    -0.066 N 
HETATM    2  H   UNL     1       8.656   6.222  -1.000  1.00  0.00     0.278 HD
HETATM    3  H   UNL     1       9.132   6.436  -2.558  1.00  0.00     0.278 HD
ENDROOT
BRANCH   1   4
HETATM    4  C   UNL     1      10.481   5.437  -1.288  1.00  0.00     0.220 C 
HETATM    5  C   UNL     1      11.252   6.697  -1.035  1.00  0.00    -0.021 A 
HETATM    6  C   UNL     1      12.257   6.892  -1.997  1.00  0.00    -0.040 A 
HETATM    7  C   UNL     1      11.030   7.629  -0.029  1.00  0.00     0.010 A 
HETATM    8  C   UNL     1      13.094   8.006  -1.944  1.00  0.00    -0.055 A 
HETATM    9  C   UNL     1      12.254   5.780  -3.011  1.00  0.00     0.018 C 
HETATM   10  C   UNL     1      14.185   8.245  -2.945  1.00  0.00     0.049 C 
HETATM   11  C   UNL     1      12.859   8.947  -0.931  1.00  0.00     0.007 A 
HETATM   12  C   UNL     1      11.839   8.762   0.014  1.00  0.00     0.001 A 
HETATM   13  C   UNL     1      11.376   4.720  -2.312  1.00  0.00     0.047 C 
HETATM   14  C   UNL     1      11.685   6.207  -4.359  1.00  0.00     0.015 C 
ENDBRANCH   1   4
BRANCH   1  15
HETATM   15  C   UNL     1       8.231   4.613  -2.163  1.00  0.00     0.240 C 
BRANCH  15  16
HETATM   16  C   UNL     1       6.840   5.126  -2.591  1.00  0.00     0.040 C 
BRANCH  16  17
HETATM   17  C   UNL     1       6.927   5.826  -3.956  1.00  0.00     0.170 C 
BRANCH  17  18
HETATM   18  O   UNL     1       7.923   6.847  -3.903  1.00  0.00    -0.400 OA
HETATM   19  H   UNL     1       7.816   7.380  -4.719  1.00  0.00     0.209 HD
ENDBRANCH  17  18
ENDBRANCH  16  17
BRANCH  16  20
HETATM   20  C   UNL     1       6.160   6.074  -1.575  1.00  0.00     0.067 C 
BRANCH  20  21
HETATM   21  C   UNL     1       6.246   5.586  -0.154  1.00  0.00     0.034 A 
HETATM   22  N   UNL     1       7.442   5.781   0.471  1.00  0.00    -0.266 NA
HETATM   23  C   UNL     1       7.532   5.344   1.752  1.00  0.00     0.117 A 
HETATM   24  C   UNL     1       6.509   4.696   2.424  1.00  0.00     0.019 A 
HETATM   25  C   UNL     1       5.310   4.490   1.754  1.00  0.00     0.003 A 
HETATM   26  C   UNL     1       5.170   4.940   0.446  1.00  0.00     0.027 A 
ENDBRANCH  20  21
ENDBRANCH  16  20
ENDBRANCH  15  16
ENDBRANCH   1  15
TORSDOF 7
