REMARK  6 active torsions:
REMARK  status: ('A' for Active; 'I' for Inactive)
REMARK    1  A    between atoms: C_2  and  O_3 
REMARK    2  A    between atoms: O_3  and  C_4 
REMARK    3  A    between atoms: C_6  and  C_7 
REMARK       I    between atoms: C_7  and  N_8 
REMARK    4  A    between atoms: C_10  and  N_11 
REMARK       I    between atoms: N_11  and  C_12 
REMARK    5  A    between atoms: C_12  and  C_13 
REMARK    6  A    between atoms: N_15  and  C_16 
ROOT
HETATM    1  N   UNL     1       8.630   2.225  -1.036  1.00  0.00    -0.319 N 
HETATM    2  C   UNL     1       9.444   1.417  -1.817  1.00  0.00     0.295 C 
HETATM    3  O   UNL     1       9.054   0.488  -2.518  1.00  0.00    -0.264 OA
HETATM    4  H   UNL     1       9.099   3.037  -0.633  1.00  0.00     0.169 HD
ENDROOT
BRANCH   1   5
HETATM    5  C   UNL     1       7.247   2.075  -0.783  1.00  0.00     0.051 A 
HETATM    6  C   UNL     1       6.508   3.130  -0.212  1.00  0.00     0.061 A 
HETATM    7  C   UNL     1       5.155   2.955   0.121  1.00  0.00     0.056 A 
HETATM    8  C   UNL     1       4.510   1.744  -0.126  1.00  0.00     0.069 A 
HETATM    9  C   UNL     1       5.230   0.701  -0.700  1.00  0.00     0.039 A 
HETATM   10  C   UNL     1       6.584   0.867  -1.026  1.00  0.00     0.033 A 
BRANCH   6  11
HETATM   11  C   UNL     1       7.074   4.482   0.029  1.00  0.00     0.251 C 
HETATM   12  N   UNL     1       7.922   4.973  -0.927  1.00  0.00    -0.366 N 
HETATM   13  H   UNL     1       7.932   4.577  -1.859  1.00  0.00     0.159 HD
HETATM   14  H   UNL     1       8.157   5.955  -0.842  1.00  0.00     0.159 HD
HETATM   15  O   UNL     1       6.762   5.154   1.002  1.00  0.00    -0.268 OA
ENDBRANCH   6  11
BRANCH   8  16
HETATM   16  O   UNL     1       3.190   1.710   0.226  1.00  0.00    -0.351 OA
BRANCH  16  17
HETATM   17  C   UNL     1       2.495   0.479   0.027  1.00  0.00     0.171 C 
HETATM   18  C   UNL     1       1.050   0.679   0.447  1.00  0.00     0.034 C 
ENDBRANCH  16  17
ENDBRANCH   8  16
ENDBRANCH   1   5
BRANCH   2  19
HETATM   19  C   UNL     1      10.868   1.821  -1.767  1.00  0.00     0.239 A 
HETATM   20  N   UNL     1      11.348   2.698  -0.861  1.00  0.00    -0.140 NA
HETATM   21  N   UNL     1      12.682   2.696  -1.125  1.00  0.00    -0.225 N 
HETATM   22  C   UNL     1      12.924   1.918  -2.228  1.00  0.00     0.237 A 
HETATM   23  N   UNL     1      11.819   1.348  -2.641  1.00  0.00    -0.216 NA
BRANCH  21  24
HETATM   24  C   UNL     1      13.615   3.396  -0.316  1.00  0.00     0.059 A 
HETATM   25  C   UNL     1      13.168   4.063   0.834  1.00  0.00     0.031 A 
HETATM   26  C   UNL     1      14.080   4.722   1.662  1.00  0.00     0.002 A 
HETATM   27  C   UNL     1      15.437   4.726   1.344  1.00  0.00     0.000 A 
HETATM   28  C   UNL     1      15.887   4.073   0.198  1.00  0.00     0.002 A 
HETATM   29  C   UNL     1      14.982   3.406  -0.632  1.00  0.00     0.031 A 
ENDBRANCH  21  24
ENDBRANCH   2  19
TORSDOF 6
