REMARK  7 active torsions:
REMARK  status: ('A' for Active; 'I' for Inactive)
REMARK    1  A    between atoms: C_4  and  C_5 
REMARK    2  A    between atoms: C_9  and  C_10 
REMARK    3  A    between atoms: C_10  and  C_11 
REMARK    4  A    between atoms: C_11  and  C_12 
REMARK    5  A    between atoms: C_12  and  O_13 
REMARK    6  A    between atoms: C_18  and  C_19 
REMARK       I    between atoms: C_19  and  N_20 
REMARK    7  A    between atoms: N_20  and  C_21 
ROOT
HETATM    1  C   UNL     1       5.058   2.352  -0.404  1.00  0.00     0.202 A 
HETATM    2  N   UNL     1       4.893   3.270  -1.537  1.00  0.00    -0.083 N 
HETATM    3  C   UNL     1       4.849   4.628  -1.417  1.00  0.00     0.726 A 
HETATM    4  N   UNL     1       4.805   5.172  -2.606  1.00  0.00    -0.046 NA
HETATM    5  C   UNL     1       4.881   4.085  -3.444  1.00  0.00     0.166 A 
HETATM    6  N   UNL     1       4.977   2.895  -2.833  1.00  0.00    -0.140 NA
HETATM    7  N   UNL     1       4.913   5.179  -0.194  1.00  0.00    -0.192 N 
HETATM    8  C   UNL     1       5.132   4.449   0.970  1.00  0.00     0.037 A 
HETATM    9  C   UNL     1       5.298   5.278   2.223  1.00  0.00     0.070 C 
HETATM   10  C   UNL     1       5.217   3.090   0.926  1.00  0.00     0.062 A 
HETATM   11  H   UNL     1       4.910   6.193  -0.120  1.00  0.00     0.184 HD
ENDROOT
BRANCH  10  12
HETATM   12  C   UNL     1       5.396   2.291   2.191  1.00  0.00     0.256 C 
HETATM   13  N   UNL     1       6.013   1.065   2.034  1.00  0.00    -0.323 N 
HETATM   14  H   UNL     1       6.216   0.746   1.102  1.00  0.00     0.169 HD
HETATM   15  O   UNL     1       4.955   2.729   3.248  1.00  0.00    -0.267 OA
BRANCH  13  16
HETATM   16  C   UNL     1       6.340   0.129   3.049  1.00  0.00     0.041 A 
HETATM   17  C   UNL     1       6.766  -1.166   2.670  1.00  0.00    -0.035 A 
HETATM   18  C   UNL     1       6.833  -1.609   1.233  1.00  0.00     0.050 C 
HETATM   19  C   UNL     1       7.110  -2.100   3.665  1.00  0.00     0.009 A 
HETATM   20  C   UNL     1       7.044  -1.764   5.015  1.00  0.00     0.001 A 
HETATM   21  C   UNL     1       6.630  -0.492   5.387  1.00  0.00     0.002 A 
HETATM   22  C   UNL     1       6.281   0.446   4.412  1.00  0.00     0.030 A 
ENDBRANCH  13  16
ENDBRANCH  10  12
BRANCH   1  23
HETATM   23  C   UNL     1       3.951   1.300  -0.422  1.00  0.00    -0.028 A 
HETATM   24  C   UNL     1       2.742   1.473   0.274  1.00  0.00     0.016 A 
HETATM   25  C   UNL     1       1.755   0.477   0.264  1.00  0.00    -0.061 A 
HETATM   26  C   UNL     1       0.480   0.648   1.036  1.00  0.00     0.048 C 
HETATM   27  C   UNL     1       1.970  -0.692  -0.474  1.00  0.00     0.007 A 
HETATM   28  C   UNL     1       3.148  -0.865  -1.195  1.00  0.00     0.001 A 
HETATM   29  C   UNL     1       4.131   0.124  -1.171  1.00  0.00     0.010 A 
ENDBRANCH   1  23
BRANCH   5  30
HETATM   30  C   UNL     1       4.907   4.226  -4.922  1.00  0.00     0.085 C 
BRANCH  30  31
HETATM   31  C   UNL     1       6.319   4.334  -5.494  1.00  0.00     0.034 C 
BRANCH  31  32
HETATM   32  C   UNL     1       7.130   3.053  -5.339  1.00  0.00     0.164 C 
BRANCH  32  33
HETATM   33  O   UNL     1       8.381   3.191  -6.006  1.00  0.00    -0.401 OA
HETATM   34  H   UNL     1       8.195   3.329  -6.951  1.00  0.00     0.209 HD
ENDBRANCH  32  33
ENDBRANCH  31  32
ENDBRANCH  30  31
ENDBRANCH   5  30
TORSDOF 7
