REMARK  8 active torsions:
REMARK  status: ('A' for Active; 'I' for Inactive)
REMARK       I    between atoms: C_2  and  N_3 
REMARK    1  A    between atoms: N_3  and  C_4 
REMARK    2  A    between atoms: C_6  and  N_7 
REMARK       I    between atoms: N_7  and  C_8 
REMARK    3  A    between atoms: C_8  and  C_9 
REMARK       I    between atoms: C_9  and  N_10 
REMARK    4  A    between atoms: N_10  and  C_11 
REMARK    5  A    between atoms: C_11  and  C_12 
REMARK    6  A    between atoms: C_12  and  S_13 
REMARK    7  A    between atoms: S_13  and  C_14 
REMARK    8  A    between atoms: C_16  and  C_17 
ROOT
HETATM    1  C   UNL     1       0.513  -2.659   3.263  1.00  0.00     0.309 C 
HETATM    2  N   UNL     1       0.833  -3.989   3.398  1.00  0.00    -0.352 N 
HETATM    3  O   UNL     1      -0.529  -2.123   3.613  1.00  0.00    -0.262 OA
HETATM    4  H   UNL     1       1.702  -4.282   2.954  1.00  0.00     0.162 HD
ENDROOT
BRANCH   1   5
HETATM    5  C   UNL     1       1.625  -1.822   2.592  1.00  0.00     0.313 C 
HETATM    6  N   UNL     1       1.320  -0.478   2.577  1.00  0.00    -0.319 N 
HETATM    7  H   UNL     1       0.444  -0.245   3.038  1.00  0.00     0.169 HD
HETATM    8  O   UNL     1       2.617  -2.403   2.177  1.00  0.00    -0.262 OA
BRANCH   6   9
HETATM    9  C   UNL     1       2.069   0.572   2.017  1.00  0.00     0.037 A 
HETATM   10  C   UNL     1       3.236   0.384   1.264  1.00  0.00     0.059 A 
HETATM   11  C   UNL     1       3.925   1.479   0.727  1.00  0.00     0.036 A 
HETATM   12  C   UNL     1       3.442   2.772   0.968  1.00  0.00     0.029 A 
HETATM   13  C   UNL     1       2.279   2.967   1.713  1.00  0.00     0.004 A 
HETATM   14  C   UNL     1       1.593   1.870   2.229  1.00  0.00     0.029 A 
BRANCH  11  15
HETATM   15  N   UNL     1       5.098   1.376  -0.053  1.00  0.00    -0.327 N 
HETATM   16  C   UNL     1       5.712   0.224  -0.508  1.00  0.00     0.218 C 
HETATM   17  C   UNL     1       6.974   0.498  -1.290  1.00  0.00     0.117 C 
HETATM   18  O   UNL     1       5.325  -0.929  -0.355  1.00  0.00    -0.274 OA
HETATM   19  H   UNL     1       5.509   2.254  -0.342  1.00  0.00     0.169 HD
ENDBRANCH  11  15
ENDBRANCH   6   9
ENDBRANCH   1   5
BRANCH   2  20
HETATM   20  C   UNL     1      -0.122  -4.992   3.820  1.00  0.00     0.133 C 
BRANCH  20  21
HETATM   21  C   UNL     1      -0.912  -5.598   2.657  1.00  0.00     0.102 C 
BRANCH  21  22
HETATM   22  S   UNL     1       0.202  -6.459   1.494  1.00  0.00    -0.090 SA
BRANCH  22  23
HETATM   23  C   UNL     1      -0.947  -7.177   0.433  1.00  0.00     0.166 A 
HETATM   24  N   UNL     1      -2.247  -7.230   0.571  1.00  0.00    -0.223 NA
HETATM   25  C   UNL     1      -2.699  -7.938  -0.526  1.00  0.00     0.085 A 
HETATM   26  C   UNL     1      -1.636  -8.299  -1.330  1.00  0.00     0.122 A 
HETATM   27  N   UNL     1      -0.526  -7.803  -0.701  1.00  0.00    -0.343 N 
HETATM   28  H   UNL     1       0.436  -7.877  -1.000  1.00  0.00     0.167 HD
BRANCH  25  29
HETATM   29  C   UNL     1      -4.107  -8.237  -0.754  1.00  0.00    -0.006 A 
HETATM   30  C   UNL     1      -5.073  -7.701   0.110  1.00  0.00     0.014 A 
HETATM   31  C   UNL     1      -6.432  -7.971  -0.075  1.00  0.00     0.001 A 
HETATM   32  C   UNL     1      -6.842  -8.783  -1.129  1.00  0.00     0.000 A 
HETATM   33  C   UNL     1      -5.896  -9.325  -1.996  1.00  0.00     0.001 A 
HETATM   34  C   UNL     1      -4.536  -9.053  -1.810  1.00  0.00     0.014 A 
ENDBRANCH  25  29
ENDBRANCH  22  23
ENDBRANCH  21  22
ENDBRANCH  20  21
ENDBRANCH   2  20
TORSDOF 8
