REMARK  7 active torsions:
REMARK  status: ('A' for Active; 'I' for Inactive)
REMARK    1  A    between atoms: C_8  and  C_9 
REMARK    2  A    between atoms: C_9  and  C_10 
REMARK    3  A    between atoms: C_10  and  C_11 
REMARK       I    between atoms: C_11  and  N_12 
REMARK    4  A    between atoms: N_12  and  C_13 
REMARK    5  A    between atoms: C_13  and  C_14 
REMARK    6  A    between atoms: C_14  and  N_15 
REMARK    7  A    between atoms: C_14  and  C_19 
ROOT
HETATM    1  C   UNL     1       3.461  -9.478   1.121  1.00  0.00     0.217 C 
HETATM    2  N   UNL     1       4.311  -8.411   1.299  1.00  0.00    -0.359 N 
HETATM    3  O   UNL     1       2.308  -9.311   0.726  1.00  0.00    -0.274 OA
HETATM    4  H   UNL     1       5.117  -8.569   1.891  1.00  0.00     0.162 HD
ENDROOT
BRANCH   2   5
HETATM    5  C   UNL     1       3.849  -7.025   1.198  1.00  0.00     0.160 C 
BRANCH   5   6
HETATM    6  C   UNL     1       4.246  -6.229  -0.097  1.00  0.00     0.239 C 
BRANCH   6   7
HETATM    7  N   UNL     1       3.587  -6.791  -1.370  1.00  0.00    -0.069 N 
HETATM    8  H   UNL     1       3.860  -6.114  -2.095  1.00  0.00     0.279 HD
HETATM    9  C   UNL     1       4.104  -8.102  -1.878  1.00  0.00     0.270 C 
HETATM   10  C   UNL     1       2.085  -6.730  -1.374  1.00  0.00     0.270 C 
ENDBRANCH   6   7
BRANCH   6  11
HETATM   11  C   UNL     1       5.734  -5.907  -0.298  1.00  0.00    -0.004 A 
HETATM   12  C   UNL     1       6.165  -5.064  -1.349  1.00  0.00     0.042 A 
HETATM   13 CL   UNL     1       5.046  -4.336  -2.453  1.00  0.00    -0.084 Cl
HETATM   14  C   UNL     1       7.519  -4.777  -1.551  1.00  0.00     0.024 A 
HETATM   15  C   UNL     1       8.480  -5.303  -0.696  1.00  0.00     0.002 A 
HETATM   16  C   UNL     1       8.085  -6.104   0.367  1.00  0.00     0.001 A 
HETATM   17  C   UNL     1       6.732  -6.397   0.567  1.00  0.00     0.011 A 
ENDBRANCH   6  11
ENDBRANCH   5   6
ENDBRANCH   2   5
BRANCH   1  18
HETATM   18  C   UNL     1       4.024 -10.877   1.315  1.00  0.00     0.107 C 
BRANCH  18  19
HETATM   19  C   UNL     1       5.461 -10.977   1.814  1.00  0.00     0.052 C 
BRANCH  19  20
HETATM   20  C   UNL     1       5.982 -12.373   1.780  1.00  0.00    -0.008 A 
HETATM   21  C   UNL     1       5.911 -13.336   2.770  1.00  0.00     0.032 A 
HETATM   22  C   UNL     1       5.327 -13.322   4.132  1.00  0.00     0.070 C 
HETATM   23  N   UNL     1       6.531 -14.444   2.261  1.00  0.00    -0.282 N 
HETATM   24  H   UNL     1       6.671 -15.347   2.703  1.00  0.00     0.189 HD
HETATM   25  N   UNL     1       6.997 -14.272   1.017  1.00  0.00    -0.179 NA
HETATM   26  C   UNL     1       6.674 -13.013   0.713  1.00  0.00     0.059 A 
HETATM   27  C   UNL     1       7.043 -12.454  -0.611  1.00  0.00     0.073 C 
ENDBRANCH  19  20
ENDBRANCH  18  19
ENDBRANCH   1  18
TORSDOF 7
