REMARK  8 active torsions:
REMARK  status: ('A' for Active; 'I' for Inactive)
REMARK    1  A    between atoms: C_2  and  O_3 
REMARK    2  A    between atoms: O_3  and  C_4 
REMARK    3  A    between atoms: C_4  and  C_5 
REMARK    4  A    between atoms: C_6  and  C_7 
REMARK    5  A    between atoms: C_7  and  O_8 
REMARK    6  A    between atoms: O_8  and  C_9 
REMARK    7  A    between atoms: C_9  and  C_10 
REMARK       I    between atoms: C_10  and  N_11 
REMARK       I    between atoms: N_11  and  C_12 
REMARK       I    between atoms: C_12  and  N_13 
REMARK    8  A    between atoms: N_13  and  C_14 
ROOT
HETATM    1  C   UNL     1       7.775   1.456  -4.925  1.00  0.00     0.282 C 
ENDROOT
BRANCH   1   2
HETATM    2  O   UNL     1       7.011   1.294  -3.724  1.00  0.00    -0.307 OA
BRANCH   2   3
HETATM    3  C   UNL     1       6.841   2.460  -3.028  1.00  0.00     0.318 C 
HETATM    4  O   UNL     1       7.251   3.552  -3.409  1.00  0.00    -0.257 OA
BRANCH   3   5
HETATM    5  C   UNL     1       6.103   2.220  -1.813  1.00  0.00     0.160 A 
HETATM    6  C   UNL     1       6.035   1.138  -0.941  1.00  0.00     0.018 A 
HETATM    7  C   UNL     1       5.152   1.536   0.113  1.00  0.00     0.009 A 
HETATM    8  C   UNL     1       4.745   2.826  -0.193  1.00  0.00     0.087 A 
HETATM    9  C   UNL     1       4.672   0.954   1.303  1.00  0.00     0.015 A 
HETATM   10  O   UNL     1       5.320   3.242  -1.347  1.00  0.00    -0.303 OA
HETATM   11  C   UNL     1       3.878   3.585   0.589  1.00  0.00     0.038 A 
HETATM   12  C   UNL     1       3.408   2.986   1.761  1.00  0.00     0.003 A 
HETATM   13  C   UNL     1       3.800   1.693   2.116  1.00  0.00     0.001 A 
BRANCH   6  14
HETATM   14  C   UNL     1       6.798  -0.135  -1.033  1.00  0.00     0.210 C 
BRANCH  14  15
HETATM   15  O   UNL     1       8.183   0.115  -0.789  1.00  0.00    -0.387 OA
BRANCH  15  16
HETATM   16  C   UNL     1       8.939  -1.088  -0.699  1.00  0.00     0.163 C 
HETATM   17  C   UNL     1      10.378  -0.723  -0.387  1.00  0.00     0.033 C 
ENDBRANCH  15  16
ENDBRANCH  14  15
ENDBRANCH   6  14
ENDBRANCH   3   5
ENDBRANCH   2   3
ENDBRANCH   1   2
BRANCH   1  18
HETATM   18  C   UNL     1       7.120   2.409  -5.936  1.00  0.00     0.249 C 
HETATM   19  N   UNL     1       7.870   3.381  -6.556  1.00  0.00    -0.277 N 
HETATM   20  C   UNL     1       9.215   3.616  -6.462  1.00  0.00     0.327 C 
HETATM   21  H   UNL     1       7.300   4.086  -6.992  1.00  0.00     0.173 HD
HETATM   22  N   UNL     1       9.647   4.881  -6.745  1.00  0.00    -0.308 N 
HETATM   23  O   UNL     1      10.038   2.780  -6.097  1.00  0.00    -0.247 OA
HETATM   24  H   UNL     1      10.499   5.094  -6.239  1.00  0.00     0.170 HD
HETATM   25  O   UNL     1       5.908   2.354  -6.172  1.00  0.00    -0.271 OA
BRANCH  22  26
HETATM   26  C   UNL     1       9.007   5.953  -7.388  1.00  0.00     0.042 A 
HETATM   27  C   UNL     1       8.295   5.846  -8.595  1.00  0.00    -0.035 A 
HETATM   28  C   UNL     1       8.189   4.582  -9.406  1.00  0.00     0.050 C 
HETATM   29  C   UNL     1       7.710   7.007  -9.140  1.00  0.00     0.015 A 
HETATM   30  C   UNL     1       7.864   8.260  -8.536  1.00  0.00    -0.061 A 
HETATM   31  C   UNL     1       7.293   9.495  -9.168  1.00  0.00     0.048 C 
HETATM   32  C   UNL     1       8.632   8.358  -7.375  1.00  0.00     0.009 A 
HETATM   33  C   UNL     1       9.204   7.216  -6.813  1.00  0.00     0.030 A 
ENDBRANCH  22  26
ENDBRANCH   1  18
TORSDOF 8
