REMARK  11 active torsions:
REMARK  status: ('A' for Active; 'I' for Inactive)
REMARK    1  A    between atoms: C_3  and  C_4 
REMARK    2  A    between atoms: C_4  and  O_5 
REMARK    3  A    between atoms: C_12  and  C_13 
REMARK    4  A    between atoms: C_13  and  C_14 
REMARK    5  A    between atoms: C_15  and  C_16 
REMARK    6  A    between atoms: C_18  and  N_19 
REMARK    7  A    between atoms: N_25  and  C_26 
REMARK    8  A    between atoms: C_26  and  C_27 
REMARK    9  A    between atoms: C_27  and  C_28 
REMARK   10  A    between atoms: C_28  and  N_29 
REMARK   11  A    between atoms: C_38  and  O_39 
ROOT
HETATM    1  C   UNL     1       4.134  -3.547   0.012  1.00  0.00     0.059 C 
HETATM    2  C   UNL     1       3.574  -4.943  -0.123  1.00  0.00     0.161 C 
HETATM    3  N   UNL     1       4.699  -5.658  -0.707  1.00  0.00    -0.333 N 
HETATM    4  C   UNL     1       5.799  -4.835  -0.820  1.00  0.00     0.278 C 
HETATM    5  O   UNL     1       6.932  -5.208  -1.086  1.00  0.00    -0.265 OA
HETATM    6  C   UNL     1       5.373  -3.452  -0.496  1.00  0.00     0.146 C 
ENDROOT
BRANCH   1   7
HETATM    7  C   UNL     1       3.252  -2.560   0.683  1.00  0.00     0.196 C 
HETATM    8  O   UNL     1       2.072  -2.829   0.877  1.00  0.00    -0.287 OA
BRANCH   7   9
HETATM    9  C   UNL     1       3.826  -1.286   1.106  1.00  0.00     0.045 A 
HETATM   10  C   UNL     1       3.217   0.008   0.910  1.00  0.00    -0.013 A 
HETATM   11  C   UNL     1       1.933   0.266   0.188  1.00  0.00     0.052 C 
HETATM   12  C   UNL     1       4.013   0.951   1.554  1.00  0.00     0.115 A 
HETATM   13  N   UNL     1       5.092   0.274   2.072  1.00  0.00    -0.354 N 
HETATM   14  H   UNL     1       5.822   0.730   2.610  1.00  0.00     0.166 HD
HETATM   15  C   UNL     1       4.960  -1.080   1.883  1.00  0.00     0.020 A 
HETATM   16  C   UNL     1       5.930  -2.009   2.527  1.00  0.00     0.069 C 
BRANCH  12  17
HETATM   17  C   UNL     1       3.880   2.378   1.770  1.00  0.00     0.310 C 
HETATM   18  O   UNL     1       4.756   3.072   2.269  1.00  0.00    -0.258 OA
BRANCH  17  19
HETATM   19  O   UNL     1       2.653   2.818   1.389  1.00  0.00    -0.321 OA
HETATM   20  C   UNL     1       2.417   4.200   1.660  1.00  0.00     0.213 C 
ENDBRANCH  17  19
ENDBRANCH  12  17
ENDBRANCH   7   9
ENDBRANCH   1   7
BRANCH   2  21
HETATM   21  C   UNL     1       2.342  -5.093  -1.002  1.00  0.00    -0.028 A 
HETATM   22  C   UNL     1       2.229  -4.450  -2.248  1.00  0.00     0.045 A 
HETATM   23  C   UNL     1       1.061  -4.597  -3.015  1.00  0.00     0.103 A 
HETATM   24  C   UNL     1       0.007  -5.400  -2.567  1.00  0.00     0.036 A 
HETATM   25  C   UNL     1       0.122  -6.054  -1.342  1.00  0.00     0.003 A 
HETATM   26  C   UNL     1       1.276  -5.901  -0.568  1.00  0.00     0.010 A 
BRANCH  23  27
HETATM   27  N   UNL     1       0.951  -3.901  -4.304  1.00  0.00    -0.116 N 
HETATM   28  O   UNL     1       1.941  -3.265  -4.693  1.00  0.00    -0.532 OA
HETATM   29  O   UNL     1      -0.110  -4.010  -4.932  1.00  0.00    -0.532 OA
ENDBRANCH  23  27
ENDBRANCH   2  21
BRANCH   6  30
HETATM   30  O   UNL     1       6.208  -2.391  -0.660  1.00  0.00    -0.355 OA
HETATM   31  H   UNL     1       5.741  -1.557  -0.472  1.00  0.00     0.218 HD
ENDBRANCH   6  30
BRANCH   3  32
HETATM   32  C   UNL     1       4.786  -7.107  -0.683  1.00  0.00     0.129 C 
BRANCH  32  33
HETATM   33  C   UNL     1       4.904  -7.762  -2.064  1.00  0.00     0.048 C 
BRANCH  33  34
HETATM   34  C   UNL     1       6.135  -7.438  -2.919  1.00  0.00     0.236 C 
BRANCH  34  35
HETATM   35  N   UNL     1       7.440  -7.542  -2.180  1.00  0.00    -0.067 N 
HETATM   36  H   UNL     1       7.397  -6.819  -1.432  1.00  0.00     0.280 HD
HETATM   37  C   UNL     1       7.752  -8.903  -1.586  1.00  0.00     0.261 C 
HETATM   38  C   UNL     1       9.082  -8.846  -0.826  1.00  0.00     0.195 C 
HETATM   39  O   UNL     1      10.145  -8.413  -1.680  1.00  0.00    -0.388 OA
HETATM   40  C   UNL     1       9.900  -7.099  -2.198  1.00  0.00     0.195 C 
HETATM   41  C   UNL     1       8.617  -7.075  -3.039  1.00  0.00     0.261 C 
ENDBRANCH  34  35
ENDBRANCH  33  34
ENDBRANCH  32  33
ENDBRANCH   3  32
TORSDOF 11
