REMARK  5 active torsions:
REMARK  status: ('A' for Active; 'I' for Inactive)
REMARK    1  A    between atoms: C_6  and  N_7 
REMARK       I    between atoms: N_7  and  C_8 
REMARK       I    between atoms: C_8  and  N_9 
REMARK    2  A    between atoms: N_9  and  C_10 
REMARK    3  A    between atoms: C_10  and  C_11 
REMARK    4  A    between atoms: C_14  and  N_15 
REMARK       I    between atoms: N_15  and  C_16 
REMARK    5  A    between atoms: C_16  and  C_17 
ROOT
HETATM    1  C   UNL     1       4.946   4.020   0.194  1.00  0.00    -0.040 A 
HETATM    2  C   UNL     1       4.100   4.626  -0.742  1.00  0.00     0.011 A 
HETATM    3  C   UNL     1       3.937   6.015  -0.765  1.00  0.00     0.030 A 
HETATM    4  C   UNL     1       4.627   6.825   0.136  1.00  0.00     0.035 A 
HETATM    5  C   UNL     1       5.470   6.221   1.076  1.00  0.00     0.030 A 
HETATM    6  C   UNL     1       5.630   4.832   1.106  1.00  0.00     0.011 A 
ENDROOT
BRANCH   1   7
HETATM    7  C   UNL     1       5.172   2.532   0.168  1.00  0.00     0.162 C 
BRANCH   7   8
HETATM    8  N   UNL     1       6.384   2.216  -0.555  1.00  0.00    -0.339 N 
HETATM    9  C   UNL     1       6.898   0.999  -0.888  1.00  0.00     0.320 C 
HETATM   10  N   UNL     1       6.040  -0.060  -0.785  1.00  0.00    -0.309 N 
HETATM   11  O   UNL     1       8.068   0.959  -1.253  1.00  0.00    -0.247 OA
HETATM   12  H   UNL     1       5.066   0.167  -0.673  1.00  0.00     0.170 HD
HETATM   13  H   UNL     1       7.088   2.942  -0.617  1.00  0.00     0.164 HD
BRANCH  10  14
HETATM   14  C   UNL     1       6.326  -1.422  -1.024  1.00  0.00     0.037 A 
HETATM   15  C   UNL     1       7.612  -1.926  -1.224  1.00  0.00     0.049 A 
HETATM   16  C   UNL     1       7.810  -3.293  -1.463  1.00  0.00     0.019 A 
HETATM   17  C   UNL     1       6.727  -4.183  -1.506  1.00  0.00    -0.044 A 
HETATM   18 BR   UNL     1       9.599  -3.886  -1.722  1.00  0.00    -0.051 Br
HETATM   19  C   UNL     1       6.898  -5.652  -1.768  1.00  0.00     0.049 C 
HETATM   20  C   UNL     1       5.441  -3.671  -1.290  1.00  0.00     0.010 A 
HETATM   21  C   UNL     1       5.244  -2.308  -1.048  1.00  0.00     0.030 A 
ENDBRANCH  10  14
ENDBRANCH   7   8
ENDBRANCH   1   7
BRANCH   4  22
HETATM   22  N   UNL     1       4.555   8.230   0.145  1.00  0.00    -0.321 N 
HETATM   23  C   UNL     1       3.801   9.058  -0.669  1.00  0.00     0.279 C 
HETATM   24  O   UNL     1       2.990   8.685  -1.510  1.00  0.00    -0.265 OA
HETATM   25  H   UNL     1       5.147   8.719   0.808  1.00  0.00     0.169 HD
BRANCH  23  26
HETATM   26  C   UNL     1       4.067  10.466  -0.429  1.00  0.00     0.142 A 
HETATM   27  O   UNL     1       4.999  10.827   0.513  1.00  0.00    -0.317 OA
HETATM   28  C   UNL     1       5.060  12.184   0.514  1.00  0.00     0.143 A 
HETATM   29  C   UNL     1       4.182  12.709  -0.405  1.00  0.00     0.027 A 
HETATM   30  C   UNL     1       3.541  11.603  -1.012  1.00  0.00     0.045 A 
ENDBRANCH  23  26
ENDBRANCH   4  22
TORSDOF 5
