REMARK  5 active torsions:
REMARK  status: ('A' for Active; 'I' for Inactive)
REMARK    1  A    between atoms: C_5  and  C_6 
REMARK       I    between atoms: C_6  and  N_7 
REMARK    2  A    between atoms: N_7  and  C_8 
REMARK    3  A    between atoms: C_8  and  C_9 
REMARK    4  A    between atoms: C_11  and  N_12 
REMARK    5  A    between atoms: N_12  and  C_13 
ROOT
HETATM    1  C   UNL     1       7.514  -1.238   0.281  1.00  0.00     0.161 C 
ENDROOT
BRANCH   1   2
HETATM    2  N   UNL     1       6.629  -2.378   0.263  1.00  0.00    -0.353 N 
HETATM    3  C   UNL     1       6.072  -2.855  -0.905  1.00  0.00     0.255 C 
HETATM    4  O   UNL     1       6.359  -2.385  -2.002  1.00  0.00    -0.268 OA
HETATM    5  H   UNL     1       6.331  -2.775   1.148  1.00  0.00     0.163 HD
BRANCH   3   6
HETATM    6  C   UNL     1       5.105  -3.984  -0.803  1.00  0.00     0.071 A 
HETATM    7  C   UNL     1       4.788  -4.610   0.407  1.00  0.00     0.138 A 
HETATM    8  C   UNL     1       3.867  -5.663   0.463  1.00  0.00    -0.022 A 
HETATM    9  F   UNL     1       5.373  -4.210   1.550  1.00  0.00    -0.204 F 
HETATM   10  C   UNL     1       3.558  -6.344   1.764  1.00  0.00     0.051 C 
HETATM   11  C   UNL     1       3.278  -6.113  -0.725  1.00  0.00     0.010 A 
HETATM   12  C   UNL     1       3.587  -5.501  -1.940  1.00  0.00     0.002 A 
HETATM   13  C   UNL     1       4.493  -4.440  -1.980  1.00  0.00     0.020 A 
ENDBRANCH   3   6
ENDBRANCH   1   2
BRANCH   1  14
HETATM   14  C   UNL     1       8.929  -1.645  -0.057  1.00  0.00    -0.036 A 
HETATM   15  C   UNL     1       9.362  -1.647  -1.390  1.00  0.00     0.057 A 
HETATM   16  C   UNL     1      10.648  -2.080  -1.717  1.00  0.00     0.101 A 
HETATM   17  N   UNL     1      11.436  -2.526  -0.729  1.00  0.00    -0.353 N 
HETATM   18  H   UNL     1      12.345  -2.891  -0.996  1.00  0.00     0.166 HD
HETATM   19  C   UNL     1      11.067  -2.544   0.559  1.00  0.00     0.090 A 
HETATM   20  C   UNL     1       9.804  -2.102   0.928  1.00  0.00     0.026 A 
BRANCH  16  21
HETATM   21  N   UNL     1      11.062  -2.167  -3.052  1.00  0.00    -0.372 N 
HETATM   22  H   UNL     1      10.613  -1.459  -3.637  1.00  0.00     0.161 HD
BRANCH  21  23
HETATM   23  C   UNL     1      12.434  -2.510  -3.421  1.00  0.00     0.083 A 
HETATM   24  C   UNL     1      12.930  -3.928  -3.373  1.00  0.00     0.027 A 
HETATM   25  C   UNL     1      12.686  -3.263  -4.696  1.00  0.00     0.027 A 
ENDBRANCH  21  23
ENDBRANCH  16  21
ENDBRANCH   1  14
TORSDOF 5
