REMARK  2 active torsions:
REMARK  status: ('A' for Active; 'I' for Inactive)
REMARK       I    between atoms: N_4  and  C_5 
REMARK       I    between atoms: C_5  and  N_6 
REMARK    1  A    between atoms: N_6  and  C_7 
REMARK    2  A    between atoms: C_20  and  C_21 
ROOT
HETATM    1  C   UNL     1       2.695  -0.489  -1.044  1.00  0.00     0.011 C 
HETATM    2  C   UNL     1       2.495  -0.353   0.462  1.00  0.00     0.002 C 
HETATM    3  C   UNL     1       3.098   0.934   1.014  1.00  0.00     0.132 C 
HETATM    4  N   UNL     1       4.430   0.580   1.481  1.00  0.00    -0.325 N 
HETATM    5  C   UNL     1       5.397   1.444   1.959  1.00  0.00     0.323 C 
HETATM    6  N   UNL     1       5.039   2.773   1.922  1.00  0.00    -0.309 N 
HETATM    7  O   UNL     1       6.485   1.039   2.359  1.00  0.00    -0.247 OA
HETATM    8  C   UNL     1       4.607  -0.872   1.577  1.00  0.00     0.125 C 
HETATM    9  C   UNL     1       3.210  -1.441   1.270  1.00  0.00     0.036 C 
HETATM   10  H   UNL     1       4.058   2.966   2.049  1.00  0.00     0.170 HD
ENDROOT
BRANCH   6  11
HETATM   11  C   UNL     1       5.918   3.871   2.013  1.00  0.00     0.038 A 
HETATM   12  C   UNL     1       7.287   3.766   1.743  1.00  0.00     0.062 A 
HETATM   13  C   UNL     1       8.098   4.902   1.786  1.00  0.00     0.070 A 
HETATM   14  C   UNL     1       7.557   6.145   2.110  1.00  0.00     0.096 A 
HETATM   15  N   UNL     1       9.446   4.789   1.451  1.00  0.00    -0.323 N 
HETATM   16  O   UNL     1       8.279   7.305   2.143  1.00  0.00    -0.335 OA
HETATM   17  C   UNL     1       6.193   6.256   2.372  1.00  0.00     0.041 A 
HETATM   18  C   UNL     1       9.695   7.144   2.093  1.00  0.00     0.217 C 
HETATM   19  C   UNL     1      10.286   5.865   1.481  1.00  0.00     0.251 C 
HETATM   20  C   UNL     1      10.241   7.307   3.509  1.00  0.00     0.050 C 
HETATM   21  O   UNL     1      11.454   5.775   1.108  1.00  0.00    -0.270 OA
HETATM   22  C   UNL     1       5.374   5.124   2.316  1.00  0.00     0.032 A 
HETATM   23  H   UNL     1       9.830   3.911   1.126  1.00  0.00     0.169 HD
ENDBRANCH   6  11
BRANCH   8  24
HETATM   24  C   UNL     1       5.683  -1.471   0.692  1.00  0.00     0.003 A 
HETATM   25  C   UNL     1       6.092  -2.788   0.944  1.00  0.00     0.124 A 
HETATM   26  F   UNL     1       5.508  -3.487   1.929  1.00  0.00    -0.205 F 
HETATM   27  C   UNL     1       7.095  -3.403   0.198  1.00  0.00     0.043 A 
HETATM   28  C   UNL     1       7.716  -2.700  -0.830  1.00  0.00     0.003 A 
HETATM   29  C   UNL     1       7.327  -1.390  -1.104  1.00  0.00     0.001 A 
HETATM   30  C   UNL     1       6.319  -0.780  -0.350  1.00  0.00     0.012 A 
ENDBRANCH   8  24
TORSDOF 2
