REMARK  4 active torsions:
REMARK  status: ('A' for Active; 'I' for Inactive)
REMARK    1  A    between atoms: C_9  and  C_10 
REMARK       I    between atoms: C_10  and  N_11 
REMARK    2  A    between atoms: N_11  and  N_12 
REMARK       I    between atoms: N_12  and  C_13 
REMARK    3  A    between atoms: C_13  and  C_14 
REMARK    4  A    between atoms: C_14  and  C_15 
ROOT
HETATM    1  C   UNL     1      11.702   2.842   0.567  1.00  0.00     0.291 C 
HETATM    2  N   UNL     1      10.549   3.243  -0.082  1.00  0.00    -0.262 N 
HETATM    3  O   UNL     1      12.512   3.645   1.030  1.00  0.00    -0.264 OA
HETATM    4  H   UNL     1       9.834   2.547  -0.307  1.00  0.00     0.190 HD
ENDROOT
BRANCH   2   5
HETATM    5  N   UNL     1      10.188   4.593  -0.078  1.00  0.00    -0.267 N 
HETATM    6  C   UNL     1       8.839   4.903  -0.105  1.00  0.00     0.236 C 
HETATM    7  O   UNL     1       7.970   4.052  -0.262  1.00  0.00    -0.272 OA
HETATM    8  H   UNL     1      10.887   5.244   0.275  1.00  0.00     0.190 HD
BRANCH   6   9
HETATM    9  C   UNL     1       8.589   6.395   0.062  1.00  0.00     0.114 C 
BRANCH   9  10
HETATM   10  C   UNL     1       7.122   6.878   0.042  1.00  0.00    -0.031 C 
HETATM   11  C   UNL     1       6.296   6.276   1.208  1.00  0.00     0.014 C 
HETATM   12  C   UNL     1       4.858   6.826   1.197  1.00  0.00    -0.013 C 
HETATM   13  C   UNL     1       4.192   6.477  -0.145  1.00  0.00     0.009 C 
HETATM   14  C   UNL     1       4.896   8.354   1.362  1.00  0.00     0.009 C 
HETATM   15  C   UNL     1       4.979   7.106  -1.306  1.00  0.00    -0.013 C 
HETATM   16  C   UNL     1       6.417   6.558  -1.301  1.00  0.00     0.014 C 
HETATM   17  C   UNL     1       5.016   8.631  -1.127  1.00  0.00     0.009 C 
HETATM   18  C   UNL     1       5.690   8.985   0.208  1.00  0.00    -0.013 C 
HETATM   19  C   UNL     1       7.122   8.426   0.215  1.00  0.00     0.014 C 
ENDBRANCH   9  10
ENDBRANCH   6   9
ENDBRANCH   2   5
BRANCH   1  20
HETATM   20  C   UNL     1      11.846   1.383   0.650  1.00  0.00     0.158 A 
HETATM   21  C   UNL     1      12.924   0.649   1.229  1.00  0.00     0.029 A 
HETATM   22  C   UNL     1      14.136   0.964   1.876  1.00  0.00     0.023 A 
HETATM   23  C   UNL     1      12.589  -0.687   1.051  1.00  0.00     0.063 A 
HETATM   24  C   UNL     1      14.968  -0.074   2.331  1.00  0.00    -0.061 A 
HETATM   25  C   UNL     1      16.274   0.240   3.003  1.00  0.00     0.048 C 
HETATM   26  C   UNL     1      14.597  -1.408   2.120  1.00  0.00     0.009 A 
HETATM   27  C   UNL     1      13.398  -1.743   1.479  1.00  0.00     0.032 A 
HETATM   28  N   UNL     1      11.383  -0.675   0.408  1.00  0.00    -0.277 N 
HETATM   29  H   UNL     1      10.834  -1.476   0.116  1.00  0.00     0.189 HD
HETATM   30  N   UNL     1      10.904   0.554   0.150  1.00  0.00    -0.168 NA
ENDBRANCH   1  20
TORSDOF 4
