REMARK  7 active torsions:
REMARK  status: ('A' for Active; 'I' for Inactive)
REMARK    1  A    between atoms: C_2  and  O_3 
REMARK    2  A    between atoms: O_3  and  C_4 
REMARK    3  A    between atoms: C_7  and  C_8 
REMARK       I    between atoms: C_8  and  N_9 
REMARK    4  A    between atoms: N_9  and  N_10 
REMARK       I    between atoms: N_10  and  C_11 
REMARK    5  A    between atoms: C_11  and  C_12 
REMARK    6  A    between atoms: C_14  and  C_15 
REMARK    7  A    between atoms: C_22  and  C_23 
ROOT
HETATM    1  N   UNL     1       8.403   5.129  -2.095  1.00  0.00    -0.262 N 
HETATM    2  C   UNL     1       9.001   6.359  -2.286  1.00  0.00     0.291 C 
HETATM    3  O   UNL     1       8.375   7.411  -2.147  1.00  0.00    -0.264 OA
HETATM    4  H   UNL     1       8.895   4.256  -2.285  1.00  0.00     0.190 HD
ENDROOT
BRANCH   2   5
HETATM    5  C   UNL     1      10.399   6.283  -2.678  1.00  0.00     0.159 A 
HETATM    6  N   UNL     1      11.056   5.079  -2.915  1.00  0.00    -0.216 NA
HETATM    7  C   UNL     1      12.275   5.440  -3.272  1.00  0.00     0.180 A 
HETATM    8  O   UNL     1      12.474   6.793  -3.279  1.00  0.00    -0.293 OA
HETATM    9  C   UNL     1      11.275   7.330  -2.900  1.00  0.00     0.094 A 
BRANCH   7  10
HETATM   10  C   UNL     1      13.414   4.615  -3.668  1.00  0.00     0.017 A 
HETATM   11  C   UNL     1      13.278   3.221  -3.734  1.00  0.00     0.016 A 
HETATM   12  C   UNL     1      14.353   2.415  -4.120  1.00  0.00     0.001 A 
HETATM   13  C   UNL     1      15.579   2.993  -4.444  1.00  0.00     0.000 A 
HETATM   14  C   UNL     1      15.732   4.376  -4.382  1.00  0.00     0.001 A 
HETATM   15  C   UNL     1      14.657   5.182  -3.996  1.00  0.00     0.016 A 
ENDBRANCH   7  10
BRANCH   9  16
HETATM   16  C   UNL     1      11.019   8.821  -2.772  1.00  0.00     0.046 A 
HETATM   17  C   UNL     1      12.170   9.699  -2.326  1.00  0.00     0.012 A 
HETATM   18  C   UNL     1      11.724   9.743  -3.746  1.00  0.00     0.012 A 
ENDBRANCH   9  16
ENDBRANCH   2   5
BRANCH   1  19
HETATM   19  N   UNL     1       7.022   5.093  -1.891  1.00  0.00    -0.263 N 
HETATM   20  C   UNL     1       6.383   3.881  -1.746  1.00  0.00     0.270 C 
HETATM   21  O   UNL     1       6.964   2.801  -1.753  1.00  0.00    -0.266 OA
HETATM   22  H   UNL     1       6.569   5.992  -1.736  1.00  0.00     0.190 HD
BRANCH  20  23
HETATM   23  C   UNL     1       4.908   3.959  -1.560  1.00  0.00     0.033 A 
HETATM   24  C   UNL     1       4.150   4.978  -2.153  1.00  0.00     0.020 A 
HETATM   25  C   UNL     1       2.763   5.026  -1.968  1.00  0.00     0.038 A 
HETATM   26  C   UNL     1       2.123   4.053  -1.199  1.00  0.00     0.068 A 
HETATM   27  C   UNL     1       2.881   3.034  -0.615  1.00  0.00     0.038 A 
HETATM   28  C   UNL     1       4.267   2.978  -0.799  1.00  0.00     0.020 A 
BRANCH  26  29
HETATM   29  O   UNL     1       0.780   3.987  -0.949  1.00  0.00    -0.352 OA
BRANCH  29  30
HETATM   30  C   UNL     1      -0.052   4.931  -1.624  1.00  0.00     0.171 C 
HETATM   31  C   UNL     1      -1.497   4.623  -1.276  1.00  0.00     0.034 C 
ENDBRANCH  29  30
ENDBRANCH  26  29
ENDBRANCH  20  23
ENDBRANCH   1  19
TORSDOF 7
