REMARK  6 active torsions:
REMARK  status: ('A' for Active; 'I' for Inactive)
REMARK       I    between atoms: N_2  and  C_3 
REMARK    1  A    between atoms: C_3  and  C_4 
REMARK    2  A    between atoms: C_6  and  C_7 
REMARK    3  A    between atoms: C_7  and  C_8 
REMARK    4  A    between atoms: C_8  and  C_9 
REMARK       I    between atoms: C_9  and  N_10 
REMARK    5  A    between atoms: N_10  and  C_11 
REMARK    6  A    between atoms: C_13  and  C_14 
ROOT
HETATM    1  C   UNL     1       4.921  -7.676   0.151  1.00  0.00     0.222 C 
HETATM    2  N   UNL     1       4.618  -8.408  -0.952  1.00  0.00    -0.327 N 
HETATM    3  O   UNL     1       5.509  -8.276   1.062  1.00  0.00    -0.273 OA
HETATM    4  H   UNL     1       4.902  -9.370  -0.795  1.00  0.00     0.169 HD
ENDROOT
BRANCH   1   5
HETATM    5  C   UNL     1       4.568  -6.218   0.331  1.00  0.00     0.108 C 
BRANCH   5   6
HETATM    6  C   UNL     1       3.069  -5.945   0.463  1.00  0.00     0.048 C 
BRANCH   6   7
HETATM    7  C   UNL     1       2.397  -6.197   1.798  1.00  0.00    -0.057 A 
HETATM    8  C   UNL     1       2.932  -7.019   2.799  1.00  0.00     0.024 A 
HETATM    9  C   UNL     1       2.213  -7.286   3.975  1.00  0.00     0.032 A 
HETATM   10  C   UNL     1       0.966  -6.684   4.176  1.00  0.00     0.017 A 
HETATM   11  C   UNL     1       0.427  -5.854   3.196  1.00  0.00     0.002 A 
HETATM   12  C   UNL     1       1.131  -5.625   2.014  1.00  0.00     0.007 A 
BRANCH   9  13
HETATM   13  C   UNL     1       2.731  -8.205   5.028  1.00  0.00     0.251 C 
HETATM   14  N   UNL     1       3.614  -9.182   4.615  1.00  0.00    -0.361 N 
HETATM   15  C   UNL     1       4.072 -10.194   5.532  1.00  0.00     0.149 C 
HETATM   16  H   UNL     1       3.770  -9.335   3.627  1.00  0.00     0.162 HD
HETATM   17  O   UNL     1       2.337  -8.102   6.185  1.00  0.00    -0.268 OA
ENDBRANCH   9  13
ENDBRANCH   6   7
ENDBRANCH   5   6
ENDBRANCH   1   5
BRANCH   2  18
HETATM   18  C   UNL     1       4.023  -8.161  -2.201  1.00  0.00     0.035 A 
HETATM   19  C   UNL     1       3.672  -6.911  -2.712  1.00  0.00     0.042 A 
HETATM   20  C   UNL     1       3.033  -6.789  -3.961  1.00  0.00    -0.021 A 
HETATM   21  C   UNL     1       2.775  -7.940  -4.713  1.00  0.00     0.012 A 
HETATM   22  C   UNL     1       3.152  -9.190  -4.232  1.00  0.00     0.003 A 
HETATM   23  C   UNL     1       3.771  -9.296  -2.987  1.00  0.00     0.029 A 
BRANCH  20  24
HETATM   24  C   UNL     1       2.614  -5.491  -4.463  1.00  0.00     0.010 A 
HETATM   25  C   UNL     1       1.512  -5.129  -5.274  1.00  0.00     0.152 A 
HETATM   26  N   UNL     1       1.464  -3.820  -5.529  1.00  0.00    -0.187 NA
HETATM   27  N   UNL     1       2.540  -3.336  -4.888  1.00  0.00    -0.289 N 
HETATM   28  H   UNL     1       2.723  -2.339  -4.943  1.00  0.00     0.188 HD
HETATM   29  C   UNL     1       3.260  -4.294  -4.233  1.00  0.00     0.123 A 
ENDBRANCH  20  24
ENDBRANCH   2  18
TORSDOF 6
