REMARK  8 active torsions:
REMARK  status: ('A' for Active; 'I' for Inactive)
REMARK    1  A    between atoms: C_3  and  C_4 
REMARK       I    between atoms: C_4  and  N_5 
REMARK    2  A    between atoms: N_5  and  C_6 
REMARK    3  A    between atoms: C_8  and  C_9 
REMARK    4  A    between atoms: C_9  and  C_10 
REMARK    5  A    between atoms: C_10  and  N_11 
REMARK    6  A    between atoms: C_21  and  O_22 
REMARK    7  A    between atoms: O_22  and  C_23 
REMARK    8  A    between atoms: C_23  and  C_24 
ROOT
HETATM    1  C   UNL     1       5.624  -4.109  -3.189  1.00  0.00     0.259 C 
HETATM    2  N   UNL     1       4.395  -4.071  -2.554  1.00  0.00    -0.323 N 
HETATM    3  O   UNL     1       6.405  -3.165  -3.263  1.00  0.00    -0.267 OA
HETATM    4  H   UNL     1       3.844  -4.920  -2.613  1.00  0.00     0.169 HD
ENDROOT
BRANCH   2   5
HETATM    5  C   UNL     1       3.844  -2.995  -1.820  1.00  0.00     0.035 A 
HETATM    6  C   UNL     1       2.588  -3.183  -1.220  1.00  0.00     0.036 A 
HETATM    7  C   UNL     1       1.980  -2.171  -0.447  1.00  0.00    -0.054 A 
HETATM    8  C   UNL     1       2.673  -0.966  -0.268  1.00  0.00     0.007 A 
HETATM    9  C   UNL     1       3.911  -0.766  -0.872  1.00  0.00     0.003 A 
HETATM   10  C   UNL     1       4.489  -1.772  -1.644  1.00  0.00     0.029 A 
BRANCH   7  11
HETATM   11  C   UNL     1       0.652  -2.450   0.225  1.00  0.00     0.066 C 
BRANCH  11  12
HETATM   12  C   UNL     1      -0.197  -1.203   0.512  1.00  0.00     0.239 C 
BRANCH  12  13
HETATM   13  N   UNL     1      -1.510  -1.559   1.183  1.00  0.00    -0.071 N 
HETATM   14  H   UNL     1      -1.983  -2.262   0.599  1.00  0.00     0.279 HD
HETATM   15  C   UNL     1      -2.444  -0.362   1.293  1.00  0.00     0.235 C 
HETATM   16  C   UNL     1      -2.384   0.020   2.756  1.00  0.00     0.029 C 
HETATM   17  C   UNL     1      -2.325  -1.327   3.444  1.00  0.00     0.029 C 
HETATM   18  C   UNL     1      -1.351  -2.120   2.591  1.00  0.00     0.235 C 
ENDBRANCH  12  13
ENDBRANCH  11  12
ENDBRANCH   7  11
ENDBRANCH   2   5
BRANCH   1  19
HETATM   19  C   UNL     1       6.032  -5.408  -3.829  1.00  0.00     0.065 A 
HETATM   20  C   UNL     1       7.287  -5.414  -4.471  1.00  0.00     0.020 A 
HETATM   21  C   UNL     1       7.778  -6.558  -5.099  1.00  0.00     0.001 A 
HETATM   22  C   UNL     1       7.015  -7.718  -5.107  1.00  0.00     0.003 A 
HETATM   23  C   UNL     1       5.769  -7.733  -4.480  1.00  0.00     0.038 A 
HETATM   24  C   UNL     1       5.279  -6.597  -3.814  1.00  0.00     0.084 A 
BRANCH  24  25
HETATM   25  O   UNL     1       4.033  -6.609  -3.238  1.00  0.00    -0.348 OA
BRANCH  25  26
HETATM   26  C   UNL     1       3.766  -7.727  -2.378  1.00  0.00     0.207 C 
BRANCH  26  27
HETATM   27  C   UNL     1       2.365  -8.289  -2.662  1.00  0.00     0.145 C 
HETATM   28  O   UNL     1       2.083  -9.332  -1.710  1.00  0.00    -0.384 OA
HETATM   29  C   UNL     1       2.035 -10.591  -2.402  1.00  0.00     0.168 C 
HETATM   30  C   UNL     1       2.599 -10.356  -3.785  1.00  0.00     0.029 C 
HETATM   31  C   UNL     1       2.212  -8.920  -4.039  1.00  0.00     0.036 C 
ENDBRANCH  26  27
ENDBRANCH  25  26
ENDBRANCH  24  25
ENDBRANCH   1  19
TORSDOF 8
