REMARK  4 active torsions:
REMARK  status: ('A' for Active; 'I' for Inactive)
REMARK    1  A    between atoms: C_6  and  N_7 
REMARK       I    between atoms: N_7  and  C_8 
REMARK    2  A    between atoms: C_8  and  C_9 
REMARK    3  A    between atoms: C_10  and  C_11 
REMARK    4  A    between atoms: C_14  and  O_15 
ROOT
HETATM    1  C   UNL     1       6.717  -2.345  -0.984  1.00  0.00     0.062 C 
HETATM    2  C   UNL     1       7.533  -3.578  -0.615  1.00  0.00     0.202 C 
HETATM    3  N   UNL     1       6.656  -4.745  -0.455  1.00  0.00    -0.084 N 
HETATM    4  C   UNL     1       5.339  -4.771  -0.832  1.00  0.00     0.725 A 
HETATM    5  N   UNL     1       4.776  -3.660  -1.348  1.00  0.00    -0.192 N 
HETATM    6  N   UNL     1       7.012  -5.893   0.158  1.00  0.00    -0.149 NA
HETATM    7  C   UNL     1       5.883  -6.600   0.031  1.00  0.00     0.275 A 
HETATM    8  N   UNL     1       4.832  -5.947  -0.563  1.00  0.00    -0.054 NA
HETATM    9  C   UNL     1       5.418  -2.426  -1.361  1.00  0.00     0.037 C 
HETATM   10  C   UNL     1       4.585  -1.252  -1.808  1.00  0.00     0.070 C 
HETATM   11  H   UNL     1       3.787  -3.682  -1.581  1.00  0.00     0.184 HD
ENDROOT
BRANCH   1  12
HETATM   12  C   UNL     1       7.427  -1.052  -0.831  1.00  0.00     0.256 C 
HETATM   13  N   UNL     1       6.917  -0.307   0.214  1.00  0.00    -0.323 N 
HETATM   14  H   UNL     1       6.123  -0.699   0.701  1.00  0.00     0.169 HD
HETATM   15  O   UNL     1       8.362  -0.779  -1.568  1.00  0.00    -0.267 OA
BRANCH  13  16
HETATM   16  C   UNL     1       7.383   0.939   0.696  1.00  0.00     0.041 A 
HETATM   17  C   UNL     1       6.697   1.555   1.766  1.00  0.00    -0.035 A 
HETATM   18  C   UNL     1       7.166   2.781   2.275  1.00  0.00     0.015 A 
HETATM   19  C   UNL     1       5.473   0.946   2.398  1.00  0.00     0.050 C 
HETATM   20  C   UNL     1       8.290   3.412   1.732  1.00  0.00    -0.061 A 
HETATM   21  C   UNL     1       8.804   4.696   2.310  1.00  0.00     0.048 C 
HETATM   22  C   UNL     1       8.963   2.793   0.679  1.00  0.00     0.009 A 
HETATM   23  C   UNL     1       8.510   1.574   0.165  1.00  0.00     0.030 A 
ENDBRANCH  13  16
ENDBRANCH   1  12
BRANCH   2  24
HETATM   24  C   UNL     1       8.641  -3.899  -1.612  1.00  0.00    -0.028 A 
HETATM   25  C   UNL     1       9.979  -3.899  -1.194  1.00  0.00     0.012 A 
HETATM   26  C   UNL     1      11.006  -4.185  -2.098  1.00  0.00     0.037 A 
HETATM   27  C   UNL     1      10.722  -4.477  -3.433  1.00  0.00     0.068 A 
HETATM   28  C   UNL     1       9.395  -4.479  -3.860  1.00  0.00     0.037 A 
HETATM   29  C   UNL     1       8.363  -4.192  -2.959  1.00  0.00     0.012 A 
BRANCH  27  30
HETATM   30  O   UNL     1      11.819  -4.739  -4.207  1.00  0.00    -0.356 OA
HETATM   31  C   UNL     1      11.581  -5.031  -5.578  1.00  0.00     0.210 C 
ENDBRANCH  27  30
ENDBRANCH   2  24
TORSDOF 4
