REMARK  5 active torsions:
REMARK  status: ('A' for Active; 'I' for Inactive)
REMARK    1  A    between atoms: C_3  and  C_4 
REMARK    2  A    between atoms: O_11  and  C_12 
REMARK    3  A    between atoms: C_13  and  B_25 
REMARK    4  A    between atoms: B_25  and  O_26 
REMARK    5  A    between atoms: B_25  and  O_27 
ROOT
HETATM    1  C           1       0.318   0.356   0.390  0.00  0.00     0.077 A 
HETATM    2  C           1      -0.096  -1.539  -0.777  0.00  0.00     0.069 A 
HETATM    3  C           1      -0.699  -2.032  -1.880  0.00  0.00     0.035 A 
HETATM    4  C           1       0.049  -4.120  -1.355  0.00  0.00     0.062 A 
HETATM    5  C           1       1.227  -4.744   0.259  0.00  0.00     0.153 A 
HETATM    6  C           1       1.102  -1.737   1.140  0.00  0.00    -0.036 A 
HETATM    7  N           1      -0.194  -0.294  -0.573  0.00  0.00    -0.247 NA
HETATM    8  C           1      -0.641  -3.338  -2.187  0.00  0.00     0.034 A 
HETATM    9  N           1       0.286  -5.364  -1.394  0.00  0.00    -0.278 N 
HETATM   10  N           1       0.980  -5.762  -0.455  0.00  0.00    -0.186 NA
HETATM   11  C           1       0.650  -3.647  -0.256  0.00  0.00     0.024 A 
HETATM   12  C           1       0.580  -2.345   0.064  0.00  0.00     0.014 A 
HETATM   13  C           1       1.834  -2.404   2.276  0.00  0.00     0.040 C 
HETATM   14  C           1       1.733  -1.346   3.381  0.00  0.00     0.009 C 
HETATM   15  C           1       1.621  -0.017   2.616  0.00  0.00     0.042 C 
HETATM   16  C           1       0.979  -0.404   1.299  0.00  0.00    -0.021 A 
HETATM   17  H           1      -0.044  -6.025  -2.132  0.00  0.00     0.189 HD
ENDROOT
BRANCH   1  18
HETATM   18  C           1       0.114   1.709   0.378  0.00  0.00     0.026 A 
HETATM   19  C           1       0.802   2.522   1.211  0.00  0.00     0.016 A 
HETATM   20  C           1       0.708   3.859   1.235  0.00  0.00     0.001 A 
HETATM   21  C           1      -0.092   4.470   0.359  0.00  0.00     0.003 A 
HETATM   22  C           1      -0.786   3.701  -0.483  0.00  0.00     0.002 A 
HETATM   23  C           1      -0.752   2.351  -0.464  0.00  0.00     0.081 A 
BRANCH  22  24
HETATM   24  B           1      -1.701   4.423  -1.567  0.00  0.00     0.532 B 
BRANCH  24  25
HETATM   25  O           1      -1.155   4.619  -3.097  0.00  0.00    -0.433 OA
HETATM   26  H           1      -0.901   3.801  -3.484  0.00  0.00     0.185 HD
ENDBRANCH  24  25
BRANCH  24  27
HETATM   27  O           1      -3.227   4.894  -1.182  0.00  0.00    -0.433 OA
HETATM   28  H           1      -3.640   5.352  -1.893  0.00  0.00     0.185 HD
ENDBRANCH  24  27
ENDBRANCH  22  24
BRANCH  23  29
HETATM   29  O           1      -1.537   1.763  -1.430  0.00  0.00    -0.355 OA
HETATM   30  C           1      -2.756   1.230  -0.958  0.00  0.00     0.210 C 
ENDBRANCH  23  29
ENDBRANCH   1  18
TORSDOF 5
