REMARK  11 active torsions:
REMARK  status: ('A' for Active; 'I' for Inactive)
REMARK    1  A    between atoms: C_3  and  O_4 
REMARK    2  A    between atoms: O_4  and  C_5 
REMARK    3  A    between atoms: C_10  and  C_11 
REMARK    4  A    between atoms: C_11  and  C_12 
REMARK    5  A    between atoms: C_13  and  C_14 
REMARK    6  A    between atoms: C_17  and  O_18 
REMARK    7  A    between atoms: N_21  and  C_22 
REMARK    8  A    between atoms: C_22  and  C_23 
REMARK    9  A    between atoms: C_23  and  C_24 
REMARK   10  A    between atoms: C_24  and  N_25 
REMARK   11  A    between atoms: C_34  and  O_35 
ROOT
HETATM    1  C   UNL     1       6.752  -2.390  -1.006  1.00  0.00     0.059 A 
HETATM    2  C   UNL     1       7.536  -3.675  -0.916  1.00  0.00     0.161 A 
HETATM    3  N   UNL     1       8.724  -3.324  -1.679  1.00  0.00    -0.333 N 
HETATM    4  C   UNL     1       8.735  -1.997  -2.029  1.00  0.00     0.278 A 
HETATM    5  O   UNL     1       9.620  -1.444  -2.664  1.00  0.00    -0.265 OA
HETATM    6  C   UNL     1       7.426  -1.417  -1.641  1.00  0.00     0.146 A 
ENDROOT
BRANCH   1   7
HETATM    7  C   UNL     1       5.341  -2.441  -0.559  1.00  0.00     0.193 C 
HETATM    8  O   UNL     1       4.757  -3.519  -0.530  1.00  0.00    -0.287 OA
BRANCH   7   9
HETATM    9  C   UNL     1       4.603  -1.196  -0.257  1.00  0.00     0.015 A 
HETATM   10  C   UNL     1       5.180  -0.139   0.454  1.00  0.00     0.018 A 
HETATM   11  C   UNL     1       4.480   1.062   0.590  1.00  0.00     0.038 A 
HETATM   12  C   UNL     1       3.207   1.200   0.029  1.00  0.00     0.075 A 
HETATM   13  C   UNL     1       2.582   0.111  -0.596  1.00  0.00    -0.028 A 
HETATM   14  C   UNL     1       1.166   0.210  -1.092  1.00  0.00     0.051 C 
HETATM   15  C   UNL     1       3.292  -1.087  -0.736  1.00  0.00     0.025 A 
BRANCH  12  16
HETATM   16  O   UNL     1       2.504   2.372   0.098  1.00  0.00    -0.346 OA
BRANCH  16  17
HETATM   17  C   UNL     1       3.185   3.529  -0.420  1.00  0.00     0.121 C 
HETATM   18  C   UNL     1       3.513   3.385  -1.909  1.00  0.00     0.040 C 
HETATM   19  C   UNL     1       2.238   4.710  -0.221  1.00  0.00     0.040 C 
ENDBRANCH  16  17
ENDBRANCH  12  16
ENDBRANCH   7   9
ENDBRANCH   1   7
BRANCH   2  20
HETATM   20  C   UNL     1       7.860  -4.100   0.505  1.00  0.00    -0.030 A 
HETATM   21  C   UNL     1       7.098  -5.115   1.111  1.00  0.00     0.012 A 
HETATM   22  C   UNL     1       7.368  -5.538   2.415  1.00  0.00     0.037 A 
HETATM   23  C   UNL     1       8.404  -4.943   3.124  1.00  0.00     0.065 A 
HETATM   24  C   UNL     1       9.162  -3.928   2.556  1.00  0.00     0.037 A 
HETATM   25  C   UNL     1       8.888  -3.500   1.255  1.00  0.00     0.012 A 
BRANCH  23  26
HETATM   26  O   UNL     1       8.712  -5.327   4.394  1.00  0.00    -0.361 OA
HETATM   27  H   UNL     1       8.087  -6.015   4.679  1.00  0.00     0.217 HD
ENDBRANCH  23  26
ENDBRANCH   2  20
BRANCH   6  28
HETATM   28  O   UNL     1       7.049  -0.179  -2.067  1.00  0.00    -0.355 OA
HETATM   29  H   UNL     1       6.112  -0.010  -1.874  1.00  0.00     0.218 HD
ENDBRANCH   6  28
BRANCH   3  30
HETATM   30  C   UNL     1       9.734  -4.288  -2.075  1.00  0.00     0.129 C 
BRANCH  30  31
HETATM   31  C   UNL     1       9.547  -4.834  -3.496  1.00  0.00     0.048 C 
BRANCH  31  32
HETATM   32  C   UNL     1       9.503  -3.823  -4.647  1.00  0.00     0.236 C 
BRANCH  32  33
HETATM   33  N   UNL     1      10.632  -2.831  -4.641  1.00  0.00    -0.067 N 
HETATM   34  H   UNL     1      10.575  -2.315  -3.738  1.00  0.00     0.280 HD
HETATM   35  C   UNL     1      12.020  -3.424  -4.795  1.00  0.00     0.261 C 
HETATM   36  C   UNL     1      13.071  -2.310  -4.737  1.00  0.00     0.195 C 
HETATM   37  O   UNL     1      12.828  -1.317  -5.738  1.00  0.00    -0.388 OA
HETATM   38  C   UNL     1      11.551  -0.693  -5.555  1.00  0.00     0.195 C 
HETATM   39  C   UNL     1      10.422  -1.724  -5.677  1.00  0.00     0.261 C 
ENDBRANCH  32  33
ENDBRANCH  31  32
ENDBRANCH  30  31
ENDBRANCH   3  30
TORSDOF 11
