REMARK  6 active torsions:
REMARK  status: ('A' for Active; 'I' for Inactive)
REMARK    1  A    between atoms: C_2  and  N_3 
REMARK    2  A    between atoms: N_3  and  C_5 
REMARK    3  A    between atoms: C_5  and  C_6 
REMARK    4  A    between atoms: C_6  and  N_7 
REMARK       I    between atoms: N_7  and  C_8 
REMARK    5  A    between atoms: C_8  and  C_9 
REMARK    6  A    between atoms: C_10  and  C_11 
ROOT
HETATM    1  N   UNL     1       0.518  -0.771   4.305  1.00  0.00    -0.354 N 
HETATM    2  C   UNL     1      -0.527  -1.641   4.050  1.00  0.00     0.255 C 
HETATM    3  O   UNL     1      -0.928  -1.811   2.903  1.00  0.00    -0.268 OA
HETATM    4  H   UNL     1       0.825  -0.648   5.261  1.00  0.00     0.162 HD
ENDROOT
BRANCH   2   5
HETATM    5  C   UNL     1      -1.065  -2.334   5.213  1.00  0.00     0.080 A 
HETATM    6  C   UNL     1      -1.967  -3.452   5.266  1.00  0.00     0.104 A 
HETATM    7  N   UNL     1      -2.256  -3.772   6.539  1.00  0.00    -0.174 NA
HETATM    8  N   UNL     1      -1.567  -2.908   7.282  1.00  0.00    -0.288 N 
HETATM    9  H   UNL     1      -1.651  -2.973   8.292  1.00  0.00     0.188 HD
HETATM   10  C   UNL     1      -0.833  -2.028   6.546  1.00  0.00     0.128 A 
BRANCH   6  11
HETATM   11  C   UNL     1      -2.569  -4.237   4.185  1.00  0.00    -0.002 A 
HETATM   12  C   UNL     1      -1.819  -4.668   3.087  1.00  0.00     0.056 A 
HETATM   13  C   UNL     1      -2.422  -5.432   2.093  1.00  0.00     0.117 A 
HETATM   14  F   UNL     1      -1.692  -5.829   1.041  1.00  0.00    -0.206 F 
HETATM   15  C   UNL     1      -3.761  -5.798   2.172  1.00  0.00     0.042 A 
HETATM   16  C   UNL     1      -4.514  -5.392   3.270  1.00  0.00     0.004 A 
HETATM   17  C   UNL     1      -3.921  -4.618   4.271  1.00  0.00     0.014 A 
ENDBRANCH   6  11
ENDBRANCH   2   5
BRANCH   1  18
HETATM   18  C   UNL     1       1.118   0.022   3.253  1.00  0.00     0.162 C 
BRANCH  18  19
HETATM   19  C   UNL     1       2.392  -0.567   2.562  1.00  0.00     0.143 C 
HETATM   20  C   UNL     1       2.283  -2.037   2.099  1.00  0.00     0.041 C 
HETATM   21  C   UNL     1       2.646  -2.910   3.295  1.00  0.00     0.003 C 
HETATM   22  C   UNL     1       3.444  -2.021   4.237  1.00  0.00     0.003 C 
HETATM   23  C   UNL     1       3.588  -0.674   3.533  1.00  0.00     0.041 C 
BRANCH  19  24
HETATM   24  N   UNL     1       2.791   0.319   1.326  1.00  0.00    -0.065 N 
HETATM   25  H   UNL     1       3.724  -0.002   1.033  1.00  0.00     0.280 HD
HETATM   26  C   UNL     1       1.899   0.072   0.109  1.00  0.00     0.270 C 
BRANCH  24  27
HETATM   27  C   UNL     1       2.901   1.826   1.528  1.00  0.00     0.231 C 
HETATM   28  C   UNL     1       4.030   2.227   2.452  1.00  0.00     0.034 C 
ENDBRANCH  24  27
ENDBRANCH  19  24
ENDBRANCH  18  19
ENDBRANCH   1  18
TORSDOF 6
