REMARK  5 active torsions:
REMARK  status: ('A' for Active; 'I' for Inactive)
REMARK    1  A    between atoms: N_1  and  C_5 
REMARK    2  A    between atoms: C_5  and  C_6 
REMARK    3  A    between atoms: C_6  and  C_7 
REMARK    4  A    between atoms: C_6  and  C_20 
REMARK       I    between atoms: C_7  and  N_9 
REMARK    5  A    between atoms: N_9  and  C_10 
ROOT
HETATM    1  C   UNL     1       2.071  -1.734  -1.647  1.00  0.00     0.232 C 
HETATM    2  O   UNL     1       1.431  -2.784  -1.568  1.00  0.00    -0.272 OA
HETATM    3  N   UNL     1       2.184  -0.919  -2.754  1.00  0.00    -0.327 N 
HETATM    4  H   UNL     1       2.939  -0.238  -2.762  1.00  0.00     0.169 HD
ENDROOT
BRANCH   1   5
HETATM    5  C   UNL     1       2.890  -1.270  -0.446  1.00  0.00     0.136 C 
BRANCH   5   6
HETATM    6  C   UNL     1       2.469  -2.076   0.802  1.00  0.00     0.248 C 
BRANCH   6   7
HETATM    7  N   UNL     1       2.702  -3.542   0.641  1.00  0.00    -0.078 N 
HETATM    8  H   UNL     1       2.175  -3.869  -0.193  1.00  0.00     0.274 HD
HETATM    9  H   UNL     1       3.694  -3.769   0.495  1.00  0.00     0.274 HD
HETATM   10  H   UNL     1       2.361  -4.082   1.445  1.00  0.00     0.274 HD
ENDBRANCH   6   7
ENDBRANCH   5   6
BRANCH   5  11
HETATM   11  C   UNL     1       4.396  -1.328  -0.648  1.00  0.00    -0.043 A 
HETATM   12  C   UNL     1       5.210  -0.451   0.090  1.00  0.00     0.008 A 
HETATM   13  C   UNL     1       6.598  -0.491  -0.038  1.00  0.00     0.001 A 
HETATM   14  C   UNL     1       7.193  -1.404  -0.903  1.00  0.00     0.000 A 
HETATM   15  C   UNL     1       6.400  -2.279  -1.642  1.00  0.00     0.001 A 
HETATM   16  C   UNL     1       5.010  -2.246  -1.516  1.00  0.00     0.008 A 
ENDBRANCH   5  11
ENDBRANCH   1   5
BRANCH   3  17
HETATM   17  C   UNL     1       1.445  -1.015  -3.953  1.00  0.00     0.035 A 
HETATM   18  C   UNL     1       1.899  -0.272  -5.047  1.00  0.00     0.030 A 
HETATM   19  C   UNL     1       1.206  -0.298  -6.261  1.00  0.00     0.016 A 
HETATM   20  C   UNL     1       0.030  -1.052  -6.390  1.00  0.00    -0.008 A 
HETATM   21  C   UNL     1      -0.715  -1.102  -7.572  1.00  0.00     0.128 A 
HETATM   22  C   UNL     1      -0.447  -1.792  -5.291  1.00  0.00    -0.021 A 
HETATM   23  N   UNL     1      -1.861  -1.802  -7.724  1.00  0.00    -0.272 NA
HETATM   24  C   UNL     1      -2.297  -2.491  -6.651  1.00  0.00     0.117 A 
HETATM   25  C   UNL     1      -1.635  -2.520  -5.433  1.00  0.00     0.031 A 
HETATM   26  C   UNL     1       0.275  -1.771  -4.081  1.00  0.00     0.042 A 
ENDBRANCH   3  17
TORSDOF 5
