REMARK  7 active torsions:
REMARK  status: ('A' for Active; 'I' for Inactive)
REMARK       I    between atoms: N_2  and  C_3 
REMARK    1  A    between atoms: C_3  and  C_4 
REMARK    2  A    between atoms: C_4  and  O_5 
REMARK    3  A    between atoms: O_5  and  C_6 
REMARK    4  A    between atoms: C_9  and  N_10 
REMARK    5  A    between atoms: N_10  and  C_11 
REMARK    6  A    between atoms: C_14  and  C_15 
REMARK    7  A    between atoms: C_18  and  O_19 
ROOT
HETATM    1  C   UNL     1      -2.184   4.600  -6.658  1.00  0.00     0.161 A 
HETATM    2  N   UNL     1      -2.652   5.565  -5.842  1.00  0.00    -0.131 NA
HETATM    3  N   UNL     1      -2.588   6.886  -6.187  1.00  0.00    -0.147 NA
HETATM    4  C   UNL     1      -2.078   7.255  -7.381  1.00  0.00     0.100 A 
HETATM    5  C   UNL     1      -1.632   6.301  -8.315  1.00  0.00     0.009 A 
HETATM    6  C   UNL     1      -1.693   4.933  -7.946  1.00  0.00     0.024 A 
HETATM    7  C   UNL     1      -1.148   6.638  -9.606  1.00  0.00     0.015 A 
HETATM    8  C   UNL     1      -0.720   5.665 -10.509  1.00  0.00     0.001 A 
HETATM    9  C   UNL     1      -0.780   4.328 -10.154  1.00  0.00     0.001 A 
HETATM   10  C   UNL     1      -1.265   3.967  -8.896  1.00  0.00     0.016 A 
ENDROOT
BRANCH   1  11
HETATM   11  N   UNL     1      -2.260   3.232  -6.268  1.00  0.00    -0.339 N 
HETATM   12  H   UNL     1      -1.403   2.767  -6.552  1.00  0.00     0.167 HD
BRANCH  11  13
HETATM   13  C   UNL     1      -2.657   2.677  -5.028  1.00  0.00     0.033 A 
HETATM   14  C   UNL     1      -2.985   1.315  -4.999  1.00  0.00     0.032 A 
HETATM   15  C   UNL     1      -3.338   0.682  -3.803  1.00  0.00     0.039 A 
HETATM   16  C   UNL     1      -3.357   1.393  -2.604  1.00  0.00     0.069 A 
HETATM   17  C   UNL     1      -3.029   2.747  -2.618  1.00  0.00     0.039 A 
HETATM   18  C   UNL     1      -2.677   3.379  -3.820  1.00  0.00     0.032 A 
BRANCH  16  19
HETATM   19  O   UNL     1      -3.701   0.659  -1.503  1.00  0.00    -0.342 OA
BRANCH  19  20
HETATM   20  C   UNL     1      -3.678   1.338  -0.248  1.00  0.00     0.278 C 
BRANCH  20  21
HETATM   21  C   UNL     1      -3.994   0.385   0.905  1.00  0.00     0.241 C 
HETATM   22  N   UNL     1      -4.417  -0.867   0.515  1.00  0.00    -0.364 N 
HETATM   23  C   UNL     1      -4.655  -1.920   1.466  1.00  0.00     0.149 C 
HETATM   24  H   UNL     1      -4.328  -1.088  -0.472  1.00  0.00     0.161 HD
HETATM   25  O   UNL     1      -3.886   0.726   2.081  1.00  0.00    -0.271 OA
ENDBRANCH  20  21
ENDBRANCH  19  20
ENDBRANCH  16  19
ENDBRANCH  11  13
ENDBRANCH   1  11
BRANCH   4  26
HETATM   26  C   UNL     1      -2.046   8.712  -7.581  1.00  0.00    -0.005 A 
HETATM   27  C   UNL     1      -0.831   9.405  -7.744  1.00  0.00     0.016 A 
HETATM   28  C   UNL     1      -0.809  10.792  -7.915  1.00  0.00     0.037 A 
HETATM   29  C   UNL     1      -2.006  11.500  -7.913  1.00  0.00     0.065 A 
HETATM   30  C   UNL     1      -3.218  10.845  -7.740  1.00  0.00     0.037 A 
HETATM   31  C   UNL     1      -3.237   9.459  -7.570  1.00  0.00     0.016 A 
BRANCH  29  32
HETATM   32  O   UNL     1      -2.032  12.853  -8.071  1.00  0.00    -0.361 OA
HETATM   33  H   UNL     1      -1.119  13.178  -8.131  1.00  0.00     0.217 HD
ENDBRANCH  29  32
ENDBRANCH   4  26
TORSDOF 7
