REMARK  9 active torsions:
REMARK  status: ('A' for Active; 'I' for Inactive)
REMARK    1  A    between atoms: O_2  and  C_3 
REMARK    2  A    between atoms: C_5  and  C_15 
REMARK    3  A    between atoms: C_8  and  C_9 
REMARK       I    between atoms: C_15  and  N_17 
REMARK    4  A    between atoms: N_17  and  C_18 
REMARK    5  A    between atoms: C_18  and  C_19 
REMARK    6  A    between atoms: C_23  and  C_25 
REMARK       I    between atoms: C_25  and  N_27 
REMARK    7  A    between atoms: N_27  and  C_28 
REMARK    8  A    between atoms: C_28  and  C_29 
REMARK    9  A    between atoms: C_29  and  O_32 
ROOT
HETATM    1  C   UNL     1       3.085   4.023   3.055  1.00  0.00     0.252 C 
HETATM    2  O   UNL     1       3.304   4.430   4.190  1.00  0.00    -0.268 OA
HETATM    3  N   UNL     1       2.771   4.854   2.002  1.00  0.00    -0.353 N 
HETATM    4  H   UNL     1       2.860   4.506   1.057  1.00  0.00     0.163 HD
ENDROOT
BRANCH   3   5
HETATM    5  C   UNL     1       2.761   6.288   2.176  1.00  0.00     0.161 C 
BRANCH   5   6
HETATM    6  C   UNL     1       1.864   6.939   1.155  1.00  0.00    -0.040 A 
HETATM    7  C   UNL     1       2.385   7.815   0.193  1.00  0.00     0.009 A 
HETATM    8  C   UNL     1       1.547   8.403  -0.756  1.00  0.00     0.002 A 
HETATM    9  C   UNL     1       0.180   8.125  -0.749  1.00  0.00     0.017 A 
HETATM   10  C   UNL     1      -0.360   7.267   0.216  1.00  0.00     0.032 A 
HETATM   11  C   UNL     1       0.485   6.668   1.158  1.00  0.00     0.026 A 
BRANCH  10  12
HETATM   12  C   UNL     1      -1.825   7.007   0.185  1.00  0.00     0.251 C 
HETATM   13  O   UNL     1      -2.447   7.121  -0.866  1.00  0.00    -0.268 OA
HETATM   14  N   UNL     1      -2.421   6.678   1.383  1.00  0.00    -0.354 N 
HETATM   15  H   UNL     1      -1.893   6.702   2.244  1.00  0.00     0.162 HD
BRANCH  14  16
HETATM   16  C   UNL     1      -3.854   6.441   1.491  1.00  0.00     0.159 C 
BRANCH  16  17
HETATM   17  C   UNL     1      -4.646   7.695   1.927  1.00  0.00     0.066 C 
HETATM   18  C   UNL     1      -4.604   8.818   0.888  1.00  0.00     0.047 C 
HETATM   19  C   UNL     1      -6.099   7.310   2.214  1.00  0.00     0.047 C 
BRANCH  17  20
HETATM   20  O   UNL     1      -4.090   8.190   3.155  1.00  0.00    -0.389 OA
HETATM   21  H   UNL     1      -3.227   8.582   2.932  1.00  0.00     0.210 HD
ENDBRANCH  17  20
ENDBRANCH  16  17
ENDBRANCH  14  16
ENDBRANCH  10  12
ENDBRANCH   5   6
ENDBRANCH   3   5
BRANCH   1  22
HETATM   22  C   UNL     1       3.183   2.570   2.749  1.00  0.00     0.034 A 
HETATM   23  C   UNL     1       2.449   1.977   1.712  1.00  0.00     0.054 A 
HETATM   24  C   UNL     1       2.566   0.603   1.452  1.00  0.00     0.080 A 
HETATM   25  C   UNL     1       3.443  -0.188   2.229  1.00  0.00     0.010 A 
HETATM   26  C   UNL     1       4.149   0.419   3.283  1.00  0.00     0.016 A 
HETATM   27  C   UNL     1       4.017   1.783   3.545  1.00  0.00     0.018 A 
BRANCH  24  28
HETATM   28  O   UNL     1       1.896  -0.021   0.428  1.00  0.00    -0.355 OA
HETATM   29  C   UNL     1       0.722   0.610  -0.069  1.00  0.00     0.210 C 
ENDBRANCH  24  28
BRANCH  25  30
HETATM   30  C   UNL     1       3.616  -1.618   1.993  1.00  0.00     0.013 A 
HETATM   31  C   UNL     1       2.712  -2.609   1.544  1.00  0.00     0.152 A 
HETATM   32  N   UNL     1       3.266  -3.823   1.465  1.00  0.00    -0.187 NA
HETATM   33  N   UNL     1       4.534  -3.612   1.848  1.00  0.00    -0.289 N 
HETATM   34  H   UNL     1       5.169  -4.403   1.861  1.00  0.00     0.188 HD
HETATM   35  C   UNL     1       4.794  -2.314   2.178  1.00  0.00     0.123 A 
ENDBRANCH  25  30
ENDBRANCH   1  22
TORSDOF 9
