REMARK  4 active torsions:
REMARK  status: ('A' for Active; 'I' for Inactive)
REMARK    1  A    between atoms: C_7  and  C_8 
REMARK    2  A    between atoms: C_8  and  N_9 
REMARK    3  A    between atoms: N_9  and  C_10 
REMARK    4  A    between atoms: N_16  and  C_17 
ROOT
HETATM    1  C   UNL     1       2.374   6.828  -0.027  1.00  0.00     0.141 A 
HETATM    2  N   UNL     1       3.425   7.540  -0.506  1.00  0.00    -0.224 NA
HETATM    3  C   UNL     1       3.341   8.886  -0.528  1.00  0.00     0.237 A 
HETATM    4  N   UNL     1       2.314   9.652  -0.146  1.00  0.00    -0.221 NA
HETATM    5  C   UNL     1       1.269   8.926   0.302  1.00  0.00     0.186 A 
HETATM    6  C   UNL     1       1.238   7.542   0.383  1.00  0.00     0.077 A 
HETATM    7  N   UNL     1       0.037   9.378   0.768  1.00  0.00    -0.041 N 
HETATM    8  N   UNL     1      -0.770   8.326   1.143  1.00  0.00    -0.162 NA
HETATM    9  C   UNL     1      -0.036   7.243   0.894  1.00  0.00     0.159 A 
ENDROOT
BRANCH   1  10
HETATM   10  N   UNL     1       2.427   5.442   0.015  1.00  0.00    -0.367 N 
HETATM   11  H   UNL     1       1.736   5.009   0.613  1.00  0.00     0.161 HD
BRANCH  10  12
HETATM   12  C   UNL     1       3.737   4.797   0.063  1.00  0.00     0.199 C 
BRANCH  12  13
HETATM   13  C   UNL     1       4.337   4.465  -1.265  1.00  0.00     0.123 A 
HETATM   14  N   UNL     1       4.532   5.431  -2.220  1.00  0.00    -0.341 N 
HETATM   15  C   UNL     1       5.107   4.847  -3.317  1.00  0.00     0.063 A 
HETATM   16  H   UNL     1       4.267   6.401  -2.106  1.00  0.00     0.167 HD
HETATM   17  C   UNL     1       5.226   3.505  -2.969  1.00  0.00     0.091 A 
HETATM   18  C   UNL     1       5.514   5.364  -4.547  1.00  0.00     0.032 A 
HETATM   19  C   UNL     1       5.777   2.591  -3.889  1.00  0.00    -0.031 A 
HETATM   20  N   UNL     1       4.751   3.289  -1.694  1.00  0.00    -0.231 NA
HETATM   21  C   UNL     1       5.928   1.127  -3.598  1.00  0.00     0.050 C 
HETATM   22  C   UNL     1       6.194   3.101  -5.136  1.00  0.00     0.009 A 
HETATM   23  C   UNL     1       6.066   4.456  -5.454  1.00  0.00     0.003 A 
ENDBRANCH  12  13
ENDBRANCH  10  12
ENDBRANCH   1  10
BRANCH   7  24
HETATM   24  C   UNL     1      -0.415  10.740   0.879  1.00  0.00     0.750 A 
HETATM   25  N   UNL     1       0.410  11.737   0.491  1.00  0.00    -0.073 NA
HETATM   26  C   UNL     1      -0.053  12.996   0.610  1.00  0.00     0.138 A 
HETATM   27  C   UNL     1      -1.300  13.303   1.098  1.00  0.00     0.040 A 
HETATM   28  C   UNL     1      -2.070  12.230   1.468  1.00  0.00     0.138 A 
HETATM   29  N   UNL     1      -1.659  10.953   1.371  1.00  0.00    -0.073 NA
ENDBRANCH   7  24
TORSDOF 4
