REMARK  5 active torsions:
REMARK  status: ('A' for Active; 'I' for Inactive)
REMARK    1  A    between atoms: C_3  and  C_4 
REMARK    2  A    between atoms: C_15  and  C_16 
REMARK       I    between atoms: C_16  and  N_17 
REMARK    3  A    between atoms: N_17  and  C_18 
REMARK    4  A    between atoms: C_18  and  C_19 
REMARK    5  A    between atoms: C_22  and  O_23 
ROOT
HETATM    1  C   UNL     1       0.852  -0.143  -0.568  1.00  0.00     0.055 C 
HETATM    2  C   UNL     1       2.337  -0.002  -0.418  1.00  0.00     0.024 A 
HETATM    3  C   UNL     1       3.049   1.139  -0.418  1.00  0.00     0.096 A 
HETATM    4  O   UNL     1       4.412   1.227  -0.220  1.00  0.00    -0.307 OA
HETATM    5  C   UNL     1       5.156   0.083  -0.089  1.00  0.00     0.106 A 
HETATM    6  C   UNL     1       4.553  -1.176  -0.127  1.00  0.00     0.050 A 
HETATM    7  C   UNL     1       3.089  -1.270  -0.251  1.00  0.00     0.193 A 
HETATM    8  O   UNL     1       2.522  -2.357  -0.225  1.00  0.00    -0.287 OA
HETATM    9  C   UNL     1       6.548   0.183   0.079  1.00  0.00     0.066 A 
HETATM   10  C   UNL     1       7.308  -1.000   0.155  1.00  0.00     0.020 A 
HETATM   11  C   UNL     1       6.700  -2.254   0.094  1.00  0.00     0.002 A 
HETATM   12  C   UNL     1       5.318  -2.344  -0.036  1.00  0.00     0.018 A 
ENDROOT
BRANCH   9  13
HETATM   13  C   UNL     1       7.300   1.472   0.241  1.00  0.00     0.254 C 
HETATM   14  N   UNL     1       6.569   2.629   0.373  1.00  0.00    -0.353 N 
HETATM   15  H   UNL     1       5.570   2.613   0.219  1.00  0.00     0.163 HD
HETATM   16  O   UNL     1       8.526   1.457   0.300  1.00  0.00    -0.268 OA
BRANCH  14  17
HETATM   17  C   UNL     1       7.178   3.903   0.665  1.00  0.00     0.161 C 
BRANCH  17  18
HETATM   18  C   UNL     1       7.194   4.807  -0.538  1.00  0.00    -0.040 A 
HETATM   19  C   UNL     1       6.038   5.485  -0.943  1.00  0.00     0.011 A 
HETATM   20  C   UNL     1       6.079   6.355  -2.035  1.00  0.00     0.037 A 
HETATM   21  C   UNL     1       7.267   6.564  -2.738  1.00  0.00     0.068 A 
HETATM   22  C   UNL     1       8.413   5.862  -2.362  1.00  0.00     0.037 A 
HETATM   23  C   UNL     1       8.374   4.985  -1.272  1.00  0.00     0.011 A 
BRANCH  21  24
HETATM   24  O   UNL     1       7.179   7.462  -3.766  1.00  0.00    -0.356 OA
HETATM   25  C   UNL     1       8.406   7.882  -4.349  1.00  0.00     0.210 C 
ENDBRANCH  21  24
ENDBRANCH  17  18
ENDBRANCH  14  17
ENDBRANCH   9  13
BRANCH   3  26
HETATM   26  C   UNL     1       2.442   2.458  -0.647  1.00  0.00    -0.002 A 
HETATM   27  C   UNL     1       2.269   3.354   0.414  1.00  0.00     0.014 A 
HETATM   28  C   UNL     1       1.712   4.614   0.184  1.00  0.00     0.001 A 
HETATM   29  C   UNL     1       1.330   4.985  -1.106  1.00  0.00     0.000 A 
HETATM   30  C   UNL     1       1.505   4.100  -2.168  1.00  0.00     0.001 A 
HETATM   31  C   UNL     1       2.062   2.841  -1.941  1.00  0.00     0.014 A 
ENDBRANCH   3  26
TORSDOF 5
