REMARK  5 active torsions:
REMARK  status: ('A' for Active; 'I' for Inactive)
REMARK    1  A    between atoms: O_2  and  C_3 
REMARK    2  A    between atoms: C_5  and  C_15 
REMARK    3  A    between atoms: C_8  and  C_9 
REMARK       I    between atoms: C_15  and  N_17 
REMARK    4  A    between atoms: N_17  and  C_18 
REMARK    5  A    between atoms: C_18  and  C_19 
ROOT
HETATM    1  C   UNL     1       3.052   0.858   1.071  1.00  0.00     0.080 A 
HETATM    2  C   UNL     1       2.743   2.225   1.148  1.00  0.00     0.054 A 
HETATM    3  C   UNL     1       3.454   3.070   2.012  1.00  0.00     0.034 A 
HETATM    4  C   UNL     1       4.453   2.542   2.831  1.00  0.00     0.018 A 
HETATM    5  C   UNL     1       4.773   1.186   2.753  1.00  0.00     0.016 A 
HETATM    6  C   UNL     1       4.095   0.331   1.866  1.00  0.00     0.010 A 
ENDROOT
BRANCH   3   7
HETATM    7  C   UNL     1       3.169   4.529   2.091  1.00  0.00     0.252 C 
HETATM    8  O   UNL     1       3.398   5.152   3.120  1.00  0.00    -0.268 OA
HETATM    9  N   UNL     1       2.683   5.110   0.940  1.00  0.00    -0.353 N 
HETATM   10  H   UNL     1       2.807   4.609   0.069  1.00  0.00     0.163 HD
BRANCH   9  11
HETATM   11  C   UNL     1       2.532   6.543   0.835  1.00  0.00     0.163 C 
BRANCH  11  12
HETATM   12  C   UNL     1       1.504   6.905  -0.208  1.00  0.00    -0.019 A 
HETATM   13  C   UNL     1       0.272   7.439   0.208  1.00  0.00     0.012 A 
HETATM   14  C   UNL     1      -0.715   7.775  -0.722  1.00  0.00     0.020 A 
HETATM   15  C   UNL     1      -0.481   7.572  -2.079  1.00  0.00     0.012 A 
HETATM   16 BR   UNL     1      -1.820   8.016  -3.337  1.00  0.00    -0.051 Br
HETATM   17  C   UNL     1       0.728   7.040  -2.516  1.00  0.00     0.043 A 
HETATM   18  C   UNL     1       1.716   6.709  -1.584  1.00  0.00     0.043 A 
HETATM   19 CL   UNL     1       3.187   6.030  -2.187  1.00  0.00    -0.084 Cl
ENDBRANCH  11  12
ENDBRANCH   9  11
ENDBRANCH   3   7
BRANCH   1  20
HETATM   20  O   UNL     1       2.415  -0.007   0.217  1.00  0.00    -0.355 OA
HETATM   21  C   UNL     1       1.185   0.412  -0.360  1.00  0.00     0.210 C 
ENDBRANCH   1  20
BRANCH   6  22
HETATM   22  C   UNL     1       4.477  -1.077   1.809  1.00  0.00     0.013 A 
HETATM   23  C   UNL     1       3.711  -2.246   1.590  1.00  0.00     0.152 A 
HETATM   24  N   UNL     1       4.446  -3.362   1.612  1.00  0.00    -0.187 NA
HETATM   25  N   UNL     1       5.690  -2.911   1.829  1.00  0.00    -0.289 N 
HETATM   26  H   UNL     1       6.445  -3.588   1.876  1.00  0.00     0.188 HD
HETATM   27  C   UNL     1       5.764  -1.555   1.958  1.00  0.00     0.123 A 
ENDBRANCH   6  22
TORSDOF 5
