REMARK  5 active torsions:
REMARK  status: ('A' for Active; 'I' for Inactive)
REMARK    1  A    between atoms: C_2  and  C_3 
REMARK    2  A    between atoms: C_3  and  N_4 
REMARK       I    between atoms: N_4  and  C_5 
REMARK    3  A    between atoms: C_5  and  C_6 
REMARK    4  A    between atoms: C_10  and  N_11 
REMARK       I    between atoms: N_11  and  C_12 
REMARK       I    between atoms: C_12  and  N_13 
REMARK    5  A    between atoms: N_13  and  C_14 
ROOT
HETATM    1  C   UNL     1       3.960   3.755   1.587  1.00  0.00     0.053 A 
HETATM    2  C   UNL     1       4.515   5.030   1.749  1.00  0.00     0.051 A 
HETATM    3 CL   UNL     1       4.066   6.394   0.781  1.00  0.00    -0.083 Cl
HETATM    4  C   UNL     1       5.453   5.268   2.767  1.00  0.00     0.054 A 
HETATM    5  C   UNL     1       5.847   4.244   3.632  1.00  0.00     0.038 A 
HETATM    6  C   UNL     1       5.285   2.975   3.478  1.00  0.00     0.030 A 
HETATM    7  C   UNL     1       4.349   2.733   2.468  1.00  0.00     0.021 A 
ENDROOT
BRANCH   5   8
HETATM    8  N   UNL     1       6.751   4.424   4.698  1.00  0.00    -0.309 N 
HETATM    9  C   UNL     1       7.552   5.509   4.937  1.00  0.00     0.325 C 
HETATM   10  N   UNL     1       8.195   5.535   6.146  1.00  0.00    -0.306 N 
HETATM   11  O   UNL     1       7.774   6.418   4.141  1.00  0.00    -0.247 OA
HETATM   12  H   UNL     1       8.905   6.256   6.197  1.00  0.00     0.171 HD
HETATM   13  H   UNL     1       6.990   3.599   5.229  1.00  0.00     0.170 HD
BRANCH  10  14
HETATM   14  C   UNL     1       7.915   4.859   7.317  1.00  0.00     0.072 A 
HETATM   15  C   UNL     1       6.843   4.031   7.719  1.00  0.00     0.169 A 
HETATM   16  N   UNL     1       6.986   3.576   8.967  1.00  0.00    -0.185 NA
HETATM   17  N   UNL     1       8.125   4.151   9.384  1.00  0.00    -0.287 N 
HETATM   18  H   UNL     1       8.439   3.965  10.332  1.00  0.00     0.188 HD
HETATM   19  C   UNL     1       8.713   4.937   8.436  1.00  0.00     0.140 A 
ENDBRANCH  10  14
ENDBRANCH   5   8
BRANCH   1  20
HETATM   20  C   UNL     1       2.934   3.388   0.571  1.00  0.00     0.253 C 
HETATM   21  N   UNL     1       3.017   3.990  -0.665  1.00  0.00    -0.356 N 
HETATM   22  H   UNL     1       3.633   4.789  -0.754  1.00  0.00     0.162 HD
HETATM   23  O   UNL     1       2.085   2.548   0.856  1.00  0.00    -0.268 OA
BRANCH  21  24
HETATM   24  C   UNL     1       1.949   3.850  -1.637  1.00  0.00     0.126 C 
BRANCH  24  25
HETATM   25  C   UNL     1       2.427   4.046  -3.082  1.00  0.00    -0.005 C 
HETATM   26  C   UNL     1       2.927   5.469  -3.339  1.00  0.00     0.011 C 
HETATM   27  C   UNL     1       1.290   3.717  -4.051  1.00  0.00     0.011 C 
ENDBRANCH  24  25
ENDBRANCH  21  24
ENDBRANCH   1  20
TORSDOF 5
