REMARK  5 active torsions:
REMARK  status: ('A' for Active; 'I' for Inactive)
REMARK    1  A    between atoms: C_3  and  N_4 
REMARK       I    between atoms: N_4  and  C_5 
REMARK       I    between atoms: C_5  and  N_6 
REMARK    2  A    between atoms: N_6  and  C_7 
REMARK    3  A    between atoms: C_7  and  C_8 
REMARK    4  A    between atoms: C_8  and  C_9 
REMARK    5  A    between atoms: N_16  and  C_17 
ROOT
HETATM    1  C   UNL     1       0.783   0.021   0.221  1.00  0.00     0.054 C 
HETATM    2  C   UNL     1       2.265  -0.053   0.192  1.00  0.00     0.003 A 
HETATM    3  C   UNL     1       3.227   0.989   0.182  1.00  0.00     0.159 A 
HETATM    4  N   UNL     1       4.469   0.507   0.099  1.00  0.00    -0.149 NA
HETATM    5  N   UNL     1       4.340  -0.854   0.166  1.00  0.00    -0.241 N 
HETATM    6  C   UNL     1       3.013  -1.207   0.132  1.00  0.00     0.129 A 
ENDROOT
BRANCH   3   7
HETATM    7  N   UNL     1       2.897   2.324   0.221  1.00  0.00    -0.291 N 
HETATM    8  C   UNL     1       3.666   3.435   0.145  1.00  0.00     0.321 C 
HETATM    9  N   UNL     1       5.012   3.297   0.031  1.00  0.00    -0.342 N 
HETATM   10  O   UNL     1       3.108   4.533   0.172  1.00  0.00    -0.247 OA
HETATM   11  H   UNL     1       5.354   2.360  -0.163  1.00  0.00     0.164 HD
HETATM   12  H   UNL     1       1.918   2.551   0.295  1.00  0.00     0.172 HD
BRANCH   9  13
HETATM   13  C   UNL     1       5.814   4.462  -0.259  1.00  0.00     0.134 C 
BRANCH  13  14
HETATM   14  C   UNL     1       7.306   4.178  -0.219  1.00  0.00    -0.021 A 
HETATM   15  C   UNL     1       8.160   5.303   0.360  1.00  0.00     0.012 A 
HETATM   16  C   UNL     1       7.943   4.055   1.158  1.00  0.00     0.012 A 
BRANCH  14  17
HETATM   17  C   UNL     1       7.836   3.387  -1.442  1.00  0.00    -0.004 A 
HETATM   18  C   UNL     1       9.303   3.135  -1.715  1.00  0.00     0.006 A 
HETATM   19  C   UNL     1       8.413   1.996  -1.330  1.00  0.00     0.006 A 
ENDBRANCH  14  17
ENDBRANCH  13  14
ENDBRANCH   9  13
ENDBRANCH   3   7
BRANCH   5  20
HETATM   20  C   UNL     1       5.502  -1.686   0.194  1.00  0.00     0.079 A 
HETATM   21  C   UNL     1       5.513  -3.050   0.530  1.00  0.00     0.062 A 
HETATM   22 CL   UNL     1       4.175  -3.953   1.148  1.00  0.00    -0.082 Cl
HETATM   23  C   UNL     1       6.718  -3.775   0.469  1.00  0.00     0.026 A 
HETATM   24  C   UNL     1       7.912  -3.160   0.102  1.00  0.00     0.002 A 
HETATM   25  C   UNL     1       7.919  -1.805  -0.196  1.00  0.00     0.002 A 
HETATM   26  C   UNL     1       6.728  -1.077  -0.146  1.00  0.00     0.033 A 
ENDBRANCH   5  20
TORSDOF 5
