REMARK  5 active torsions:
REMARK  status: ('A' for Active; 'I' for Inactive)
REMARK    1  A    between atoms: C_3  and  O_4 
REMARK    2  A    between atoms: O_4  and  C_5 
REMARK    3  A    between atoms: C_5  and  C_6 
REMARK       I    between atoms: C_6  and  N_7 
REMARK    4  A    between atoms: N_7  and  N_8 
REMARK    5  A    between atoms: C_9  and  C_10 
ROOT
HETATM    1  C   UNL     1       0.890   4.087  -0.263  1.00  0.00     0.261 C 
HETATM    2  N   UNL     1       2.022   4.854   0.015  1.00  0.00    -0.246 N 
HETATM    3  O   UNL     1      -0.217   4.536  -0.546  1.00  0.00    -0.269 OA
HETATM    4  H   UNL     1       2.909   4.409   0.222  1.00  0.00     0.192 HD
ENDROOT
BRANCH   2   5
HETATM    5  N   UNL     1       1.947   6.217   0.001  1.00  0.00    -0.184 NA
HETATM    6  C   UNL     1       3.058   6.842   0.223  1.00  0.00     0.152 C 
BRANCH   6   7
HETATM    7  C   UNL     1       3.085   8.289   0.233  1.00  0.00     0.011 A 
HETATM    8  C   UNL     1       4.229   9.134   0.401  1.00  0.00     0.004 A 
HETATM    9  C   UNL     1       3.783  10.456   0.340  1.00  0.00     0.043 A 
HETATM   10  C   UNL     1       5.607   8.902   0.596  1.00  0.00     0.014 A 
HETATM   11  C   UNL     1       4.643  11.554   0.464  1.00  0.00     0.030 A 
HETATM   12  N   UNL     1       2.421  10.417   0.145  1.00  0.00    -0.364 N 
HETATM   13  C   UNL     1       6.003  11.295   0.655  1.00  0.00     0.002 A 
HETATM   14  C   UNL     1       6.481   9.989   0.721  1.00  0.00     0.001 A 
HETATM   15  H   UNL     1       1.828  11.231   0.061  1.00  0.00     0.165 HD
HETATM   16  C   UNL     1       1.992   9.121   0.077  1.00  0.00     0.102 A 
ENDBRANCH   6   7
ENDBRANCH   2   5
BRANCH   1  17
HETATM   17  C   UNL     1       1.204   2.590  -0.189  1.00  0.00     0.280 C 
BRANCH  17  18
HETATM   18  O   UNL     1       0.057   1.771  -0.404  1.00  0.00    -0.341 OA
BRANCH  18  19
HETATM   19  C   UNL     1       0.383   0.668  -1.152  1.00  0.00     0.081 A 
HETATM   20  C   UNL     1       0.923  -0.471  -0.532  1.00  0.00    -0.027 A 
HETATM   21  C   UNL     1       1.161  -0.531   0.949  1.00  0.00     0.051 C 
HETATM   22  C   UNL     1       1.279  -1.565  -1.333  1.00  0.00     0.028 A 
HETATM   23  C   UNL     1       1.057  -1.531  -2.709  1.00  0.00     0.012 A 
HETATM   24  C   UNL     1       0.474  -0.415  -3.309  1.00  0.00     0.028 A 
HETATM   25 BR   UNL     1       1.546  -3.016  -3.773  1.00  0.00    -0.051 Br
HETATM   26  C   UNL     1       0.115   0.693  -2.531  1.00  0.00    -0.027 A 
HETATM   27  C   UNL     1      -0.511   1.897  -3.178  1.00  0.00     0.051 C 
ENDBRANCH  18  19
ENDBRANCH  17  18
ENDBRANCH   1  17
TORSDOF 5
