REMARK  4 active torsions:
REMARK  status: ('A' for Active; 'I' for Inactive)
REMARK    1  A    between atoms: C_2  and  N_3 
REMARK       I    between atoms: N_3  and  C_4 
REMARK       I    between atoms: C_4  and  N_5 
REMARK    2  A    between atoms: N_5  and  C_6 
REMARK    3  A    between atoms: C_14  and  C_15 
REMARK       I    between atoms: C_15  and  N_16 
REMARK    4  A    between atoms: N_16  and  C_17 
ROOT
HETATM    1  C   UNL     1      -0.922  -1.305   0.129  1.00  0.00     0.031 A 
HETATM    2  C   UNL     1      -1.495  -0.091  -0.240  1.00  0.00     0.037 A 
HETATM    3  C   UNL     1      -0.656   0.949  -0.660  1.00  0.00     0.048 A 
HETATM    4  C   UNL     1       0.746   0.790  -0.729  1.00  0.00     0.055 A 
HETATM    5  C   UNL     1       1.298  -0.450  -0.383  1.00  0.00     0.049 A 
HETATM    6 CL   UNL     1       2.983  -0.831  -0.471  1.00  0.00    -0.083 Cl
HETATM    7  C   UNL     1       0.462  -1.486   0.049  1.00  0.00     0.027 A 
ENDROOT
BRANCH   2   8
HETATM    8  N   UNL     1      -2.880   0.169  -0.185  1.00  0.00    -0.309 N 
HETATM    9  C   UNL     1      -3.884  -0.735   0.026  1.00  0.00     0.325 C 
HETATM   10  N   UNL     1      -5.142  -0.231   0.216  1.00  0.00    -0.306 N 
HETATM   11  O   UNL     1      -3.756  -1.958   0.019  1.00  0.00    -0.247 OA
HETATM   12  H   UNL     1      -5.850  -0.956   0.213  1.00  0.00     0.171 HD
HETATM   13  H   UNL     1      -3.181   1.060  -0.551  1.00  0.00     0.170 HD
BRANCH  10  14
HETATM   14  C   UNL     1      -5.565   1.039   0.550  1.00  0.00     0.072 A 
HETATM   15  C   UNL     1      -4.888   2.228   0.899  1.00  0.00     0.169 A 
HETATM   16  N   UNL     1      -5.724   3.239   1.156  1.00  0.00    -0.185 NA
HETATM   17  N   UNL     1      -6.939   2.689   1.011  1.00  0.00    -0.287 N 
HETATM   18  H   UNL     1      -7.754   3.272   1.173  1.00  0.00     0.188 HD
HETATM   19  C   UNL     1      -6.896   1.371   0.660  1.00  0.00     0.140 A 
ENDBRANCH  10  14
ENDBRANCH   2   8
BRANCH   4  20
HETATM   20  C   UNL     1       1.510   1.996  -1.180  1.00  0.00     0.253 C 
HETATM   21  N   UNL     1       2.846   2.071  -0.860  1.00  0.00    -0.352 N 
HETATM   22  H   UNL     1       3.253   1.335  -0.296  1.00  0.00     0.163 HD
HETATM   23  O   UNL     1       0.924   2.893  -1.777  1.00  0.00    -0.268 OA
BRANCH  21  24
HETATM   24  C   UNL     1       3.663   3.243  -1.152  1.00  0.00     0.084 C 
HETATM   25  C   UNL     1       3.527   4.297  -0.044  1.00  0.00     0.025 C 
HETATM   26  C   UNL     1       4.225   3.879   1.250  1.00  0.00     0.002 C 
HETATM   27  C   UNL     1       5.687   3.519   1.009  1.00  0.00     0.000 C 
HETATM   28  C   UNL     1       5.835   2.447  -0.067  1.00  0.00     0.002 C 
HETATM   29  C   UNL     1       5.129   2.844  -1.363  1.00  0.00     0.025 C 
ENDBRANCH  21  24
ENDBRANCH   4  20
TORSDOF 4
