REMARK  7 active torsions:
REMARK  status: ('A' for Active; 'I' for Inactive)
REMARK    1  A    between atoms: C_3  and  C_4 
REMARK       I    between atoms: C_4  and  N_5 
REMARK    2  A    between atoms: N_8  and  C_9 
REMARK    3  A    between atoms: C_12  and  N_13 
REMARK    4  A    between atoms: N_13  and  C_14 
REMARK    5  A    between atoms: C_14  and  N_15 
REMARK       I    between atoms: N_15  and  C_16 
REMARK    6  A    between atoms: C_16  and  C_17 
REMARK    7  A    between atoms: C_18  and  O_19 
ROOT
HETATM    1  C   UNL     1      -3.444   3.186  -1.043  1.00  0.00     0.030 A 
HETATM    2  C   UNL     1      -4.258   2.498  -1.957  1.00  0.00     0.031 A 
HETATM    3  C   UNL     1      -5.637   2.754  -2.064  1.00  0.00     0.032 A 
HETATM    4  C   UNL     1      -6.248   3.686  -1.227  1.00  0.00     0.034 A 
HETATM    5  C   UNL     1      -5.441   4.437  -0.380  1.00  0.00     0.032 A 
HETATM    6  C   UNL     1      -4.068   4.187  -0.288  1.00  0.00     0.031 A 
ENDROOT
BRANCH   4   7
HETATM    7  N   UNL     1      -7.647   3.851  -1.305  1.00  0.00    -0.333 N 
HETATM    8  H   UNL     1      -8.100   3.490  -2.144  1.00  0.00     0.168 HD
BRANCH   7   9
HETATM    9  C   UNL     1      -8.528   4.278  -0.337  1.00  0.00     0.179 C 
HETATM   10  S   UNL     1      -8.290   4.435   1.315  1.00  0.00    -0.040 SA
BRANCH   9  11
HETATM   11  N   UNL     1      -9.788   4.608  -0.788  1.00  0.00    -0.299 N 
HETATM   12  C   UNL     1     -10.296   4.645  -2.077  1.00  0.00     0.260 C 
HETATM   13  O   UNL     1      -9.802   4.025  -3.016  1.00  0.00    -0.267 OA
HETATM   14  H   UNL     1     -10.344   5.066  -0.074  1.00  0.00     0.171 HD
BRANCH  12  15
HETATM   15  C   UNL     1     -11.575   5.407  -2.242  1.00  0.00     0.065 A 
HETATM   16  C   UNL     1     -11.940   6.487  -1.411  1.00  0.00     0.084 A 
HETATM   17  C   UNL     1     -13.164   7.133  -1.620  1.00  0.00     0.038 A 
HETATM   18  C   UNL     1     -14.008   6.729  -2.657  1.00  0.00     0.003 A 
HETATM   19  C   UNL     1     -13.638   5.679  -3.493  1.00  0.00     0.001 A 
HETATM   20  C   UNL     1     -12.424   5.021  -3.290  1.00  0.00     0.020 A 
BRANCH  16  21
HETATM   21  O   UNL     1     -11.081   6.830  -0.398  1.00  0.00    -0.355 OA
HETATM   22  C   UNL     1     -11.145   8.172   0.078  1.00  0.00     0.210 C 
ENDBRANCH  16  21
ENDBRANCH  12  15
ENDBRANCH   9  11
ENDBRANCH   7   9
ENDBRANCH   4   7
BRANCH   1  23
HETATM   23  N   UNL     1      -2.111   2.815  -0.847  1.00  0.00    -0.378 N 
HETATM   24  C   UNL     1      -1.407   3.331   0.345  1.00  0.00     0.143 C 
HETATM   25  C   UNL     1      -0.182   2.467   0.664  1.00  0.00     0.146 C 
HETATM   26  N   UNL     1       0.696   2.250  -0.487  1.00  0.00    -0.345 N 
HETATM   27  C   UNL     1       2.021   1.931  -0.196  1.00  0.00     0.254 C 
HETATM   28  C   UNL     1       0.014   1.895  -1.743  1.00  0.00     0.146 C 
HETATM   29  O   UNL     1       2.538   2.093   0.907  1.00  0.00    -0.267 OA
HETATM   30  C   UNL     1      -1.236   2.756  -2.037  1.00  0.00     0.143 C 
BRANCH  27  31
HETATM   31  C   UNL     1       2.871   1.367  -1.261  1.00  0.00     0.038 A 
HETATM   32  C   UNL     1       2.849  -0.002  -1.579  1.00  0.00    -0.046 A 
HETATM   33  C   UNL     1       1.928  -0.981  -0.910  1.00  0.00     0.049 C 
HETATM   34  C   UNL     1       3.716  -0.462  -2.583  1.00  0.00     0.007 A 
HETATM   35  C   UNL     1       4.607   0.410  -3.214  1.00  0.00     0.001 A 
HETATM   36  C   UNL     1       4.642   1.758  -2.860  1.00  0.00     0.001 A 
HETATM   37  C   UNL     1       3.775   2.239  -1.882  1.00  0.00     0.017 A 
ENDBRANCH  27  31
ENDBRANCH   1  23
TORSDOF 7
