REMARK  13 active torsions:
REMARK  status: ('A' for Active; 'I' for Inactive)
REMARK    1  A    between atoms: C_2  and  O_3 
REMARK    2  A    between atoms: O_3  and  C_4 
REMARK    3  A    between atoms: C_5  and  O_6 
REMARK    4  A    between atoms: C_9  and  C_10 
REMARK    5  A    between atoms: N_11  and  C_12 
REMARK    6  A    between atoms: C_12  and  C_13 
REMARK    7  A    between atoms: C_13  and  N_14 
REMARK    8  A    between atoms: C_20  and  O_21 
REMARK    9  A    between atoms: C_22  and  C_23 
REMARK   10  A    between atoms: C_23  and  C_24 
REMARK   11  A    between atoms: C_28  and  O_29 
REMARK   12  A    between atoms: O_29  and  C_30 
REMARK   13  A    between atoms: C_30  and  C_31 
ROOT
HETATM    1  C   UNL     1       7.498  -0.766  -1.539  1.00  0.00     0.161 A 
HETATM    2  N   UNL     1       7.390  -2.162  -1.099  1.00  0.00    -0.332 N 
HETATM    3  C   UNL     1       8.399  -2.476  -0.220  1.00  0.00     0.278 A 
HETATM    4  O   UNL     1       8.514  -3.498   0.434  1.00  0.00    -0.265 OA
HETATM    5  C   UNL     1       9.308  -1.317  -0.137  1.00  0.00     0.146 A 
HETATM    6  C   UNL     1       8.771  -0.336  -0.873  1.00  0.00     0.059 A 
ENDROOT
BRANCH   6   7
HETATM    7  C   UNL     1       9.249   1.065  -0.759  1.00  0.00     0.194 C 
HETATM    8  O   UNL     1       9.772   1.485   0.267  1.00  0.00    -0.287 OA
BRANCH   7   9
HETATM    9  C   UNL     1       8.971   2.009  -1.860  1.00  0.00     0.021 A 
HETATM   10  C   UNL     1       8.200   3.164  -1.642  1.00  0.00    -0.045 A 
HETATM   11  C   UNL     1       7.701   3.554  -0.278  1.00  0.00     0.049 C 
HETATM   12  C   UNL     1       7.940   4.007  -2.733  1.00  0.00     0.044 A 
HETATM   13  C   UNL     1       8.417   3.708  -4.012  1.00  0.00     0.069 A 
HETATM   14  C   UNL     1       9.234   2.596  -4.200  1.00  0.00     0.038 A 
HETATM   15  C   UNL     1       9.527   1.759  -3.120  1.00  0.00     0.019 A 
BRANCH  13  16
HETATM   16  O   UNL     1       8.057   4.598  -4.982  1.00  0.00    -0.347 OA
BRANCH  16  17
HETATM   17  C   UNL     1       8.032   4.098  -6.319  1.00  0.00     0.214 C 
BRANCH  17  18
HETATM   18  C   UNL     1       7.352   5.131  -7.181  1.00  0.00    -0.034 A 
HETATM   19  C   UNL     1       8.108   6.035  -7.941  1.00  0.00     0.009 A 
HETATM   20  C   UNL     1       7.476   7.008  -8.718  1.00  0.00     0.001 A 
HETATM   21  C   UNL     1       6.086   7.093  -8.736  1.00  0.00     0.000 A 
HETATM   22  C   UNL     1       5.324   6.208  -7.975  1.00  0.00     0.001 A 
HETATM   23  C   UNL     1       5.953   5.233  -7.198  1.00  0.00     0.009 A 
ENDBRANCH  17  18
ENDBRANCH  16  17
ENDBRANCH  13  16
ENDBRANCH   7   9
ENDBRANCH   6   7
BRANCH   1  24
HETATM   24  C   UNL     1       7.422  -0.688  -3.050  1.00  0.00    -0.028 A 
HETATM   25  C   UNL     1       8.399  -1.278  -3.874  1.00  0.00     0.012 A 
HETATM   26  C   UNL     1       8.263  -1.250  -5.261  1.00  0.00     0.040 A 
HETATM   27  C   UNL     1       7.134  -0.670  -5.825  1.00  0.00     0.099 A 
HETATM   28  C   UNL     1       6.127  -0.113  -5.034  1.00  0.00     0.102 A 
HETATM   29  C   UNL     1       6.289  -0.097  -3.649  1.00  0.00     0.049 A 
BRANCH  27  30
HETATM   30  O   UNL     1       7.018  -0.681  -7.186  1.00  0.00    -0.358 OA
HETATM   31  H   UNL     1       6.181  -0.217  -7.386  1.00  0.00     0.218 HD
ENDBRANCH  27  30
BRANCH  28  32
HETATM   32  O   UNL     1       5.043   0.372  -5.717  1.00  0.00    -0.349 OA
BRANCH  32  33
HETATM   33  C   UNL     1       3.836   0.522  -4.965  1.00  0.00     0.171 C 
HETATM   34  C   UNL     1       2.681   0.652  -5.941  1.00  0.00     0.034 C 
ENDBRANCH  32  33
ENDBRANCH  28  32
ENDBRANCH   1  24
BRANCH   5  35
HETATM   35  O   UNL     1      10.412  -1.293   0.660  1.00  0.00    -0.355 OA
HETATM   36  H   UNL     1      10.453  -2.137   1.146  1.00  0.00     0.218 HD
ENDBRANCH   5  35
BRANCH   2  37
HETATM   37  C   UNL     1       6.269  -3.018  -1.510  1.00  0.00     0.155 C 
BRANCH  37  38
HETATM   38  C   UNL     1       6.345  -4.521  -1.157  1.00  0.00     0.254 C 
BRANCH  38  39
HETATM   39  N   UNL     1       6.241  -4.796   0.328  1.00  0.00    -0.077 N 
HETATM   40  H   UNL     1       7.003  -4.233   0.759  1.00  0.00     0.279 HD
HETATM   41  C   UNL     1       4.936  -4.405   0.946  1.00  0.00     0.269 C 
HETATM   42  C   UNL     1       6.606  -6.217   0.656  1.00  0.00     0.269 C 
ENDBRANCH  38  39
ENDBRANCH  37  38
ENDBRANCH   2  37
TORSDOF 13
