REMARK  2 active torsions:
REMARK  status: ('A' for Active; 'I' for Inactive)
REMARK    1  A    between atoms: C_9  and  C_10 
REMARK       I    between atoms: C_10  and  N_11 
REMARK    2  A    between atoms: N_11  and  N_12 
ROOT
HETATM    1  C   UNL     1       5.732   4.134   1.272  1.00  0.00     0.291 C 
HETATM    2  N   UNL     1       6.451   4.548   0.174  1.00  0.00    -0.251 N 
HETATM    3  O   UNL     1       6.176   3.412   2.161  1.00  0.00    -0.264 OA
HETATM    4  H   UNL     1       5.983   5.063  -0.566  1.00  0.00     0.191 HD
ENDROOT
BRANCH   2   5
HETATM    5  N   UNL     1       7.782   4.216   0.036  1.00  0.00    -0.167 N 
HETATM    6  C   UNL     1       8.296   3.714  -1.129  1.00  0.00     0.345 C 
HETATM    7  O   UNL     1       7.695   3.383  -2.138  1.00  0.00    -0.245 OA
HETATM    8  N   UNL     1       9.672   3.705  -1.013  1.00  0.00    -0.323 N 
HETATM    9  C   UNL     1      10.124   4.328   0.219  1.00  0.00     0.117 C 
HETATM   10  H   UNL     1      10.256   3.415  -1.787  1.00  0.00     0.165 HD
HETATM   11  C   UNL     1      10.952   5.590  -0.051  1.00  0.00     0.041 C 
HETATM   12  C   UNL     1      10.864   3.325   1.108  1.00  0.00     0.041 C 
HETATM   13  C   UNL     1       8.770   4.727   0.843  1.00  0.00     0.275 C 
HETATM   14  C   UNL     1      12.351   5.266  -0.569  1.00  0.00     0.003 C 
HETATM   15  C   UNL     1      13.077   4.286   0.347  1.00  0.00     0.000 C 
HETATM   16  C   UNL     1      12.264   3.015   0.577  1.00  0.00     0.003 C 
HETATM   17  O   UNL     1       8.636   5.423   1.842  1.00  0.00    -0.268 OA
ENDBRANCH   2   5
BRANCH   1  18
HETATM   18  C   UNL     1       4.359   4.660   1.262  1.00  0.00     0.158 A 
HETATM   19  C   UNL     1       3.414   4.635   2.329  1.00  0.00     0.029 A 
HETATM   20  C   UNL     1       3.397   4.169   3.658  1.00  0.00     0.023 A 
HETATM   21  C   UNL     1       2.283   5.267   1.826  1.00  0.00     0.063 A 
HETATM   22  C   UNL     1       2.248   4.359   4.443  1.00  0.00    -0.061 A 
HETATM   23  C   UNL     1       2.215   3.888   5.869  1.00  0.00     0.048 C 
HETATM   24  C   UNL     1       1.125   4.991   3.893  1.00  0.00     0.009 A 
HETATM   25  C   UNL     1       1.118   5.456   2.573  1.00  0.00     0.032 A 
HETATM   26  N   UNL     1       2.604   5.612   0.543  1.00  0.00    -0.277 N 
HETATM   27  H   UNL     1       2.012   6.088  -0.129  1.00  0.00     0.189 HD
HETATM   28  N   UNL     1       3.856   5.285   0.173  1.00  0.00    -0.168 NA
ENDBRANCH   1  18
TORSDOF 2
