REMARK  6 active torsions:
REMARK  status: ('A' for Active; 'I' for Inactive)
REMARK    1  A    between atoms: C_9  and  N_10 
REMARK       I    between atoms: N_10  and  C_11 
REMARK    2  A    between atoms: C_11  and  C_12 
REMARK    3  A    between atoms: C_12  and  N_13 
REMARK    4  A    between atoms: C_12  and  C_21 
REMARK       I    between atoms: N_13  and  C_14 
REMARK    5  A    between atoms: C_14  and  C_15 
REMARK    6  A    between atoms: C_21  and  C_22 
ROOT
HETATM    1  C   UNL     1       9.584   0.723  -0.161  1.00  0.00     0.181 C 
ENDROOT
BRANCH   1   2
HETATM    2  C   UNL     1       9.199  -0.766   0.014  1.00  0.00     0.245 C 
HETATM    3  N   UNL     1       8.334  -1.247  -0.950  1.00  0.00    -0.325 N 
HETATM    4  H   UNL     1       8.137  -0.614  -1.727  1.00  0.00     0.169 HD
HETATM    5  O   UNL     1       9.682  -1.415   0.941  1.00  0.00    -0.271 OA
BRANCH   3   6
HETATM    6  C   UNL     1       7.749  -2.527  -1.036  1.00  0.00     0.037 A 
HETATM    7  C   UNL     1       7.955  -3.542  -0.094  1.00  0.00     0.063 A 
HETATM    8  C   UNL     1       7.316  -4.781  -0.277  1.00  0.00     0.087 A 
HETATM    9  N   UNL     1       7.368  -5.920   0.492  1.00  0.00    -0.234 NA
HETATM   10  C   UNL     1       6.489  -4.968  -1.377  1.00  0.00     0.062 A 
HETATM   11  C   UNL     1       6.595  -6.796  -0.114  1.00  0.00     0.101 A 
HETATM   12  C   UNL     1       6.323  -8.187   0.316  1.00  0.00     0.091 C 
HETATM   13  N   UNL     1       6.037  -6.256  -1.246  1.00  0.00    -0.343 N 
HETATM   14  H   UNL     1       5.407  -6.729  -1.876  1.00  0.00     0.167 HD
HETATM   15  C   UNL     1       6.254  -3.982  -2.332  1.00  0.00     0.034 A 
HETATM   16  C   UNL     1       6.907  -2.757  -2.136  1.00  0.00     0.032 A 
ENDBRANCH   3   6
ENDBRANCH   1   2
BRANCH   1  17
HETATM   17  N   UNL     1      10.460   0.868  -1.332  1.00  0.00    -0.343 N 
HETATM   18  C   UNL     1      10.035   0.819  -2.641  1.00  0.00     0.259 C 
HETATM   19  O   UNL     1       8.849   0.626  -2.909  1.00  0.00    -0.267 OA
HETATM   20  H   UNL     1      11.459   0.909  -1.168  1.00  0.00     0.163 HD
BRANCH  18  21
HETATM   21  C   UNL     1      11.062   0.984  -3.659  1.00  0.00     0.072 A 
HETATM   22  S   UNL     1      12.711   1.250  -3.267  1.00  0.00    -0.097 SA
HETATM   23  C   UNL     1      13.164   1.331  -4.913  1.00  0.00     0.050 A 
HETATM   24  C   UNL     1      12.088   1.159  -5.753  1.00  0.00     0.009 A 
HETATM   25  C   UNL     1      10.877   0.959  -5.030  1.00  0.00     0.025 A 
ENDBRANCH  18  21
ENDBRANCH   1  17
BRANCH   1  26
HETATM   26  C   UNL     1       8.378   1.685  -0.175  1.00  0.00     0.073 C 
BRANCH  26  27
HETATM   27  C   UNL     1       7.750   2.058   1.154  1.00  0.00    -0.056 A 
HETATM   28  C   UNL     1       7.863   1.288   2.318  1.00  0.00     0.007 A 
HETATM   29  C   UNL     1       7.220   1.679   3.497  1.00  0.00     0.001 A 
HETATM   30  C   UNL     1       6.448   2.837   3.528  1.00  0.00     0.000 A 
HETATM   31  C   UNL     1       6.314   3.607   2.378  1.00  0.00     0.001 A 
HETATM   32  C   UNL     1       6.956   3.219   1.201  1.00  0.00     0.007 A 
ENDBRANCH  26  27
ENDBRANCH   1  26
TORSDOF 6
