REMARK  5 active torsions:
REMARK  status: ('A' for Active; 'I' for Inactive)
REMARK    1  A    between atoms: C_6  and  C_7 
REMARK    2  A    between atoms: N_10  and  C_12 
REMARK    3  A    between atoms: C_12  and  C_13 
REMARK    4  A    between atoms: C_14  and  N_15 
REMARK    5  A    between atoms: N_15  and  C_16 
ROOT
HETATM    1  C   UNL     1       3.356   3.285   0.303  1.00  0.00    -0.006 A 
HETATM    2  C   UNL     1       2.307   3.096   1.234  1.00  0.00     0.038 A 
HETATM    3  C   UNL     1       2.263   3.924   2.374  1.00  0.00     0.030 A 
HETATM    4  C   UNL     1       3.167   4.970   2.549  1.00  0.00     0.002 A 
HETATM    5  C   UNL     1       4.129   5.218   1.582  1.00  0.00     0.001 A 
HETATM    6  C   UNL     1       4.221   4.389   0.465  1.00  0.00     0.011 A 
ENDROOT
BRANCH   1   7
HETATM    7  C   UNL     1       3.550   2.321  -0.848  1.00  0.00     0.275 C 
BRANCH   7   8
HETATM    8  N   UNL     1       4.996   2.033  -1.247  1.00  0.00    -0.067 N 
HETATM    9  C   UNL     1       5.804   1.404  -0.137  1.00  0.00     0.236 C 
HETATM   10  C   UNL     1       7.263   1.285  -0.567  1.00  0.00     0.038 C 
HETATM   11  C   UNL     1       7.476   0.590  -1.921  1.00  0.00     0.040 C 
HETATM   12  C   UNL     1       6.503   1.129  -2.980  1.00  0.00     0.038 C 
HETATM   13  C   UNL     1       5.062   1.185  -2.495  1.00  0.00     0.236 C 
HETATM   14  H   UNL     1       5.419   2.938  -1.474  1.00  0.00     0.280 HD
BRANCH  11  15
HETATM   15  C   UNL     1       7.430  -0.914  -1.844  1.00  0.00     0.035 A 
HETATM   16  N   UNL     1       8.103  -1.731  -2.737  1.00  0.00    -0.278 N 
HETATM   17  C   UNL     1       8.992  -1.347  -3.812  1.00  0.00     0.179 C 
HETATM   18  N   UNL     1       7.867  -3.037  -2.538  1.00  0.00    -0.185 NA
HETATM   19  C   UNL     1       7.139  -3.078  -1.428  1.00  0.00     0.141 A 
HETATM   20  C   UNL     1       6.834  -1.791  -0.954  1.00  0.00     0.048 A 
ENDBRANCH  11  15
ENDBRANCH   7   8
ENDBRANCH   1   7
BRANCH   2  21
HETATM   21  N   UNL     1       1.303   2.124   1.012  1.00  0.00    -0.380 N 
HETATM   22  C   UNL     1       1.045   1.272   2.178  1.00  0.00     0.150 C 
BRANCH  21  23
HETATM   23  C   UNL     1       0.191   2.564   0.114  1.00  0.00     0.087 C 
HETATM   24  C   UNL     1      -0.514   3.872   0.503  1.00  0.00     0.053 C 
HETATM   25  C   UNL     1      -1.588   3.698   1.558  1.00  0.00     0.236 C 
HETATM   26  N   UNL     1      -2.595   2.686   1.078  1.00  0.00    -0.075 N 
HETATM   27  H   UNL     1      -2.996   3.030   0.193  1.00  0.00     0.279 HD
HETATM   28  C   UNL     1      -3.768   2.583   2.027  1.00  0.00     0.269 C 
HETATM   29  C   UNL     1      -1.971   1.342   0.819  1.00  0.00     0.236 C 
HETATM   30  C   UNL     1      -0.835   1.460  -0.191  1.00  0.00     0.053 C 
ENDBRANCH  21  23
ENDBRANCH   2  21
TORSDOF 5
