REMARK  7 active torsions:
REMARK  status: ('A' for Active; 'I' for Inactive)
REMARK    1  A    between atoms: O_2  and  C_3 
REMARK    2  A    between atoms: C_4  and  O_5 
REMARK    3  A    between atoms: C_7  and  C_8 
REMARK       I    between atoms: C_8  and  N_9 
REMARK    4  A    between atoms: N_9  and  C_10 
REMARK    5  A    between atoms: C_10  and  C_11 
REMARK    6  A    between atoms: C_11  and  N_12 
REMARK    7  A    between atoms: C_11  and  C_18 
ROOT
HETATM    1  C   UNL     1       6.888   5.332  -3.884  1.00  0.00     0.239 C 
ENDROOT
BRANCH   1   2
HETATM    2  C   UNL     1       6.250   4.495  -2.723  1.00  0.00     0.161 C 
BRANCH   2   3
HETATM    3  N   UNL     1       6.763   3.152  -2.497  1.00  0.00    -0.354 N 
HETATM    4  C   UNL     1       7.975   2.753  -1.981  1.00  0.00     0.254 C 
HETATM    5  O   UNL     1       8.129   1.582  -1.659  1.00  0.00    -0.268 OA
HETATM    6  H   UNL     1       6.088   2.396  -2.411  1.00  0.00     0.162 HD
BRANCH   4   7
HETATM    7  C   UNL     1       9.087   3.717  -1.846  1.00  0.00     0.068 A 
HETATM    8  C   UNL     1      10.232   3.580  -2.661  1.00  0.00     0.117 A 
HETATM    9  C   UNL     1      11.314   4.447  -2.431  1.00  0.00     0.102 A 
HETATM   10  C   UNL     1      11.191   5.482  -1.490  1.00  0.00     0.040 A 
HETATM   11  C   UNL     1      10.040   5.619  -0.715  1.00  0.00     0.004 A 
HETATM   12  C   UNL     1       8.995   4.716  -0.870  1.00  0.00     0.020 A 
BRANCH   8  13
HETATM   13  O   UNL     1      10.130   2.619  -3.634  1.00  0.00    -0.352 OA
HETATM   14  C   UNL     1      11.246   2.325  -4.460  1.00  0.00     0.210 C 
ENDBRANCH   8  13
BRANCH   9  15
HETATM   15  O   UNL     1      12.462   4.326  -3.169  1.00  0.00    -0.353 OA
HETATM   16  C   UNL     1      13.665   4.427  -2.400  1.00  0.00     0.210 C 
ENDBRANCH   9  15
ENDBRANCH   4   7
ENDBRANCH   2   3
ENDBRANCH   1   2
BRANCH   1  17
HETATM   17  N   UNL     1       6.698   4.724  -5.274  1.00  0.00    -0.061 N 
HETATM   18  H   UNL     1       6.989   5.477  -5.913  1.00  0.00     0.280 HD
HETATM   19  C   UNL     1       5.296   4.360  -5.707  1.00  0.00     0.236 C 
HETATM   20  C   UNL     1       5.361   2.872  -5.986  1.00  0.00     0.029 C 
HETATM   21  C   UNL     1       6.762   2.685  -6.529  1.00  0.00     0.029 C 
HETATM   22  C   UNL     1       7.600   3.552  -5.608  1.00  0.00     0.236 C 
ENDBRANCH   1  17
BRANCH   1  23
HETATM   23  C   UNL     1       6.440   6.798  -3.885  1.00  0.00    -0.015 A 
HETATM   24  C   UNL     1       7.321   7.843  -4.315  1.00  0.00    -0.018 A 
HETATM   25  C   UNL     1       6.839   9.181  -4.308  1.00  0.00    -0.025 A 
HETATM   26  C   UNL     1       8.658   7.651  -4.751  1.00  0.00     0.013 A 
HETATM   27  C   UNL     1       7.664  10.240  -4.715  1.00  0.00     0.012 A 
HETATM   28  C   UNL     1       5.533   9.462  -3.892  1.00  0.00     0.012 A 
HETATM   29  C   UNL     1       8.969  10.011  -5.139  1.00  0.00     0.001 A 
HETATM   30  C   UNL     1       9.466   8.717  -5.157  1.00  0.00     0.001 A 
HETATM   31  C   UNL     1       4.681   8.446  -3.489  1.00  0.00     0.002 A 
HETATM   32  C   UNL     1       5.124   7.128  -3.494  1.00  0.00     0.010 A 
ENDBRANCH   1  23
TORSDOF 7
