REMARK  2 active torsions:
REMARK  status: ('A' for Active; 'I' for Inactive)
REMARK    1  A    between atoms: C_5  and  C_7 
REMARK    2  A    between atoms: C_5  and  O_6 
ROOT
HETATM    1  C   UNL     1       1.095   0.147  -0.143  1.00  0.00     0.050 C 
HETATM    2  C   UNL     1       2.587   0.198  -0.027  1.00  0.00    -0.034 A 
HETATM    3  C   UNL     1       3.322   1.375   0.005  1.00  0.00     0.052 A 
HETATM    4  C   UNL     1       4.724   1.402   0.103  1.00  0.00     0.039 A 
HETATM    5  C   UNL     1       5.195   2.841   0.144  1.00  0.00     0.200 A 
HETATM    6  C   UNL     1       3.842   3.622   0.005  1.00  0.00     0.266 A 
HETATM    7  O   UNL     1       3.647   4.828   0.000  1.00  0.00    -0.269 OA
HETATM    8  N   UNL     1       2.824   2.671  -0.047  1.00  0.00    -0.323 N 
HETATM    9  C   UNL     1       5.424   0.210   0.200  1.00  0.00     0.046 A 
HETATM   10 CL   UNL     1       7.128   0.144   0.402  1.00  0.00    -0.084 Cl
HETATM   11  C   UNL     1       4.712  -0.993   0.163  1.00  0.00     0.025 A 
HETATM   12  C   UNL     1       3.312  -0.999   0.047  1.00  0.00     0.011 A 
HETATM   13  H   UNL     1       1.855   2.940  -0.124  1.00  0.00     0.169 HD
ENDROOT
BRANCH   5  14
HETATM   14  C   UNL     1       6.116   3.083  -1.033  1.00  0.00     0.025 A 
HETATM   15  C   UNL     1       5.802   2.960  -2.442  1.00  0.00     0.003 A 
HETATM   16  C   UNL     1       6.952   3.280  -3.163  1.00  0.00     0.043 A 
HETATM   17  C   UNL     1       4.649   2.609  -3.182  1.00  0.00     0.014 A 
HETATM   18  C   UNL     1       7.014   3.263  -4.562  1.00  0.00     0.030 A 
HETATM   19  N   UNL     1       7.926   3.595  -2.252  1.00  0.00    -0.359 N 
HETATM   20  C   UNL     1       5.858   2.912  -5.261  1.00  0.00     0.002 A 
HETATM   21  C   UNL     1       4.689   2.590  -4.582  1.00  0.00     0.001 A 
HETATM   22  H   UNL     1       8.865   3.874  -2.499  1.00  0.00     0.166 HD
HETATM   23  C   UNL     1       7.446   3.501  -0.973  1.00  0.00     0.016 A 
HETATM   24  C   UNL     1       8.321   3.830   0.186  1.00  0.00     0.069 C 
ENDBRANCH   5  14
BRANCH   5  25
HETATM   25  O   UNL     1       5.781   3.123   1.414  1.00  0.00    -0.371 OA
HETATM   26  H   UNL     1       5.244   2.671   2.083  1.00  0.00     0.212 HD
ENDBRANCH   5  25
TORSDOF 2
