REMARK  8 active torsions:
REMARK  status: ('A' for Active; 'I' for Inactive)
REMARK    1  A    between atoms: C_2  and  S_3 
REMARK    2  A    between atoms: S_3  and  C_4 
REMARK    3  A    between atoms: C_4  and  C_5 
REMARK    4  A    between atoms: C_5  and  N_6 
REMARK       I    between atoms: N_6  and  C_7 
REMARK    5  A    between atoms: N_6  and  C_22 
REMARK    6  A    between atoms: C_7  and  C_8 
REMARK    7  A    between atoms: C_12  and  C_13 
REMARK    8  A    between atoms: C_16  and  O_17 
ROOT
HETATM    1  C   UNL     1       9.121  -1.426   1.027  1.00  0.00     0.120 A 
HETATM    2  N   UNL     1       9.699  -0.285   0.542  1.00  0.00    -0.272 N 
HETATM    3  H   UNL     1       9.226   0.487   0.082  1.00  0.00     0.189 HD
HETATM    4  N   UNL     1      11.028  -0.226   0.701  1.00  0.00    -0.174 NA
HETATM    5  C   UNL     1      11.334  -1.329   1.403  1.00  0.00     0.089 A 
HETATM    6  C   UNL     1      10.157  -2.092   1.649  1.00  0.00     0.071 A 
ENDROOT
BRANCH   1   7
HETATM    7  C   UNL     1       7.698  -1.632   0.927  1.00  0.00     0.272 C 
HETATM    8  N   UNL     1       7.170  -2.915   0.669  1.00  0.00    -0.341 N 
HETATM    9  O   UNL     1       6.952  -0.659   1.040  1.00  0.00    -0.266 OA
BRANCH   8  10
HETATM   10  C   UNL     1       5.700  -2.981   0.623  1.00  0.00     0.136 C 
BRANCH  10  11
HETATM   11  C   UNL     1       5.099  -3.083   2.029  1.00  0.00     0.093 C 
BRANCH  11  12
HETATM   12  S   UNL     1       3.300  -3.363   1.954  1.00  0.00    -0.168 SA
BRANCH  12  13
HETATM   13  C   UNL     1       2.960  -3.365   3.742  1.00  0.00     0.069 C 
HETATM   14  C   UNL     1       1.478  -3.578   3.993  1.00  0.00     0.016 C 
ENDBRANCH  12  13
ENDBRANCH  11  12
ENDBRANCH  10  11
ENDBRANCH   8  10
BRANCH   8  15
HETATM   15  C   UNL     1       7.980  -4.078   0.215  1.00  0.00     0.087 C 
HETATM   16  C   UNL     1       7.397  -5.485   0.482  1.00  0.00     0.025 C 
HETATM   17  C   UNL     1       6.552  -6.106  -0.634  1.00  0.00     0.002 C 
HETATM   18  C   UNL     1       7.140  -5.887  -2.021  1.00  0.00     0.000 C 
HETATM   19  C   UNL     1       7.464  -4.420  -2.266  1.00  0.00     0.002 C 
HETATM   20  C   UNL     1       8.463  -3.909  -1.236  1.00  0.00     0.025 C 
ENDBRANCH   8  15
ENDBRANCH   1   7
BRANCH   5  21
HETATM   21  C   UNL     1      12.709  -1.613   1.829  1.00  0.00    -0.005 A 
HETATM   22  C   UNL     1      13.688  -0.607   1.783  1.00  0.00     0.016 A 
HETATM   23  C   UNL     1      15.001  -0.859   2.193  1.00  0.00     0.037 A 
HETATM   24  C   UNL     1      15.340  -2.127   2.648  1.00  0.00     0.065 A 
HETATM   25  C   UNL     1      14.392  -3.141   2.697  1.00  0.00     0.037 A 
HETATM   26  C   UNL     1      13.079  -2.886   2.289  1.00  0.00     0.016 A 
BRANCH  24  27
HETATM   27  O   UNL     1      16.606  -2.421   3.057  1.00  0.00    -0.361 OA
HETATM   28  H   UNL     1      17.152  -1.622   2.966  1.00  0.00     0.217 HD
ENDBRANCH  24  27
ENDBRANCH   5  21
TORSDOF 8
