REMARK  8 active torsions:
REMARK  status: ('A' for Active; 'I' for Inactive)
REMARK       I    between atoms: C_2  and  N_3 
REMARK    1  A    between atoms: N_3  and  C_4 
REMARK    2  A    between atoms: C_6  and  C_7 
REMARK    3  A    between atoms: C_7  and  N_8 
REMARK    4  A    between atoms: C_11  and  C_12 
REMARK    5  A    between atoms: C_14  and  S_15 
REMARK    6  A    between atoms: S_15  and  C_16 
REMARK    7  A    between atoms: C_16  and  C_17 
REMARK    8  A    between atoms: C_17  and  N_18 
ROOT
HETATM    1  N   UNL     1       0.103  -1.780  -6.121  1.00  0.00    -0.066 N 
HETATM    2  H   UNL     1       0.483  -2.261  -6.948  1.00  0.00     0.280 HD
HETATM    3  C   UNL     1      -1.367  -2.158  -6.010  1.00  0.00     0.246 C 
HETATM    4  C   UNL     1      -2.137  -1.669  -7.244  1.00  0.00     0.064 C 
HETATM    5  C   UNL     1      -1.932  -0.165  -7.468  1.00  0.00     0.014 C 
HETATM    6  C   UNL     1      -0.447   0.172  -7.552  1.00  0.00     0.028 C 
HETATM    7  C   UNL     1       0.309  -0.296  -6.318  1.00  0.00     0.235 C 
ENDROOT
BRANCH   4   8
HETATM    8  C   UNL     1      -3.605  -2.038  -7.197  1.00  0.00     0.044 A 
HETATM    9  N   UNL     1      -4.037  -2.831  -8.199  1.00  0.00    -0.227 NA
HETATM   10  C   UNL     1      -5.345  -3.146  -8.232  1.00  0.00     0.188 A 
HETATM   11  N   UNL     1      -6.251  -2.733  -7.337  1.00  0.00    -0.235 NA
HETATM   12  C   UNL     1      -5.786  -1.959  -6.339  1.00  0.00     0.121 A 
HETATM   13  C   UNL     1      -4.467  -1.575  -6.221  1.00  0.00     0.047 A 
BRANCH  10  14
HETATM   14  S   UNL     1      -5.880  -4.176  -9.573  1.00  0.00    -0.088 SA
BRANCH  14  15
HETATM   15  C   UNL     1      -7.628  -3.678  -9.679  1.00  0.00     0.110 C 
BRANCH  15  16
HETATM   16  C   UNL     1      -8.274  -4.369 -10.883  1.00  0.00     0.245 C 
BRANCH  16  17
HETATM   17  N   UNL     1      -9.727  -3.960 -11.049  1.00  0.00    -0.070 N 
HETATM   18  H   UNL     1     -10.214  -4.148 -10.161  1.00  0.00     0.279 HD
HETATM   19  C   UNL     1     -10.454  -4.775 -12.115  1.00  0.00     0.235 C 
HETATM   20  C   UNL     1     -10.792  -3.772 -13.198  1.00  0.00     0.029 C 
HETATM   21  C   UNL     1     -11.054  -2.502 -12.418  1.00  0.00     0.029 C 
HETATM   22  C   UNL     1      -9.934  -2.494 -11.398  1.00  0.00     0.235 C 
ENDBRANCH  16  17
ENDBRANCH  15  16
ENDBRANCH  14  15
ENDBRANCH  10  14
ENDBRANCH   4   8
BRANCH   1  23
HETATM   23  C   UNL     1       0.931  -2.281  -4.945  1.00  0.00     0.280 C 
BRANCH  23  24
HETATM   24  C   UNL     1       0.989  -3.769  -4.864  1.00  0.00     0.010 A 
HETATM   25  S   UNL     1       0.273  -4.587  -3.535  1.00  0.00    -0.075 SA
HETATM   26  C   UNL     1       0.720  -6.105  -4.147  1.00  0.00     0.076 A 
HETATM   27  C   UNL     1       1.413  -6.014  -5.329  1.00  0.00     0.038 A 
HETATM   28  C   UNL     1       1.584  -4.658  -5.740  1.00  0.00     0.019 A 
BRANCH  26  29
HETATM   29  N   UNL     1       0.331  -7.168  -3.369  1.00  0.00    -0.322 N 
HETATM   30  C   UNL     1       0.535  -8.484  -3.739  1.00  0.00     0.218 C 
HETATM   31  C   UNL     1       0.063  -9.460  -2.692  1.00  0.00     0.117 C 
HETATM   32  O   UNL     1       0.999  -8.868  -4.808  1.00  0.00    -0.274 OA
HETATM   33  H   UNL     1      -0.129  -6.962  -2.492  1.00  0.00     0.169 HD
ENDBRANCH  26  29
ENDBRANCH  23  24
ENDBRANCH   1  23
TORSDOF 8
