REMARK  5 active torsions:
REMARK  status: ('A' for Active; 'I' for Inactive)
REMARK    1  A    between atoms: C_5  and  C_6 
REMARK    2  A    between atoms: C_9  and  O_10 
REMARK    3  A    between atoms: N_14  and  C_15 
REMARK    4  A    between atoms: C_15  and  C_16 
REMARK       I    between atoms: C_16  and  N_17 
REMARK    5  A    between atoms: N_17  and  C_18 
ROOT
HETATM    1  C   UNL     1       1.424  -0.137   0.004  1.00  0.00     0.156 C 
HETATM    2  N   UNL     1       2.866  -0.104  -0.055  1.00  0.00    -0.346 N 
HETATM    3  C   UNL     1       3.640   1.003   0.000  1.00  0.00     0.113 A 
HETATM    4  C   UNL     1       4.954   0.655  -0.155  1.00  0.00     0.014 A 
HETATM    5  C   UNL     1       5.822   1.858  -0.094  1.00  0.00     0.158 A 
HETATM    6  N   UNL     1       4.796   2.889   0.216  1.00  0.00    -0.325 N 
HETATM    7  C   UNL     1       3.490   2.393   0.260  1.00  0.00     0.272 A 
HETATM    8  O   UNL     1       2.482   2.992   0.592  1.00  0.00    -0.266 OA
HETATM    9  C   UNL     1       5.030  -0.749  -0.193  1.00  0.00     0.002 A 
HETATM   10  C   UNL     1       3.700  -1.214  -0.132  1.00  0.00     0.045 A 
HETATM   11  C   UNL     1       6.080  -1.685  -0.239  1.00  0.00     0.014 A 
HETATM   12  C   UNL     1       5.783  -3.051  -0.228  1.00  0.00     0.001 A 
HETATM   13  C   UNL     1       4.463  -3.492  -0.177  1.00  0.00     0.002 A 
HETATM   14  C   UNL     1       3.400  -2.585  -0.133  1.00  0.00     0.030 A 
ENDROOT
BRANCH   6  15
HETATM   15  C   UNL     1       5.172   4.161   0.814  1.00  0.00     0.229 C 
BRANCH  15  16
HETATM   16  C   UNL     1       5.680   3.995   2.256  1.00  0.00     0.235 C 
HETATM   17  N   UNL     1       5.079   2.976   2.966  1.00  0.00    -0.355 N 
HETATM   18  H   UNL     1       4.207   2.613   2.601  1.00  0.00     0.162 HD
HETATM   19  O   UNL     1       6.507   4.759   2.747  1.00  0.00    -0.272 OA
BRANCH  17  20
HETATM   20  C   UNL     1       5.447   2.619   4.329  1.00  0.00     0.084 C 
HETATM   21  C   UNL     1       4.572   3.344   5.358  1.00  0.00     0.025 C 
HETATM   22  C   UNL     1       3.146   2.796   5.418  1.00  0.00     0.002 C 
HETATM   23  C   UNL     1       3.126   1.283   5.619  1.00  0.00     0.000 C 
HETATM   24  C   UNL     1       3.947   0.565   4.554  1.00  0.00     0.002 C 
HETATM   25  C   UNL     1       5.380   1.095   4.502  1.00  0.00     0.025 C 
ENDBRANCH  17  20
ENDBRANCH  15  16
ENDBRANCH   6  15
BRANCH   5  26
HETATM   26  C   UNL     1       6.452   2.000  -1.464  1.00  0.00    -0.030 A 
HETATM   27  C   UNL     1       5.807   2.645  -2.531  1.00  0.00     0.012 A 
HETATM   28  C   UNL     1       6.406   2.721  -3.791  1.00  0.00     0.037 A 
HETATM   29  C   UNL     1       7.659   2.153  -4.022  1.00  0.00     0.068 A 
HETATM   30  C   UNL     1       8.314   1.512  -2.973  1.00  0.00     0.037 A 
HETATM   31  C   UNL     1       7.718   1.440  -1.706  1.00  0.00     0.012 A 
BRANCH  29  32
HETATM   32  O   UNL     1       8.120   2.287  -5.302  1.00  0.00    -0.356 OA
HETATM   33  C   UNL     1       9.392   1.724  -5.591  1.00  0.00     0.210 C 
ENDBRANCH  29  32
ENDBRANCH   5  26
TORSDOF 5
