REMARK  3 active torsions:
REMARK  status: ('A' for Active; 'I' for Inactive)
REMARK    1  A    between atoms: O_2  and  C_3 
REMARK    2  A    between atoms: C_7  and  C_8 
REMARK    3  A    between atoms: C_19  and  N_20 
ROOT
HETATM    1  C   UNL     1       4.879  -5.026  -1.909  1.00  0.00     0.244 A 
HETATM    2  N   UNL     1       3.866  -5.740  -2.651  1.00  0.00    -0.151 N 
HETATM    3  C   UNL     1       3.436  -6.975  -2.238  1.00  0.00     0.734 A 
HETATM    4  N   UNL     1       2.515  -7.418  -3.066  1.00  0.00    -0.060 NA
HETATM    5  C   UNL     1       2.339  -6.440  -4.013  1.00  0.00     0.103 A 
HETATM    6  C   UNL     1       3.170  -5.352  -3.764  1.00  0.00     0.083 A 
HETATM    7  C   UNL     1       1.479  -6.412  -5.119  1.00  0.00     0.034 A 
HETATM    8  C   UNL     1       1.479  -5.281  -5.942  1.00  0.00     0.002 A 
HETATM    9  C   UNL     1       2.316  -4.198  -5.668  1.00  0.00     0.002 A 
HETATM   10  C   UNL     1       3.182  -4.207  -4.569  1.00  0.00     0.033 A 
HETATM   11  N   UNL     1       3.925  -7.592  -1.139  1.00  0.00    -0.033 NA
HETATM   12  C   UNL     1       4.813  -6.995  -0.431  1.00  0.00     0.193 A 
HETATM   13  N   UNL     1       5.341  -5.730  -0.714  1.00  0.00    -0.339 N 
HETATM   14  H   UNL     1       6.118  -5.369  -0.183  1.00  0.00     0.164 HD
ENDROOT
BRANCH   1  15
HETATM   15  C   UNL     1       6.102  -4.730  -2.759  1.00  0.00    -0.014 A 
HETATM   16  C   UNL     1       6.838  -5.769  -3.360  1.00  0.00     0.033 A 
HETATM   17  C   UNL     1       7.951  -5.484  -4.158  1.00  0.00     0.044 A 
HETATM   18  C   UNL     1       8.337  -4.160  -4.375  1.00  0.00     0.085 A 
HETATM   19 BR   UNL     1       8.888  -6.933  -4.943  1.00  0.00    -0.048 Br
HETATM   20  C   UNL     1       7.640  -3.124  -3.751  1.00  0.00     0.039 A 
HETATM   21  C   UNL     1       6.530  -3.405  -2.949  1.00  0.00     0.014 A 
BRANCH  18  22
HETATM   22  O   UNL     1       9.442  -3.892  -5.138  1.00  0.00    -0.355 OA
HETATM   23  C   UNL     1       9.123  -3.102  -6.284  1.00  0.00     0.210 C 
ENDBRANCH  18  22
ENDBRANCH   1  15
BRANCH  12  24
HETATM   24  N   UNL     1       5.355  -7.544   0.675  1.00  0.00    -0.272 NA
HETATM   25  H   UNL     1       4.870  -8.402   0.931  1.00  0.00     0.127 HD
HETATM   26  H   UNL     1       5.463  -6.938   1.478  1.00  0.00     0.127 HD
ENDBRANCH  12  24
TORSDOF 3
