REMARK  3 active torsions:
REMARK  status: ('A' for Active; 'I' for Inactive)
REMARK    1  A    between atoms: C_4  and  C_5 
REMARK    2  A    between atoms: C_11  and  N_12 
REMARK    3  A    between atoms: C_14  and  C_15 
ROOT
HETATM    1  C   UNL     1       2.751   0.172  -0.218  1.00  0.00    -0.006 A 
HETATM    2  C   UNL     1       3.456   1.414  -0.083  1.00  0.00     0.063 A 
HETATM    3  C   UNL     1       4.851   1.373  -0.172  1.00  0.00     0.165 A 
HETATM    4  N   UNL     1       5.612   2.452  -0.082  1.00  0.00    -0.222 NA
HETATM    5  C   UNL     1       5.007   3.621   0.109  1.00  0.00     0.237 A 
HETATM    6  N   UNL     1       3.696   3.808   0.231  1.00  0.00    -0.229 NA
HETATM    7  C   UNL     1       2.938   2.709   0.143  1.00  0.00     0.117 A 
HETATM    8  N   UNL     1       5.519   0.237  -0.348  1.00  0.00    -0.228 NA
HETATM    9  C   UNL     1       4.870  -0.942  -0.446  1.00  0.00     0.070 A 
HETATM   10  C   UNL     1       3.490  -1.004  -0.399  1.00  0.00     0.046 A 
ENDROOT
BRANCH   9  11
HETATM   11  C   UNL     1       5.729  -2.134  -0.596  1.00  0.00    -0.004 A 
HETATM   12  C   UNL     1       5.376  -3.377  -0.032  1.00  0.00     0.053 A 
HETATM   13  C   UNL     1       6.233  -4.448  -0.189  1.00  0.00     0.106 A 
HETATM   14  C   UNL     1       7.415  -4.341  -0.880  1.00  0.00     0.105 A 
HETATM   15  O   UNL     1       6.033  -5.699   0.307  1.00  0.00    -0.323 OA
HETATM   16  O   UNL     1       8.108  -5.510  -0.910  1.00  0.00    -0.323 OA
HETATM   17  C   UNL     1       7.808  -3.154  -1.450  1.00  0.00     0.040 A 
HETATM   18  C   UNL     1       7.236  -6.362  -0.139  1.00  0.00     0.352 A 
HETATM   19  C   UNL     1       6.960  -2.049  -1.300  1.00  0.00     0.017 A 
ENDBRANCH   9  11
BRANCH   1  20
HETATM   20  C   UNL     1       1.286   0.043  -0.176  1.00  0.00    -0.025 A 
HETATM   21  C   UNL     1       0.491   0.473  -1.251  1.00  0.00     0.012 A 
HETATM   22  C   UNL     1      -0.898   0.331  -1.214  1.00  0.00     0.001 A 
HETATM   23  C   UNL     1      -1.511  -0.256  -0.110  1.00  0.00     0.000 A 
HETATM   24  C   UNL     1      -0.737  -0.700   0.960  1.00  0.00     0.001 A 
HETATM   25  C   UNL     1       0.651  -0.552   0.927  1.00  0.00     0.012 A 
ENDBRANCH   1  20
BRANCH   7  26
HETATM   26  N   UNL     1       1.577   2.984   0.250  1.00  0.00    -0.286 NA
HETATM   27  H   UNL     1       1.471   3.970   0.471  1.00  0.00     0.125 HD
HETATM   28  H   UNL     1       1.102   2.387   0.918  1.00  0.00     0.125 HD
ENDBRANCH   7  26
TORSDOF 3
