REMARK  7 active torsions:
REMARK  status: ('A' for Active; 'I' for Inactive)
REMARK    1  A    between atoms: C_4  and  C_5 
REMARK    2  A    between atoms: C_9  and  C_10 
REMARK       I    between atoms: C_10  and  N_11 
REMARK    3  A    between atoms: N_11  and  N_12 
REMARK       I    between atoms: N_12  and  C_13 
REMARK    4  A    between atoms: C_13  and  C_14 
REMARK    5  A    between atoms: C_14  and  C_15 
REMARK    6  A    between atoms: C_15  and  N_16 
REMARK    7  A    between atoms: C_15  and  C_20 
REMARK       I    between atoms: N_16  and  C_17 
REMARK       I    between atoms: C_17  and  N_18 
ROOT
HETATM    1  N   UNL     1       4.157  -3.293  -1.143  1.00  0.00    -0.267 N 
HETATM    2  C   UNL     1       5.455  -2.977  -1.491  1.00  0.00     0.238 C 
HETATM    3  O   UNL     1       5.872  -1.819  -1.516  1.00  0.00    -0.272 OA
HETATM    4  H   UNL     1       3.774  -4.151  -1.564  1.00  0.00     0.190 HD
ENDROOT
BRANCH   1   5
HETATM    5  N   UNL     1       3.276  -2.214  -0.954  1.00  0.00    -0.262 N 
HETATM    6  C   UNL     1       1.937  -2.325  -0.630  1.00  0.00     0.288 C 
HETATM    7  O   UNL     1       1.204  -1.354  -0.815  1.00  0.00    -0.264 OA
HETATM    8  H   UNL     1       3.581  -1.319  -1.336  1.00  0.00     0.190 HD
BRANCH   6   9
HETATM    9  C   UNL     1       1.444  -3.565  -0.084  1.00  0.00     0.121 A 
HETATM   10  N   UNL     1       2.187  -4.548   0.497  1.00  0.00    -0.272 N 
HETATM   11  N   UNL     1       1.487  -5.628   0.883  1.00  0.00    -0.174 NA
HETATM   12  H   UNL     1       3.193  -4.550   0.616  1.00  0.00     0.189 HD
HETATM   13  C   UNL     1       0.209  -5.302   0.619  1.00  0.00     0.089 A 
HETATM   14  C   UNL     1       0.143  -4.010   0.031  1.00  0.00     0.071 A 
BRANCH  13  15
HETATM   15  C   UNL     1      -0.903  -6.213   0.901  1.00  0.00    -0.006 A 
HETATM   16  C   UNL     1      -2.196  -5.719   1.129  1.00  0.00     0.014 A 
HETATM   17  C   UNL     1      -3.260  -6.594   1.370  1.00  0.00     0.001 A 
HETATM   18  C   UNL     1      -3.043  -7.970   1.382  1.00  0.00     0.000 A 
HETATM   19  C   UNL     1      -1.763  -8.474   1.162  1.00  0.00     0.001 A 
HETATM   20  C   UNL     1      -0.698  -7.600   0.927  1.00  0.00     0.014 A 
ENDBRANCH  13  15
ENDBRANCH   6   9
ENDBRANCH   1   5
BRANCH   2  21
HETATM   21  C   UNL     1       6.336  -4.154  -1.867  1.00  0.00     0.134 C 
BRANCH  21  22
HETATM   22  C   UNL     1       6.722  -5.081  -0.699  1.00  0.00     0.127 C 
BRANCH  22  23
HETATM   23  N   UNL     1       5.941  -6.309  -0.518  1.00  0.00    -0.339 N 
HETATM   24  C   UNL     1       4.674  -6.556  -0.924  1.00  0.00     0.292 C 
HETATM   25  N   UNL     1       4.196  -7.739  -0.477  1.00  0.00    -0.254 NA
HETATM   26  O   UNL     1       3.984  -5.808  -1.600  1.00  0.00    -0.254 OA
HETATM   27  H   UNL     1       4.473  -8.045   0.444  1.00  0.00     0.128 HD
HETATM   28  H   UNL     1       3.202  -7.854  -0.651  1.00  0.00     0.128 HD
HETATM   29  H   UNL     1       6.426  -7.083  -0.087  1.00  0.00     0.164 HD
ENDBRANCH  22  23
BRANCH  22  30
HETATM   30  C   UNL     1       6.966  -4.353   0.619  1.00  0.00    -0.035 A 
HETATM   31  C   UNL     1       6.145  -4.532   1.745  1.00  0.00     0.011 A 
HETATM   32  C   UNL     1       6.381  -3.819   2.924  1.00  0.00     0.024 A 
HETATM   33  C   UNL     1       7.439  -2.916   2.990  1.00  0.00     0.034 A 
HETATM   34 CL   UNL     1       7.724  -2.036   4.440  1.00  0.00    -0.084 Cl
HETATM   35  C   UNL     1       8.266  -2.723   1.888  1.00  0.00     0.024 A 
HETATM   36  C   UNL     1       8.032  -3.439   0.711  1.00  0.00     0.011 A 
ENDBRANCH  22  30
ENDBRANCH  21  22
ENDBRANCH   2  21
TORSDOF 7
