REMARK  7 active torsions:
REMARK  status: ('A' for Active; 'I' for Inactive)
REMARK    1  A    between atoms: C_2  and  C_3 
REMARK    2  A    between atoms: C_3  and  O_4 
REMARK    3  A    between atoms: O_4  and  C_5 
REMARK    4  A    between atoms: C_8  and  C_9 
REMARK    5  A    between atoms: C_9  and  N_10 
REMARK    6  A    between atoms: N_10  and  C_11 
REMARK    7  A    between atoms: C_18  and  C_19 
REMARK       I    between atoms: C_19  and  N_20 
ROOT
HETATM    1  C   UNL     1       4.484  -3.284  -9.219  1.00  0.00     0.009 A 
HETATM    2  C   UNL     1       5.824  -3.449  -9.614  1.00  0.00     0.039 A 
HETATM    3  C   UNL     1       6.141  -3.824 -10.936  1.00  0.00     0.030 A 
HETATM    4  C   UNL     1       5.107  -3.990 -11.847  1.00  0.00     0.063 A 
HETATM    5  N   UNL     1       5.712  -4.336 -13.022  1.00  0.00    -0.277 N 
HETATM    6  H   UNL     1       5.261  -4.531 -13.909  1.00  0.00     0.189 HD
HETATM    7  N   UNL     1       7.052  -4.415 -12.958  1.00  0.00    -0.168 NA
HETATM    8  C   UNL     1       7.332  -4.097 -11.673  1.00  0.00     0.156 A 
HETATM    9  C   UNL     1       3.767  -3.797 -11.514  1.00  0.00     0.034 A 
HETATM   10  C   UNL     1       3.484  -3.429 -10.189  1.00  0.00     0.026 A 
ENDROOT
BRANCH   1  11
HETATM   11  N   UNL     1       4.229  -2.842  -7.914  1.00  0.00    -0.289 NA
HETATM   12  H   UNL     1       4.980  -3.092  -7.273  1.00  0.00     0.128 HD
BRANCH  11  13
HETATM   13  C   UNL     1       2.914  -3.053  -7.328  1.00  0.00     0.131 C 
BRANCH  13  14
HETATM   14  C   UNL     1       2.923  -2.599  -5.887  1.00  0.00    -0.045 A 
HETATM   15  C   UNL     1       3.040  -1.237  -5.574  1.00  0.00     0.011 A 
HETATM   16  C   UNL     1       3.027  -0.802  -4.245  1.00  0.00     0.037 A 
HETATM   17  C   UNL     1       2.894  -1.724  -3.208  1.00  0.00     0.068 A 
HETATM   18  C   UNL     1       2.801  -3.084  -3.513  1.00  0.00     0.037 A 
HETATM   19  C   UNL     1       2.815  -3.522  -4.840  1.00  0.00     0.011 A 
BRANCH  17  20
HETATM   20  O   UNL     1       2.852  -1.433  -1.873  1.00  0.00    -0.351 OA
BRANCH  20  21
HETATM   21  C   UNL     1       2.748  -0.054  -1.514  1.00  0.00     0.179 C 
BRANCH  21  22
HETATM   22  C   UNL     1       2.538   0.049   0.005  1.00  0.00     0.002 C 
HETATM   23  C   UNL     1       1.235  -0.629   0.434  1.00  0.00     0.011 C 
HETATM   24  C   UNL     1       2.545   1.511   0.446  1.00  0.00     0.011 C 
ENDBRANCH  21  22
ENDBRANCH  20  21
ENDBRANCH  17  20
ENDBRANCH  13  14
ENDBRANCH  11  13
ENDBRANCH   1  11
BRANCH   8  25
HETATM   25  C   UNL     1       8.714  -4.065 -11.178  1.00  0.00     0.270 C 
HETATM   26  N   UNL     1       9.654  -4.364 -12.126  1.00  0.00    -0.365 N 
HETATM   27  H   UNL     1       9.342  -4.580 -13.066  1.00  0.00     0.159 HD
HETATM   28  H   UNL     1      10.631  -4.368 -11.880  1.00  0.00     0.159 HD
HETATM   29  O   UNL     1       9.036  -3.800 -10.024  1.00  0.00    -0.266 OA
ENDBRANCH   8  25
TORSDOF 7
