REMARK  6 active torsions:
REMARK  status: ('A' for Active; 'I' for Inactive)
REMARK    1  A    between atoms: C_2  and  O_3 
REMARK    2  A    between atoms: O_3  and  C_4 
REMARK    3  A    between atoms: C_4  and  C_5 
REMARK    4  A    between atoms: C_6  and  O_7 
REMARK    5  A    between atoms: C_12  and  O_13 
REMARK    6  A    between atoms: C_17  and  C_18 
ROOT
HETATM    1  C   UNL     1       1.949   2.489  -0.426  1.00  0.00     0.133 C 
HETATM    2  C   UNL     1       1.889   4.048  -0.589  1.00  0.00     0.073 C 
HETATM    3  C   UNL     1       2.002   4.447  -2.070  1.00  0.00     0.047 C 
HETATM    4  C   UNL     1       0.617   4.697   0.030  1.00  0.00     0.097 C 
HETATM    5  C   UNL     1      -0.566   3.844  -0.223  1.00  0.00     0.042 A 
HETATM    6  C   UNL     1      -0.577   2.517  -0.599  1.00  0.00     0.030 A 
HETATM    7  C   UNL     1      -1.946   2.209  -0.648  1.00  0.00     0.190 A 
HETATM    8  N   UNL     1      -2.735   3.234  -0.351  1.00  0.00    -0.149 NA
HETATM    9  N   UNL     1      -1.869   4.228  -0.085  1.00  0.00    -0.279 N 
HETATM   10  H   UNL     1      -2.243   5.131   0.190  1.00  0.00     0.189 HD
HETATM   11  C   UNL     1       0.657   1.705  -0.800  1.00  0.00     0.074 C 
ENDROOT
BRANCH  11  12
HETATM   12  C   UNL     1       0.678   1.143  -2.219  1.00  0.00    -0.048 A 
HETATM   13  C   UNL     1       0.057   1.740  -3.330  1.00  0.00     0.011 A 
HETATM   14  C   UNL     1       0.133   1.155  -4.598  1.00  0.00     0.043 A 
HETATM   15  C   UNL     1       0.835  -0.030  -4.768  1.00  0.00     0.116 A 
HETATM   16  F   UNL     1       0.906  -0.589  -5.983  1.00  0.00    -0.206 F 
HETATM   17  C   UNL     1       1.464  -0.642  -3.694  1.00  0.00     0.043 A 
HETATM   18  C   UNL     1       1.388  -0.059  -2.428  1.00  0.00     0.011 A 
ENDBRANCH  11  12
BRANCH   1  19
HETATM   19  C   UNL     1       2.294   2.122   1.008  1.00  0.00     0.267 C 
HETATM   20  O   UNL     1       2.171   2.867   1.970  1.00  0.00    -0.265 OA
BRANCH  19  21
HETATM   21  O   UNL     1       2.788   0.852   1.055  1.00  0.00    -0.316 OA
BRANCH  21  22
HETATM   22  C   UNL     1       3.178   0.349   2.348  1.00  0.00     0.123 C 
HETATM   23  C   UNL     1       4.545  -0.304   2.190  1.00  0.00     0.040 C 
HETATM   24  C   UNL     1       2.131  -0.661   2.795  1.00  0.00     0.040 C 
ENDBRANCH  21  22
ENDBRANCH  19  21
ENDBRANCH   1  19
BRANCH   2  25
HETATM   25  O   UNL     1       3.055   4.639   0.020  1.00  0.00    -0.389 OA
HETATM   26  H   UNL     1       2.970   4.534   0.990  1.00  0.00     0.210 HD
ENDBRANCH   2  25
BRANCH   7  27
HETATM   27  O   UNL     1      -2.551   1.062  -0.964  1.00  0.00    -0.343 OA
HETATM   28  H   UNL     1      -1.896   0.426  -1.287  1.00  0.00     0.219 HD
ENDBRANCH   7  27
TORSDOF 6
