REMARK  5 active torsions:
REMARK  status: ('A' for Active; 'I' for Inactive)
REMARK    1  A    between atoms: N_2  and  C_4 
REMARK    2  A    between atoms: C_4  and  C_5 
REMARK    3  A    between atoms: C_8  and  C_9 
REMARK    4  A    between atoms: C_9  and  N_10 
REMARK       I    between atoms: N_10  and  C_11 
REMARK       I    between atoms: C_11  and  N_12 
REMARK    5  A    between atoms: N_12  and  C_13 
ROOT
HETATM    1  N   UNL     1       0.715   5.932  -3.634  1.00  0.00    -0.339 N 
HETATM    2  C   UNL     1       0.874   5.595  -4.941  1.00  0.00     0.322 C 
HETATM    3  N   UNL     1      -0.184   5.767  -5.775  1.00  0.00    -0.287 N 
HETATM    4  O   UNL     1       1.922   5.129  -5.385  1.00  0.00    -0.247 OA
HETATM    5  H   UNL     1      -0.182   6.327  -3.362  1.00  0.00     0.164 HD
HETATM    6  H   UNL     1      -0.035   5.502  -6.737  1.00  0.00     0.172 HD
ENDROOT
BRANCH   1   7
HETATM    7  C   UNL     1       1.805   5.954  -2.690  1.00  0.00     0.162 C 
BRANCH   7   8
HETATM    8  C   UNL     1       1.931   4.699  -1.853  1.00  0.00    -0.040 A 
HETATM    9  C   UNL     1       1.711   3.424  -2.387  1.00  0.00     0.009 A 
HETATM   10  C   UNL     1       1.924   2.275  -1.621  1.00  0.00     0.009 A 
HETATM   11  C   UNL     1       2.385   2.377  -0.302  1.00  0.00    -0.033 A 
HETATM   12  C   UNL     1       2.603   3.650   0.242  1.00  0.00     0.009 A 
HETATM   13  C   UNL     1       2.380   4.796  -0.528  1.00  0.00     0.009 A 
BRANCH  11  14
HETATM   14  C   UNL     1       2.701   1.140   0.492  1.00  0.00     0.272 C 
BRANCH  14  15
HETATM   15  N   UNL     1       4.185   0.844   0.553  1.00  0.00    -0.075 N 
HETATM   16  C   UNL     1       4.768   0.471  -0.782  1.00  0.00     0.269 C 
HETATM   17  H   UNL     1       4.640   1.721   0.833  1.00  0.00     0.279 HD
HETATM   18  C   UNL     1       4.504  -0.181   1.601  1.00  0.00     0.269 C 
ENDBRANCH  14  15
ENDBRANCH  11  14
ENDBRANCH   7   8
ENDBRANCH   1   7
BRANCH   3  19
HETATM   19  C   UNL     1      -1.379   6.342  -5.455  1.00  0.00     0.175 A 
HETATM   20  S   UNL     1      -2.466   6.477  -6.755  1.00  0.00    -0.050 SA
HETATM   21  C   UNL     1      -3.595   7.257  -5.711  1.00  0.00     0.037 A 
HETATM   22  C   UNL     1      -3.042   7.341  -4.429  1.00  0.00     0.076 A 
HETATM   23  C   UNL     1      -4.872   7.760  -6.006  1.00  0.00     0.021 A 
HETATM   24  N   UNL     1      -1.769   6.802  -4.293  1.00  0.00    -0.223 NA
HETATM   25  C   UNL     1      -3.796   7.953  -3.407  1.00  0.00     0.033 A 
HETATM   26  C   UNL     1      -5.069   8.460  -3.691  1.00  0.00     0.002 A 
HETATM   27  C   UNL     1      -5.598   8.364  -4.974  1.00  0.00     0.002 A 
ENDBRANCH   3  19
TORSDOF 5
