REMARK  7 active torsions:
REMARK  status: ('A' for Active; 'I' for Inactive)
REMARK    1  A    between atoms: C_2  and  O_3 
REMARK    2  A    between atoms: O_3  and  C_4 
REMARK       I    between atoms: C_4  and  N_5 
REMARK    3  A    between atoms: N_5  and  C_6 
REMARK    4  A    between atoms: C_7  and  N_8 
REMARK    5  A    between atoms: C_11  and  N_12 
REMARK    6  A    between atoms: N_12  and  C_13 
REMARK    7  A    between atoms: C_13  and  C_14 
ROOT
HETATM    1  C   UNL     1       4.844   0.662  -0.478  1.00  0.00     0.080 A 
HETATM    2  C   UNL     1       4.623   0.632  -1.878  1.00  0.00     0.127 A 
HETATM    3  N   UNL     1       4.454   1.801  -2.508  1.00  0.00    -0.332 N 
HETATM    4  H   UNL     1       4.340   1.804  -3.515  1.00  0.00     0.168 HD
HETATM    5  C   UNL     1       4.452   3.001  -1.924  1.00  0.00     0.081 A 
HETATM    6  C   UNL     1       4.658   3.081  -0.555  1.00  0.00     0.044 A 
HETATM    7  C   UNL     1       4.874   1.907   0.164  1.00  0.00     0.037 A 
ENDROOT
BRANCH   5   8
HETATM    8  N   UNL     1       4.216   4.074  -2.767  1.00  0.00    -0.275 NA
HETATM    9  H   UNL     1       3.316   4.500  -2.527  1.00  0.00     0.129 HD
BRANCH   8  10
HETATM   10  C   UNL     1       5.215   5.151  -2.679  1.00  0.00     0.132 C 
BRANCH  10  11
HETATM   11  C   UNL     1       5.121   5.994  -3.926  1.00  0.00    -0.045 A 
HETATM   12  C   UNL     1       4.066   6.908  -4.098  1.00  0.00     0.011 A 
HETATM   13  C   UNL     1       3.976   7.671  -5.264  1.00  0.00     0.043 A 
HETATM   14  C   UNL     1       4.937   7.524  -6.257  1.00  0.00     0.116 A 
HETATM   15  F   UNL     1       4.849   8.256  -7.374  1.00  0.00    -0.206 F 
HETATM   16  C   UNL     1       5.987   6.627  -6.108  1.00  0.00     0.043 A 
HETATM   17  C   UNL     1       6.078   5.859  -4.946  1.00  0.00     0.011 A 
ENDBRANCH  10  11
ENDBRANCH   8  10
ENDBRANCH   5   8
BRANCH   2  18
HETATM   18  N   UNL     1       4.744  -0.488  -2.675  1.00  0.00    -0.384 N 
HETATM   19  H   UNL     1       4.406  -1.350  -2.224  1.00  0.00     0.157 HD
HETATM   20  H   UNL     1       4.488  -0.470  -3.653  1.00  0.00     0.157 HD
ENDBRANCH   2  18
BRANCH   1  21
HETATM   21  N   UNL     1       5.035  -0.457   0.362  1.00  0.00    -0.299 N 
HETATM   22  C   UNL     1       4.718  -1.765   0.127  1.00  0.00     0.365 C 
HETATM   23  O   UNL     1       4.180  -2.211  -0.875  1.00  0.00    -0.238 OA
HETATM   24  H   UNL     1       5.323  -0.306   1.322  1.00  0.00     0.171 HD
BRANCH  22  25
HETATM   25  O   UNL     1       5.047  -2.486   1.225  1.00  0.00    -0.304 OA
BRANCH  25  26
HETATM   26  C   UNL     1       4.731  -3.888   1.185  1.00  0.00     0.176 C 
HETATM   27  C   UNL     1       3.310  -4.111   1.670  1.00  0.00     0.034 C 
ENDBRANCH  25  26
ENDBRANCH  22  25
ENDBRANCH   1  21
TORSDOF 7
