REMARK  8 active torsions:
REMARK  status: ('A' for Active; 'I' for Inactive)
REMARK    1  A    between atoms: C_2  and  O_3 
REMARK    2  A    between atoms: O_3  and  C_4 
REMARK    3  A    between atoms: C_5  and  O_6 
REMARK    4  A    between atoms: O_6  and  C_7 
REMARK    5  A    between atoms: C_10  and  C_11 
REMARK    6  A    between atoms: C_11  and  N_12 
REMARK    7  A    between atoms: N_12  and  C_13 
REMARK    8  A    between atoms: C_20  and  C_21 
REMARK       I    between atoms: C_21  and  N_22 
ROOT
HETATM    1  C   UNL     1      10.750   2.347   1.562  1.00  0.00     0.009 A 
HETATM    2  C   UNL     1      11.290   2.460   2.857  1.00  0.00     0.039 A 
HETATM    3  C   UNL     1      12.672   2.675   3.041  1.00  0.00     0.030 A 
HETATM    4  C   UNL     1      13.491   2.736   1.922  1.00  0.00     0.063 A 
HETATM    5  N   UNL     1      14.752   2.938   2.407  1.00  0.00    -0.277 N 
HETATM    6  H   UNL     1      15.608   3.027   1.871  1.00  0.00     0.189 HD
HETATM    7  N   UNL     1      14.828   3.019   3.746  1.00  0.00    -0.168 NA
HETATM    8  C   UNL     1      13.548   2.855   4.152  1.00  0.00     0.156 A 
HETATM    9  C   UNL     1      13.008   2.588   0.622  1.00  0.00     0.034 A 
HETATM   10  C   UNL     1      11.629   2.379   0.472  1.00  0.00     0.026 A 
ENDROOT
BRANCH   1  11
HETATM   11  N   UNL     1       9.384   2.065   1.440  1.00  0.00    -0.289 NA
HETATM   12  H   UNL     1       8.852   2.388   2.247  1.00  0.00     0.128 HD
BRANCH  11  13
HETATM   13  C   UNL     1       8.702   2.332   0.183  1.00  0.00     0.131 C 
BRANCH  13  14
HETATM   14  C   UNL     1       7.222   2.074   0.346  1.00  0.00    -0.042 A 
HETATM   15  C   UNL     1       6.305   3.136   0.378  1.00  0.00     0.048 A 
HETATM   16  C   UNL     1       4.932   2.893   0.516  1.00  0.00     0.102 A 
HETATM   17  C   UNL     1       4.465   1.568   0.621  1.00  0.00     0.102 A 
HETATM   18  C   UNL     1       5.380   0.511   0.613  1.00  0.00     0.040 A 
HETATM   19  C   UNL     1       6.747   0.763   0.478  1.00  0.00     0.011 A 
BRANCH  16  20
HETATM   20  O   UNL     1       3.970   3.873   0.542  1.00  0.00    -0.349 OA
BRANCH  20  21
HETATM   21  C   UNL     1       4.398   5.231   0.547  1.00  0.00     0.171 C 
HETATM   22  C   UNL     1       3.165   6.110   0.652  1.00  0.00     0.034 C 
ENDBRANCH  20  21
ENDBRANCH  16  20
BRANCH  17  23
HETATM   23  O   UNL     1       3.105   1.414   0.741  1.00  0.00    -0.349 OA
BRANCH  23  24
HETATM   24  C   UNL     1       2.580   0.092   0.664  1.00  0.00     0.171 C 
HETATM   25  C   UNL     1       1.065   0.190   0.671  1.00  0.00     0.034 C 
ENDBRANCH  23  24
ENDBRANCH  17  23
ENDBRANCH  13  14
ENDBRANCH  11  13
ENDBRANCH   1  11
BRANCH   8  26
HETATM   26  C   UNL     1      13.189   2.876   5.576  1.00  0.00     0.270 C 
HETATM   27  N   UNL     1      14.253   3.055   6.418  1.00  0.00    -0.365 N 
HETATM   28  H   UNL     1      15.178   3.155   6.015  1.00  0.00     0.159 HD
HETATM   29  H   UNL     1      14.106   3.082   7.414  1.00  0.00     0.159 HD
HETATM   30  O   UNL     1      12.048   2.750   6.010  1.00  0.00    -0.266 OA
ENDBRANCH   8  26
TORSDOF 8
