REMARK  4 active torsions:
REMARK  status: ('A' for Active; 'I' for Inactive)
REMARK    1  A    between atoms: C_5  and  C_6 
REMARK    2  A    between atoms: C_6  and  N_7 
REMARK    3  A    between atoms: C_6  and  C_18 
REMARK    4  A    between atoms: N_7  and  C_8 
ROOT
HETATM    1  C   UNL     1       2.799   2.022   0.798  1.00  0.00     0.290 C 
ENDROOT
BRANCH   1   2
HETATM    2  C   UNL     1       1.442   1.369   0.996  1.00  0.00     0.021 A 
HETATM    3  C   UNL     1       1.231  -0.018   0.916  1.00  0.00     0.055 A 
HETATM    4  C   UNL     1      -0.040  -0.548   1.131  1.00  0.00     0.117 A 
HETATM    5  C   UNL     1      -1.121   0.269   1.437  1.00  0.00     0.045 A 
HETATM    6  F   UNL     1      -0.218  -1.872   1.037  1.00  0.00    -0.206 F 
HETATM    7  C   UNL     1      -0.929   1.645   1.530  1.00  0.00     0.046 A 
HETATM    8  C   UNL     1       0.340   2.179   1.313  1.00  0.00     0.125 A 
HETATM    9  F   UNL     1       0.497   3.509   1.393  1.00  0.00    -0.205 F 
ENDBRANCH   1   2
BRANCH   1  10
HETATM   10  N   UNL     1       3.630   1.446  -0.285  1.00  0.00     0.101 N 
HETATM   11  H   UNL     1       3.892   0.502   0.004  1.00  0.00     0.317 HD
BRANCH  10  12
HETATM   12  C   UNL     1       3.047   1.425  -1.634  1.00  0.00     0.225 C 
HETATM   13  C   UNL     1       4.097   0.799  -2.584  1.00  0.00     0.069 C 
HETATM   14  C   UNL     1       5.274   1.744  -2.774  1.00  0.00     0.190 C 
HETATM   15  N   UNL     1       4.760   3.039  -3.352  1.00  0.00    -0.067 N 
HETATM   16  C   UNL     1       6.313   1.359  -3.808  1.00  0.00     0.035 C 
HETATM   17  H   UNL     1       4.239   2.824  -4.214  1.00  0.00     0.280 HD
HETATM   18  C   UNL     1       3.823   3.739  -2.419  1.00  0.00     0.237 C 
HETATM   19  C   UNL     1       5.992   3.790  -3.782  1.00  0.00     0.235 C 
HETATM   20  C   UNL     1       2.634   2.813  -2.171  1.00  0.00     0.063 C 
HETATM   21  C   UNL     1       7.002   2.690  -4.114  1.00  0.00     0.030 C 
ENDBRANCH  10  12
ENDBRANCH   1  10
BRANCH   1  22
HETATM   22  C   UNL     1       3.631   2.084   2.076  1.00  0.00    -0.018 A 
HETATM   23  C   UNL     1       4.173   3.308   2.497  1.00  0.00     0.029 A 
HETATM   24  C   UNL     1       4.952   3.342   3.643  1.00  0.00     0.116 A 
HETATM   25  N   UNL     1       5.233   2.256   4.388  1.00  0.00    -0.273 NA
HETATM   26  C   UNL     1       4.704   1.085   3.981  1.00  0.00     0.116 A 
HETATM   27  C   UNL     1       3.916   0.948   2.847  1.00  0.00     0.029 A 
ENDBRANCH   1  22
TORSDOF 4
