REMARK  8 active torsions:
REMARK  status: ('A' for Active; 'I' for Inactive)
REMARK    1  A    between atoms: C_3  and  N_4 
REMARK       I    between atoms: N_4  and  C_5 
REMARK    2  A    between atoms: C_5  and  C_6 
REMARK    3  A    between atoms: C_6  and  N_7 
REMARK    4  A    between atoms: N_10  and  C_11 
REMARK    5  A    between atoms: C_11  and  C_12 
REMARK    6  A    between atoms: C_12  and  C_13 
REMARK       I    between atoms: C_13  and  N_14 
REMARK    7  A    between atoms: N_14  and  C_15 
REMARK    8  A    between atoms: C_15  and  C_16 
ROOT
HETATM    1  N   UNL     1       4.989   2.633  -0.192  1.00  0.00    -0.289 N 
HETATM    2  C   UNL     1       6.254   2.186   0.195  1.00  0.00     0.332 C 
HETATM    3  O   UNL     1       7.042   2.971   0.736  1.00  0.00    -0.246 OA
HETATM    4  N   UNL     1       6.585   0.841  -0.048  1.00  0.00    -0.265 N 
HETATM    5  C   UNL     1       5.702  -0.089  -0.615  1.00  0.00     0.271 C 
HETATM    6  O   UNL     1       5.921  -1.297  -0.664  1.00  0.00    -0.266 OA
HETATM    7  C   UNL     1       4.495   0.499  -1.126  1.00  0.00     0.100 A 
HETATM    8  C   UNL     1       4.148   1.807  -0.928  1.00  0.00     0.062 A 
HETATM    9  S   UNL     1       3.335  -0.371  -2.011  1.00  0.00    -0.094 SA
HETATM   10  C   UNL     1       2.347   1.020  -2.168  1.00  0.00     0.053 A 
HETATM   11  C   UNL     1       2.898   2.117  -1.538  1.00  0.00     0.038 A 
ENDROOT
BRANCH   4  12
HETATM   12  C   UNL     1       7.891   0.425   0.496  1.00  0.00     0.146 C 
BRANCH  12  13
HETATM   13  C   UNL     1       8.444  -0.947   0.121  1.00  0.00     0.123 C 
BRANCH  13  14
HETATM   14  C   UNL     1       9.870  -1.128   0.589  1.00  0.00     0.219 C 
HETATM   15  N   UNL     1      10.382  -2.358   0.249  1.00  0.00    -0.357 N 
HETATM   16  H   UNL     1       9.782  -3.042  -0.196  1.00  0.00     0.162 HD
HETATM   17  O   UNL     1      10.500  -0.269   1.193  1.00  0.00    -0.274 OA
BRANCH  15  18
HETATM   18  C   UNL     1      11.741  -2.747   0.544  1.00  0.00     0.161 C 
BRANCH  18  19
HETATM   19  C   UNL     1      12.339  -3.445  -0.650  1.00  0.00    -0.038 A 
HETATM   20  C   UNL     1      12.519  -4.837  -0.654  1.00  0.00     0.048 A 
HETATM   21  C   UNL     1      13.029  -5.420  -1.796  1.00  0.00     0.105 A 
HETATM   22  C   UNL     1      13.354  -4.680  -2.908  1.00  0.00     0.105 A 
HETATM   23  O   UNL     1      13.261  -6.749  -1.972  1.00  0.00    -0.323 OA
HETATM   24  O   UNL     1      13.830  -5.449  -3.923  1.00  0.00    -0.323 OA
HETATM   25  C   UNL     1      13.191  -3.314  -2.943  1.00  0.00     0.040 A 
HETATM   26  C   UNL     1      13.771  -6.759  -3.322  1.00  0.00     0.352 A 
HETATM   27  C   UNL     1      12.677  -2.693  -1.801  1.00  0.00     0.012 A 
ENDBRANCH  18  19
ENDBRANCH  15  18
ENDBRANCH  13  14
ENDBRANCH  12  13
ENDBRANCH   4  12
BRANCH   1  28
HETATM   28  C   UNL     1       4.586   3.967   0.244  1.00  0.00     0.237 C 
BRANCH  28  29
HETATM   29  C   UNL     1       5.056   5.067  -0.701  1.00  0.00     0.240 C 
HETATM   30  N   UNL     1       6.331   5.521  -0.405  1.00  0.00    -0.325 N 
HETATM   31  H   UNL     1       6.947   4.819   0.010  1.00  0.00     0.169 HD
HETATM   32  O   UNL     1       4.358   5.437  -1.642  1.00  0.00    -0.271 OA
BRANCH  30  33
HETATM   33  C   UNL     1       6.944   6.674  -0.943  1.00  0.00     0.042 A 
HETATM   34  C   UNL     1       6.280   7.895  -1.177  1.00  0.00    -0.035 A 
HETATM   35  C   UNL     1       4.842   8.159  -0.820  1.00  0.00     0.050 C 
HETATM   36  C   UNL     1       7.004   8.969  -1.733  1.00  0.00     0.011 A 
HETATM   37  C   UNL     1       8.366   8.857  -2.001  1.00  0.00     0.024 A 
HETATM   38  C   UNL     1       9.023   7.669  -1.710  1.00  0.00     0.036 A 
HETATM   39  C   UNL     1       8.326   6.587  -1.173  1.00  0.00     0.053 A 
HETATM   40 CL   UNL     1      10.711   7.531  -2.021  1.00  0.00    -0.084 Cl
ENDBRANCH  30  33
ENDBRANCH  28  29
ENDBRANCH   1  28
TORSDOF 8
