REMARK  3 active torsions:
REMARK  status: ('A' for Active; 'I' for Inactive)
REMARK    1  A    between atoms: N_5  and  C_6 
REMARK    2  A    between atoms: C_7  and  C_8 
REMARK       I    between atoms: C_8  and  N_9 
REMARK    3  A    between atoms: N_9  and  N_10 
ROOT
HETATM    1  C   UNL     1       0.927  -2.041   0.497  1.00  0.00     0.056 C 
HETATM    2  C   UNL     1       2.196  -1.209   0.439  1.00  0.00     0.158 C 
HETATM    3  C   UNL     1       2.083  -0.017  -0.514  1.00  0.00     0.267 C 
HETATM    4  O   UNL     1       1.203   0.836  -0.433  1.00  0.00    -0.269 OA
HETATM    5  N   UNL     1       3.213   0.006  -1.306  1.00  0.00    -0.230 N 
HETATM    6  C   UNL     1       4.034  -1.056  -0.987  1.00  0.00     0.333 C 
HETATM    7  O   UNL     1       5.180  -1.250  -1.368  1.00  0.00    -0.246 OA
HETATM    8  N   UNL     1       3.337  -1.913  -0.128  1.00  0.00    -0.309 N 
HETATM    9  C   UNL     1       4.049  -2.891   0.702  1.00  0.00     0.134 C 
HETATM   10  C   UNL     1       4.638  -2.255   1.983  1.00  0.00     0.061 C 
HETATM   11  C   UNL     1       3.753  -1.159   2.492  1.00  0.00    -0.018 A 
HETATM   12  C   UNL     1       2.651  -0.711   1.785  1.00  0.00     0.055 A 
HETATM   13  N   UNL     1       2.122   0.364   2.450  1.00  0.00    -0.356 N 
HETATM   14  H   UNL     1       1.341   0.929   2.133  1.00  0.00     0.166 HD
HETATM   15  C   UNL     1       2.913   0.669   3.537  1.00  0.00     0.043 A 
HETATM   16  C   UNL     1       3.924  -0.295   3.608  1.00  0.00    -0.001 A 
HETATM   17  C   UNL     1       2.827   1.737   4.438  1.00  0.00     0.030 A 
HETATM   18  C   UNL     1       3.796   1.819   5.442  1.00  0.00     0.002 A 
HETATM   19  C   UNL     1       4.804   0.863   5.547  1.00  0.00     0.001 A 
HETATM   20  C   UNL     1       4.880  -0.198   4.637  1.00  0.00     0.014 A 
ENDROOT
BRANCH   5  21
HETATM   21  C   UNL     1       3.608   1.175  -2.006  1.00  0.00     0.063 A 
HETATM   22  C   UNL     1       2.731   1.883  -2.854  1.00  0.00     0.060 A 
HETATM   23  C   UNL     1       3.089   3.150  -3.343  1.00  0.00     0.019 A 
HETATM   24  C   UNL     1       4.332   3.699  -3.034  1.00  0.00     0.001 A 
HETATM   25  C   UNL     1       5.231   2.979  -2.254  1.00  0.00     0.002 A 
HETATM   26  C   UNL     1       4.876   1.725  -1.749  1.00  0.00     0.031 A 
BRANCH  22  27
HETATM   27  C   UNL     1       1.458   1.316  -3.376  1.00  0.00     0.268 C 
HETATM   28  N   UNL     1       1.493  -0.038  -3.701  1.00  0.00    -0.290 N 
HETATM   29  H   UNL     1       2.375  -0.547  -3.713  1.00  0.00     0.183 HD
HETATM   30  O   UNL     1       0.483   2.033  -3.585  1.00  0.00    -0.266 OA
BRANCH  28  31
HETATM   31  N   UNL     1       0.364  -0.630  -4.305  1.00  0.00    -0.247 NA
HETATM   32  H   UNL     1       0.064   0.005  -5.056  1.00  0.00     0.143 HD
HETATM   33  H   UNL     1      -0.407  -0.553  -3.632  1.00  0.00     0.143 HD
ENDBRANCH  28  31
ENDBRANCH  22  27
ENDBRANCH   5  21
TORSDOF 3
