REMARK  7 active torsions:
REMARK  status: ('A' for Active; 'I' for Inactive)
REMARK    1  A    between atoms: C_2  and  N_3 
REMARK    2  A    between atoms: N_3  and  C_4 
REMARK    3  A    between atoms: C_6  and  N_7 
REMARK    4  A    between atoms: N_7  and  C_8 
REMARK    5  A    between atoms: C_8  and  C_9 
REMARK    6  A    between atoms: C_10  and  O_11 
REMARK    7  A    between atoms: C_14  and  O_15 
ROOT
HETATM    1  C   UNL     1       2.789  -1.369  -1.962  1.00  0.00     0.135 A 
HETATM    2  N   UNL     1       2.189  -1.247  -3.159  1.00  0.00    -0.052 NA
HETATM    3  C   UNL     1       2.066  -2.331  -3.940  1.00  0.00     0.702 A 
HETATM    4  N   UNL     1       2.514  -3.526  -3.562  1.00  0.00    -0.189 N 
HETATM    5  H   UNL     1       2.364  -4.301  -4.191  1.00  0.00     0.184 HD
HETATM    6  C   UNL     1       3.095  -3.712  -2.372  1.00  0.00     0.062 A 
HETATM    7  C   UNL     1       3.253  -2.617  -1.501  1.00  0.00     0.032 A 
HETATM    8  C   UNL     1       3.526  -4.994  -1.995  1.00  0.00     0.031 A 
HETATM    9  C   UNL     1       4.108  -5.200  -0.744  1.00  0.00     0.002 A 
HETATM   10  C   UNL     1       4.259  -4.132   0.135  1.00  0.00     0.001 A 
HETATM   11  C   UNL     1       3.837  -2.853  -0.235  1.00  0.00     0.017 A 
ENDROOT
BRANCH   3  12
HETATM   12  N   UNL     1       1.429  -2.257  -5.151  1.00  0.00    -0.220 N 
HETATM   13  H   UNL     1       1.487  -2.979  -5.853  1.00  0.00     0.178 HD
BRANCH  12  14
HETATM   14  C   UNL     1       0.962  -0.965  -5.648  1.00  0.00     0.179 C 
BRANCH  14  15
HETATM   15  C   UNL     1      -0.509  -1.001  -6.018  1.00  0.00    -0.006 A 
HETATM   16  C   UNL     1      -1.042   0.028  -6.823  1.00  0.00     0.078 A 
HETATM   17  C   UNL     1      -2.408   0.041  -7.142  1.00  0.00     0.074 A 
HETATM   18  C   UNL     1      -3.258  -0.950  -6.648  1.00  0.00     0.070 A 
HETATM   19  C   UNL     1      -2.737  -1.958  -5.839  1.00  0.00     0.037 A 
HETATM   20  C   UNL     1      -1.381  -1.981  -5.517  1.00  0.00     0.014 A 
BRANCH  16  21
HETATM   21  O   UNL     1      -0.138   0.973  -7.242  1.00  0.00    -0.355 OA
HETATM   22  C   UNL     1      -0.649   2.121  -7.912  1.00  0.00     0.210 C 
ENDBRANCH  16  21
BRANCH  18  23
HETATM   23  O   UNL     1      -4.603  -1.049  -6.876  1.00  0.00    -0.356 OA
HETATM   24  C   UNL     1      -5.225   0.023  -7.574  1.00  0.00     0.210 C 
ENDBRANCH  18  23
ENDBRANCH  14  15
ENDBRANCH  12  14
ENDBRANCH   3  12
BRANCH   1  25
HETATM   25  N   UNL     1       2.884  -0.243  -1.140  1.00  0.00    -0.272 NA
HETATM   26  H   UNL     1       3.819  -0.127  -0.755  1.00  0.00     0.129 HD
BRANCH  25  27
HETATM   27  C   UNL     1       2.326   1.029  -1.619  1.00  0.00     0.053 C 
HETATM   28  C   UNL     1       3.294   1.719  -2.580  1.00  0.00     0.026 C 
HETATM   29  C   UNL     1       2.073   1.920  -0.402  1.00  0.00     0.026 C 
ENDBRANCH  25  27
ENDBRANCH   1  25
TORSDOF 7
