REMARK  5 active torsions:
REMARK  status: ('A' for Active; 'I' for Inactive)
REMARK    1  A    between atoms: C_4  and  C_5 
REMARK       I    between atoms: C_5  and  N_6 
REMARK    2  A    between atoms: N_6  and  C_7 
REMARK    3  A    between atoms: C_7  and  C_8 
REMARK    4  A    between atoms: C_8  and  C_9 
REMARK    5  A    between atoms: C_18  and  O_19 
ROOT
HETATM    1  C   UNL     1       5.265   2.589   0.328  1.00  0.00     0.254 C 
HETATM    2  N   UNL     1       4.630   3.735  -0.104  1.00  0.00    -0.356 N 
HETATM    3  O   UNL     1       4.674   1.651   0.858  1.00  0.00    -0.268 OA
HETATM    4  H   UNL     1       5.098   4.302  -0.801  1.00  0.00     0.162 HD
ENDROOT
BRANCH   1   5
HETATM    5  C   UNL     1       6.732   2.486   0.090  1.00  0.00     0.066 A 
HETATM    6  C   UNL     1       7.519   3.634  -0.087  1.00  0.00     0.026 A 
HETATM    7  C   UNL     1       8.897   3.526  -0.316  1.00  0.00    -0.060 A 
HETATM    8  C   UNL     1       9.750   4.752  -0.462  1.00  0.00     0.048 C 
HETATM    9  C   UNL     1       9.488   2.256  -0.347  1.00  0.00     0.016 A 
HETATM   10  C   UNL     1       8.723   1.094  -0.165  1.00  0.00    -0.027 A 
HETATM   11  C   UNL     1       7.348   1.221   0.077  1.00  0.00     0.087 A 
HETATM   12  C   UNL     1       9.401  -0.247  -0.156  1.00  0.00     0.051 C 
BRANCH  11  13
HETATM   13  O   UNL     1       6.642   0.065   0.305  1.00  0.00    -0.359 OA
HETATM   14  H   UNL     1       5.740   0.315   0.607  1.00  0.00     0.218 HD
ENDBRANCH  11  13
ENDBRANCH   1   5
BRANCH   2  15
HETATM   15  C   UNL     1       3.183   3.860  -0.020  1.00  0.00     0.136 C 
BRANCH  15  16
HETATM   16  C   UNL     1       2.687   5.336  -0.044  1.00  0.00    -0.004 C 
HETATM   17  C   UNL     1       1.142   5.332   0.024  1.00  0.00     0.021 C 
HETATM   18  C   UNL     1       3.192   6.027   1.246  1.00  0.00     0.021 C 
BRANCH  16  19
HETATM   19  C   UNL     1       3.122   6.050  -1.337  1.00  0.00    -0.046 A 
HETATM   20  C   UNL     1       2.787   5.514  -2.593  1.00  0.00     0.027 A 
HETATM   21  C   UNL     1       3.190   6.169  -3.748  1.00  0.00     0.116 A 
HETATM   22  N   UNL     1       3.899   7.314  -3.751  1.00  0.00    -0.273 NA
HETATM   23  C   UNL     1       4.206   7.831  -2.546  1.00  0.00     0.116 A 
HETATM   24  C   UNL     1       3.849   7.247  -1.336  1.00  0.00     0.027 A 
ENDBRANCH  16  19
ENDBRANCH  15  16
ENDBRANCH   2  15
TORSDOF 5
