REMARK  7 active torsions:
REMARK  status: ('A' for Active; 'I' for Inactive)
REMARK    1  A    between atoms: O_2  and  C_3 
REMARK    2  A    between atoms: C_4  and  C_5 
REMARK       I    between atoms: C_5  and  N_6 
REMARK    3  A    between atoms: N_6  and  C_7 
REMARK    4  A    between atoms: C_7  and  N_8 
REMARK    5  A    between atoms: N_8  and  C_9 
REMARK    6  A    between atoms: C_10  and  N_11 
REMARK       I    between atoms: N_14  and  C_15 
REMARK    7  A    between atoms: C_15  and  C_16 
ROOT
HETATM    1  C   UNL     1       3.311  -0.144  -0.096  1.00  0.00     0.060 A 
HETATM    2  C   UNL     1       2.957   1.188  -0.414  1.00  0.00     0.057 A 
HETATM    3  C   UNL     1       2.416   1.435  -1.682  1.00  0.00     0.031 A 
HETATM    4  C   UNL     1       2.237   0.396  -2.601  1.00  0.00     0.002 A 
HETATM    5  C   UNL     1       2.601  -0.908  -2.272  1.00  0.00     0.002 A 
HETATM    6  C   UNL     1       3.140  -1.182  -1.016  1.00  0.00     0.032 A 
ENDROOT
BRANCH   1   7
HETATM    7  N   UNL     1       3.862  -0.399   1.181  1.00  0.00    -0.336 N 
HETATM    8  H   UNL     1       3.587   0.278   1.882  1.00  0.00     0.168 HD
BRANCH   7   9
HETATM    9  C   UNL     1       5.121  -0.870   1.469  1.00  0.00     0.157 C 
HETATM   10  S   UNL     1       5.548  -0.919   3.088  1.00  0.00    -0.047 SA
BRANCH   9  11
HETATM   11  N   UNL     1       5.922  -1.158   0.381  1.00  0.00    -0.201 NA
HETATM   12  C   UNL     1       7.309  -1.148   0.387  1.00  0.00     0.240 C 
HETATM   13  O   UNL     1       7.882  -0.273  -0.255  1.00  0.00    -0.274 OA
HETATM   14  H   UNL     1       5.640  -0.560  -0.386  1.00  0.00     0.139 HD
BRANCH  12  15
HETATM   15  C   UNL     1       8.047  -2.232   1.095  1.00  0.00     0.060 A 
HETATM   16  C   UNL     1       9.386  -2.061   1.483  1.00  0.00     0.083 A 
HETATM   17  C   UNL     1      10.099  -3.119   2.056  1.00  0.00     0.038 A 
HETATM   18  C   UNL     1       9.473  -4.343   2.282  1.00  0.00     0.003 A 
HETATM   19  C   UNL     1       8.137  -4.517   1.925  1.00  0.00     0.001 A 
HETATM   20  C   UNL     1       7.429  -3.472   1.326  1.00  0.00     0.019 A 
BRANCH  16  21
HETATM   21  O   UNL     1      10.071  -0.897   1.255  1.00  0.00    -0.355 OA
HETATM   22  C   UNL     1      10.012  -0.047   2.401  1.00  0.00     0.210 C 
ENDBRANCH  16  21
ENDBRANCH  12  15
ENDBRANCH   9  11
ENDBRANCH   7   9
ENDBRANCH   1   7
BRANCH   2  23
HETATM   23  N   UNL     1       3.296   2.210   0.479  1.00  0.00    -0.376 N 
HETATM   24  C   UNL     1       2.338   2.494   1.564  1.00  0.00     0.143 C 
HETATM   25  C   UNL     1       3.100   3.215   2.704  1.00  0.00     0.146 C 
HETATM   26  N   UNL     1       3.803   4.410   2.202  1.00  0.00    -0.345 N 
HETATM   27  C   UNL     1       3.588   5.702   2.656  1.00  0.00     0.253 C 
HETATM   28  C   UNL     1       4.639   4.193   1.013  1.00  0.00     0.146 C 
HETATM   29  O   UNL     1       3.842   6.706   2.001  1.00  0.00    -0.267 OA
HETATM   30  C   UNL     1       3.881   3.443  -0.095  1.00  0.00     0.143 C 
BRANCH  27  31
HETATM   31  C   UNL     1       3.065   5.872   4.028  1.00  0.00     0.032 A 
HETATM   32  C   UNL     1       3.755   5.309   5.110  1.00  0.00     0.017 A 
HETATM   33  C   UNL     1       3.274   5.494   6.405  1.00  0.00     0.001 A 
HETATM   34  C   UNL     1       2.114   6.241   6.616  1.00  0.00     0.000 A 
HETATM   35  C   UNL     1       1.438   6.815   5.535  1.00  0.00     0.001 A 
HETATM   36  C   UNL     1       1.918   6.639   4.237  1.00  0.00     0.017 A 
ENDBRANCH  27  31
ENDBRANCH   2  23
TORSDOF 7
