REMARK  4 active torsions:
REMARK  status: ('A' for Active; 'I' for Inactive)
REMARK    1  A    between atoms: C_4  and  C_5 
REMARK       I    between atoms: C_5  and  N_6 
REMARK    2  A    between atoms: N_6  and  C_7 
REMARK    3  A    between atoms: C_20  and  C_21 
REMARK    4  A    between atoms: C_24  and  O_25 
ROOT
HETATM    1  C   UNL     1       5.620   1.463  -0.039  1.00  0.00     0.263 C 
HETATM    2  N   UNL     1       5.424   2.776  -0.441  1.00  0.00    -0.323 N 
HETATM    3  O   UNL     1       6.685   1.039   0.405  1.00  0.00    -0.267 OA
HETATM    4  H   UNL     1       4.546   2.950  -0.919  1.00  0.00     0.169 HD
ENDROOT
BRANCH   1   5
HETATM    5  C   UNL     1       4.457   0.595  -0.202  1.00  0.00     0.074 A 
HETATM    6  S   UNL     1       2.885   1.217  -0.453  1.00  0.00    -0.089 SA
HETATM    7  C   UNL     1       2.165  -0.338  -0.387  1.00  0.00    -0.009 A 
HETATM    8  C   UNL     1       0.673  -0.439  -0.451  1.00  0.00     0.057 C 
HETATM    9  C   UNL     1       3.119  -1.338  -0.271  1.00  0.00    -0.012 A 
HETATM   10  C   UNL     1       4.435  -0.784  -0.136  1.00  0.00     0.038 A 
BRANCH   9  11
HETATM   11  C   UNL     1       2.782  -2.758  -0.214  1.00  0.00    -0.025 A 
HETATM   12  C   UNL     1       3.276  -3.552   0.826  1.00  0.00     0.015 A 
HETATM   13  C   UNL     1       2.950  -4.910   0.893  1.00  0.00     0.037 A 
HETATM   14  C   UNL     1       2.123  -5.492  -0.069  1.00  0.00     0.068 A 
HETATM   15  C   UNL     1       1.649  -4.712  -1.123  1.00  0.00     0.037 A 
HETATM   16  C   UNL     1       1.984  -3.354  -1.199  1.00  0.00     0.015 A 
BRANCH  14  17
HETATM   17  O   UNL     1       1.866  -6.821   0.124  1.00  0.00    -0.356 OA
HETATM   18  C   UNL     1       0.838  -7.395  -0.674  1.00  0.00     0.210 C 
ENDBRANCH  14  17
ENDBRANCH   9  11
ENDBRANCH   1   5
BRANCH   2  19
HETATM   19  C   UNL     1       6.291   3.872  -0.273  1.00  0.00     0.035 A 
HETATM   20  C   UNL     1       7.447   3.823   0.512  1.00  0.00     0.039 A 
HETATM   21  C   UNL     1       8.203   4.976   0.660  1.00  0.00    -0.022 A 
HETATM   22  C   UNL     1       7.845   6.169   0.025  1.00  0.00    -0.025 A 
HETATM   23  C   UNL     1       9.455   5.159   1.449  1.00  0.00     0.274 C 
HETATM   24  C   UNL     1       8.840   7.236   0.335  1.00  0.00     0.273 C 
HETATM   25  C   UNL     1       6.715   6.234  -0.770  1.00  0.00     0.012 A 
HETATM   26  N   UNL     1       9.641   6.671   1.500  1.00  0.00    -0.067 N 
HETATM   27  H   UNL     1       9.152   6.979   2.349  1.00  0.00     0.280 HD
HETATM   28  C   UNL     1      11.052   7.124   1.573  1.00  0.00     0.270 C 
HETATM   29  C   UNL     1       5.933   5.080  -0.904  1.00  0.00     0.030 A 
ENDBRANCH   2  19
TORSDOF 4
