REMARK  6 active torsions:
REMARK  status: ('A' for Active; 'I' for Inactive)
REMARK    1  A    between atoms: C_2  and  C_3 
REMARK    2  A    between atoms: C_3  and  N_4 
REMARK    3  A    between atoms: C_5  and  S_6 
REMARK    4  A    between atoms: S_6  and  C_7 
REMARK    5  A    between atoms: C_7  and  C_8 
REMARK       I    between atoms: C_8  and  N_9 
REMARK    6  A    between atoms: N_9  and  C_10 
ROOT
HETATM    1  C   UNL     1       6.050   3.230   3.853  1.00  0.00     0.231 C 
HETATM    2  N   UNL     1       4.807   3.841   3.961  1.00  0.00    -0.325 N 
HETATM    3  O   UNL     1       7.045   3.564   4.494  1.00  0.00    -0.272 OA
HETATM    4  H   UNL     1       4.040   3.200   3.787  1.00  0.00     0.169 HD
ENDROOT
BRANCH   1   5
HETATM    5  C   UNL     1       6.127   2.084   2.853  1.00  0.00     0.185 C 
BRANCH   5   6
HETATM    6  S   UNL     1       4.569   1.142   2.737  1.00  0.00    -0.083 SA
BRANCH   6   7
HETATM    7  C   UNL     1       5.143  -0.311   1.980  1.00  0.00     0.170 A 
HETATM    8  N   UNL     1       4.318  -1.282   1.466  1.00  0.00    -0.324 N 
HETATM    9  C   UNL     1       5.123  -2.324   1.046  1.00  0.00     0.065 A 
HETATM   10  C   UNL     1       6.419  -1.879   1.302  1.00  0.00     0.088 A 
HETATM   11  C   UNL     1       4.858  -3.577   0.478  1.00  0.00     0.034 A 
HETATM   12  N   UNL     1       6.409  -0.631   1.864  1.00  0.00    -0.222 NA
HETATM   13  C   UNL     1       7.514  -2.697   0.990  1.00  0.00     0.057 A 
HETATM   14  C   UNL     1       7.262  -3.951   0.429  1.00  0.00     0.036 A 
HETATM   15 CL   UNL     1       8.587  -4.984   0.044  1.00  0.00    -0.084 Cl
HETATM   16  C   UNL     1       5.960  -4.386   0.177  1.00  0.00     0.026 A 
BRANCH   8  17
HETATM   17  C   UNL     1       2.869  -1.261   1.391  1.00  0.00     0.131 C 
BRANCH  17  18
HETATM   18  C   UNL     1       2.317  -0.450   0.216  1.00  0.00     0.016 C 
HETATM   19  C   UNL     1       2.669  -1.038  -1.144  1.00  0.00     0.006 C 
ENDBRANCH  17  18
ENDBRANCH   8  17
ENDBRANCH   6   7
ENDBRANCH   5   6
ENDBRANCH   1   5
BRANCH   2  20
HETATM   20  C   UNL     1       4.564   4.901   4.869  1.00  0.00     0.054 A 
HETATM   21  C   UNL     1       5.346   6.093   4.924  1.00  0.00     0.040 A 
HETATM   22 BR   UNL     1       6.620   6.550   3.579  1.00  0.00    -0.049 Br
HETATM   23  C   UNL     1       5.107   7.077   5.896  1.00  0.00     0.053 A 
HETATM   24  C   UNL     1       4.069   6.848   6.765  1.00  0.00     0.064 A 
HETATM   25  C   UNL     1       3.267   5.713   6.682  1.00  0.00     0.065 A 
HETATM   26  N   UNL     1       3.604   7.626   7.819  1.00  0.00    -0.306 N 
HETATM   27  N   UNL     1       2.310   5.791   7.687  1.00  0.00    -0.306 N 
HETATM   28  C   UNL     1       3.475   4.732   5.740  1.00  0.00     0.063 A 
HETATM   29  C   UNL     1       2.509   6.977   8.409  1.00  0.00     0.325 A 
HETATM   30  H   UNL     1       1.588   5.124   7.905  1.00  0.00     0.170 HD
HETATM   31  O   UNL     1       1.858   7.366   9.361  1.00  0.00    -0.247 OA
HETATM   32  H   UNL     1       3.973   8.505   8.142  1.00  0.00     0.170 HD
ENDBRANCH   2  20
TORSDOF 6
