REMARK  9 active torsions:
REMARK  status: ('A' for Active; 'I' for Inactive)
REMARK    1  A    between atoms: N_6  and  C_7 
REMARK    2  A    between atoms: C_7  and  C_8 
REMARK    3  A    between atoms: C_8  and  N_9 
REMARK       I    between atoms: N_9  and  C_10 
REMARK    4  A    between atoms: C_10  and  C_12 
REMARK    5  A    between atoms: C_16  and  C_17 
REMARK    6  A    between atoms: C_17  and  N_18 
REMARK    7  A    between atoms: N_18  and  C_19 
REMARK       I    between atoms: N_18  and  C_22 
REMARK    8  A    between atoms: C_22  and  C_24 
REMARK    9  A    between atoms: C_29  and  C_33 
ROOT
HETATM    1  C   UNL     1       0.752   4.879   9.095  1.00  0.00     0.165 C 
ENDROOT
BRANCH   1   2
HETATM    2  C   UNL     1       1.458   3.564   8.852  1.00  0.00    -0.039 A 
HETATM    3  C   UNL     1       1.210   2.457   9.674  1.00  0.00     0.009 A 
HETATM    4  C   UNL     1       1.844   1.237   9.435  1.00  0.00     0.002 A 
HETATM    5  C   UNL     1       2.724   1.101   8.360  1.00  0.00     0.017 A 
HETATM    6  C   UNL     1       2.967   2.188   7.512  1.00  0.00     0.032 A 
HETATM    7  C   UNL     1       2.345   3.419   7.773  1.00  0.00     0.026 A 
BRANCH   6   8
HETATM    8  C   UNL     1       3.875   2.097   6.332  1.00  0.00     0.251 C 
HETATM    9  N   UNL     1       4.127   0.832   5.827  1.00  0.00    -0.355 N 
HETATM   10  H   UNL     1       3.526   0.069   6.112  1.00  0.00     0.162 HD
HETATM   11  O   UNL     1       4.348   3.112   5.825  1.00  0.00    -0.268 OA
BRANCH   9  12
HETATM   12  C   UNL     1       4.856   0.670   4.580  1.00  0.00     0.153 C 
BRANCH  12  13
HETATM   13  C   UNL     1       6.342   1.075   4.711  1.00  0.00     0.292 C 
BRANCH  13  14
HETATM   14  N   UNL     1       7.081   1.260   3.440  1.00  0.00     0.093 N 
HETATM   15  C   UNL     1       8.507   1.560   3.716  1.00  0.00     0.300 C 
HETATM   16  C   UNL     1       8.788   2.975   4.277  1.00  0.00     0.264 C 
HETATM   17  N   UNL     1       8.166   4.036   3.383  1.00  0.00    -0.072 N 
HETATM   18  C   UNL     1       8.386   5.420   3.913  1.00  0.00     0.269 C 
HETATM   19  H   UNL     1       8.637   3.971   2.472  1.00  0.00     0.279 HD
HETATM   20  C   UNL     1       6.690   3.761   3.133  1.00  0.00     0.264 C 
HETATM   21  C   UNL     1       6.516   2.329   2.587  1.00  0.00     0.300 C 
ENDBRANCH  13  14
ENDBRANCH  12  13
ENDBRANCH   9  12
ENDBRANCH   6   8
ENDBRANCH   1   2
BRANCH   1  22
HETATM   22  N   UNL     1       1.135   5.521  10.353  1.00  0.00    -0.337 N 
HETATM   23  C   UNL     1       0.231   5.427  11.440  1.00  0.00     0.280 C 
HETATM   24  O   UNL     1      -0.851   4.851  11.273  1.00  0.00    -0.265 OA
BRANCH  22  25
HETATM   25  C   UNL     1       2.456   6.098  10.444  1.00  0.00     0.088 A 
HETATM   26  C   UNL     1       3.123   6.853   9.318  1.00  0.00     0.027 A 
HETATM   27  C   UNL     1       2.644   7.594  10.524  1.00  0.00     0.027 A 
ENDBRANCH  22  25
BRANCH  23  28
HETATM   28  C   UNL     1       0.583   6.027  12.737  1.00  0.00     0.166 A 
HETATM   29  N   UNL     1       1.788   6.401  13.124  1.00  0.00    -0.235 NA
HETATM   30  C   UNL     1       1.728   6.984  14.379  1.00  0.00     0.075 A 
HETATM   31  C   UNL     1       2.809   7.546  15.084  1.00  0.00     0.034 A 
HETATM   32  C   UNL     1       0.464   7.011  14.967  1.00  0.00     0.036 A 
HETATM   33  C   UNL     1       2.595   8.129  16.341  1.00  0.00     0.014 A 
HETATM   34  C   UNL     1       1.321   8.154  16.919  1.00  0.00    -0.022 A 
HETATM   35  C   UNL     1       0.239   7.582  16.232  1.00  0.00     0.033 A 
HETATM   36  S   UNL     1      -0.663   6.273  13.901  1.00  0.00    -0.063 SA
BRANCH  34  37
HETATM   37  C   UNL     1       1.122   8.790  18.211  1.00  0.00     0.010 A 
HETATM   38  C   UNL     1       1.792   9.878  18.820  1.00  0.00     0.152 A 
HETATM   39  N   UNL     1       1.313  10.169  20.031  1.00  0.00    -0.187 NA
HETATM   40  N   UNL     1       0.333   9.270  20.207  1.00  0.00    -0.289 N 
HETATM   41  H   UNL     1      -0.191   9.292  21.076  1.00  0.00     0.188 HD
HETATM   42  C   UNL     1       0.179   8.421  19.148  1.00  0.00     0.123 A 
ENDBRANCH  34  37
ENDBRANCH  23  28
ENDBRANCH   1  22
TORSDOF 9
