REMARK  3 active torsions:
REMARK  status: ('A' for Active; 'I' for Inactive)
REMARK    1  A    between atoms: C_11  and  N_12 
REMARK       I    between atoms: N_12  and  C_13 
REMARK    2  A    between atoms: C_13  and  C_14 
REMARK    3  A    between atoms: C_15  and  O_16 
ROOT
HETATM    1  N   UNL     1       0.967   1.982  -1.710  1.00  0.00    -0.352 N 
HETATM    2  C   UNL     1       0.249   2.163  -2.880  1.00  0.00     0.254 C 
HETATM    3  O   UNL     1       0.706   1.955  -3.998  1.00  0.00    -0.268 OA
HETATM    4  H   UNL     1       0.532   2.332  -0.864  1.00  0.00     0.163 HD
ENDROOT
BRANCH   1   5
HETATM    5  C   UNL     1       2.408   1.755  -1.670  1.00  0.00     0.089 C 
HETATM    6  C   UNL     1       2.975   0.707  -2.638  1.00  0.00     0.063 C 
HETATM    7  C   UNL     1       2.612  -0.746  -2.318  1.00  0.00     0.121 C 
HETATM    8  N   UNL     1       2.925  -1.029  -0.861  1.00  0.00    -0.059 N 
HETATM    9  C   UNL     1       1.163  -1.132  -2.632  1.00  0.00     0.046 C 
HETATM   10  C   UNL     1       3.523  -1.684  -3.139  1.00  0.00     0.046 C 
HETATM   11  C   UNL     1       2.553  -0.029   0.213  1.00  0.00     0.121 C 
HETATM   12  H   UNL     1       3.943  -1.176  -0.800  1.00  0.00     0.279 HD
HETATM   13  H   UNL     1       2.527  -1.948  -0.615  1.00  0.00     0.279 HD
HETATM   14  C   UNL     1       1.091  -0.227   0.633  1.00  0.00     0.046 C 
HETATM   15  C   UNL     1       3.431  -0.371   1.435  1.00  0.00     0.046 C 
HETATM   16  C   UNL     1       2.873   1.406  -0.249  1.00  0.00     0.063 C 
ENDBRANCH   1   5
BRANCH   2  17
HETATM   17  C   UNL     1      -1.190   2.504  -2.746  1.00  0.00     0.066 A 
HETATM   18  C   UNL     1      -2.099   1.972  -3.674  1.00  0.00     0.081 A 
HETATM   19  C   UNL     1      -3.467   2.195  -3.538  1.00  0.00     0.039 A 
HETATM   20  C   UNL     1      -3.938   2.978  -2.485  1.00  0.00     0.026 A 
HETATM   21  C   UNL     1      -3.036   3.539  -1.582  1.00  0.00     0.035 A 
HETATM   22 CL   UNL     1      -3.615   4.515  -0.290  1.00  0.00    -0.084 Cl
HETATM   23  C   UNL     1      -1.664   3.311  -1.706  1.00  0.00     0.043 A 
BRANCH  18  24
HETATM   24  O   UNL     1      -1.709   1.205  -4.739  1.00  0.00    -0.360 OA
HETATM   25  H   UNL     1      -0.753   1.367  -4.897  1.00  0.00     0.217 HD
ENDBRANCH  18  24
ENDBRANCH   2  17
TORSDOF 3
