REMARK  2 active torsions:
REMARK  status: ('A' for Active; 'I' for Inactive)
REMARK    1  A    between atoms: C_3  and  C_4 
REMARK    2  A    between atoms: C_19  and  O_20 
ROOT
HETATM    1  C   UNL     1       1.894   2.549  -0.015  1.00  0.00     0.137 C 
HETATM    2  N   UNL     1       2.217   3.062  -1.380  1.00  0.00    -0.278 NA
HETATM    3  C   UNL     1       1.152   3.759  -2.022  1.00  0.00     0.036 A 
HETATM    4  C   UNL     1       0.652   4.999  -1.559  1.00  0.00     0.053 A 
HETATM    5  N   UNL     1       1.087   5.620  -0.364  1.00  0.00    -0.356 N 
HETATM    6  C   UNL     1       1.440   4.958   0.790  1.00  0.00     0.041 A 
HETATM    7  C   UNL     1       1.743   3.661   0.956  1.00  0.00     0.056 A 
HETATM    8  C   UNL     1       2.048   3.470   2.381  1.00  0.00     0.251 A 
HETATM    9  O   UNL     1       2.410   2.438   2.911  1.00  0.00    -0.268 OA
HETATM   10  N   UNL     1       1.864   4.676   3.005  1.00  0.00    -0.351 N 
HETATM   11  C   UNL     1       1.497   5.707   2.094  1.00  0.00     0.180 A 
HETATM   12  C   UNL     1       0.620   3.194  -3.191  1.00  0.00     0.026 A 
HETATM   13  C   UNL     1      -0.384   3.842  -3.909  1.00  0.00     0.002 A 
HETATM   14  C   UNL     1      -0.862   5.072  -3.474  1.00  0.00     0.002 A 
HETATM   15  C   UNL     1      -0.345   5.646  -2.311  1.00  0.00     0.031 A 
HETATM   16  H   UNL     1       2.945   3.771  -1.253  1.00  0.00     0.128 HD
HETATM   17  H   UNL     1       0.694   6.545  -0.221  1.00  0.00     0.166 HD
HETATM   18  H   UNL     1       2.043   4.786   3.994  1.00  0.00     0.163 HD
ENDROOT
BRANCH   1  19
HETATM   19  C   UNL     1       0.805   1.485  -0.082  1.00  0.00    -0.002 A 
HETATM   20  C   UNL     1      -0.387   1.566   0.659  1.00  0.00     0.012 A 
HETATM   21  C   UNL     1      -1.329   0.532   0.619  1.00  0.00     0.001 A 
HETATM   22  C   UNL     1      -1.096  -0.602  -0.157  1.00  0.00     0.003 A 
HETATM   23  C   UNL     1       0.068  -0.695  -0.914  1.00  0.00     0.037 A 
HETATM   24  C   UNL     1       0.991   0.346  -0.886  1.00  0.00     0.073 A 
BRANCH  24  25
HETATM   25  O   UNL     1       2.079   0.227  -1.711  1.00  0.00    -0.360 OA
HETATM   26  H   UNL     1       2.384   1.141  -1.897  1.00  0.00     0.217 HD
ENDBRANCH  24  25
ENDBRANCH   1  19
TORSDOF 2
