REMARK  9 active torsions:
REMARK  status: ('A' for Active; 'I' for Inactive)
REMARK    1  A    between atoms: C_2  and  O_3 
REMARK    2  A    between atoms: O_3  and  C_4 
REMARK    3  A    between atoms: C_4  and  C_5 
REMARK    4  A    between atoms: C_7  and  C_8 
REMARK       I    between atoms: C_8  and  N_9 
REMARK    5  A    between atoms: N_9  and  N_10 
REMARK    6  A    between atoms: N_10  and  C_11 
REMARK    7  A    between atoms: C_11  and  N_12 
REMARK    8  A    between atoms: N_12  and  C_13 
REMARK    9  A    between atoms: C_13  and  C_14 
ROOT
HETATM    1  C   UNL     1      -5.110   9.864  -0.772  1.00  0.00     0.293 C 
HETATM    2  N   UNL     1      -4.623  11.123  -1.100  1.00  0.00    -0.262 N 
HETATM    3  O   UNL     1      -4.334   8.938  -0.529  1.00  0.00    -0.264 OA
HETATM    4  H   UNL     1      -5.219  11.945  -1.067  1.00  0.00     0.190 HD
ENDROOT
BRANCH   1   5
HETATM    5  C   UNL     1      -6.556   9.760  -0.736  1.00  0.00     0.145 A 
HETATM    6  O   UNL     1      -7.107   8.578  -0.312  1.00  0.00    -0.307 OA
HETATM    7  C   UNL     1      -8.463   8.704  -0.376  1.00  0.00     0.078 A 
HETATM    8  C   UNL     1      -8.798   9.960  -0.830  1.00  0.00     0.038 A 
HETATM    9  C   UNL     1      -7.577  10.640  -1.060  1.00  0.00     0.045 A 
BRANCH   7  10
HETATM   10  C   UNL     1      -9.267   7.524   0.037  1.00  0.00     0.240 C 
BRANCH  10  11
HETATM   11  O   UNL     1      -9.718   6.905  -1.167  1.00  0.00    -0.345 OA
BRANCH  11  12
HETATM   12  C   UNL     1     -10.465   5.768  -1.038  1.00  0.00     0.069 A 
HETATM   13  C   UNL     1     -10.998   5.265   0.150  1.00  0.00     0.038 A 
HETATM   14  C   UNL     1     -11.764   4.094   0.135  1.00  0.00     0.022 A 
HETATM   15  C   UNL     1     -11.994   3.427  -1.067  1.00  0.00     0.011 A 
HETATM   16  C   UNL     1     -11.466   3.921  -2.256  1.00  0.00     0.022 A 
HETATM   17 BR   UNL     1     -13.029   1.846  -1.082  1.00  0.00    -0.051 Br
HETATM   18  C   UNL     1     -10.706   5.092  -2.238  1.00  0.00     0.038 A 
ENDBRANCH  11  12
ENDBRANCH  10  11
ENDBRANCH   7  10
ENDBRANCH   1   5
BRANCH   2  19
HETATM   19  N   UNL     1      -3.239  11.358  -0.950  1.00  0.00    -0.274 N 
HETATM   20  H   UNL     1      -2.708  10.500  -0.797  1.00  0.00     0.189 HD
BRANCH  19  21
HETATM   21  C   UNL     1      -2.807  12.495  -0.315  1.00  0.00     0.186 C 
HETATM   22  S   UNL     1      -3.794  13.766   0.149  1.00  0.00    -0.040 SA
BRANCH  21  23
HETATM   23  N   UNL     1      -1.470  12.603  -0.100  1.00  0.00    -0.364 N 
HETATM   24  H   UNL     1      -1.181  13.459   0.366  1.00  0.00     0.162 HD
BRANCH  23  25
HETATM   25  C   UNL     1      -0.371  11.791  -0.617  1.00  0.00     0.154 C 
BRANCH  25  26
HETATM   26  C   UNL     1       0.565  12.597  -1.533  1.00  0.00     0.139 C 
HETATM   27  O   UNL     1       1.065  13.744  -0.813  1.00  0.00    -0.384 OA
HETATM   28  C   UNL     1       0.859  14.909  -1.621  1.00  0.00     0.168 C 
HETATM   29  C   UNL     1      -0.297  14.584  -2.536  1.00  0.00     0.029 C 
HETATM   30  C   UNL     1      -0.086  13.115  -2.810  1.00  0.00     0.035 C 
ENDBRANCH  25  26
ENDBRANCH  23  25
ENDBRANCH  21  23
ENDBRANCH  19  21
ENDBRANCH   2  19
TORSDOF 9
