REMARK  6 active torsions:
REMARK  status: ('A' for Active; 'I' for Inactive)
REMARK    1  A    between atoms: C_7  and  C_8 
REMARK    2  A    between atoms: C_8  and  C_9 
REMARK    3  A    between atoms: C_9  and  N_10 
REMARK    4  A    between atoms: C_12  and  C_13 
REMARK    5  A    between atoms: C_13  and  N_14 
REMARK    6  A    between atoms: C_36  and  O_37 
ROOT
HETATM    1  N   UNL     1       0.476  -1.541   0.431  1.00  0.00    -0.054 N 
HETATM    2  H   UNL     1       0.177  -1.272  -0.535  1.00  0.00     0.281 HD
HETATM    3  C   UNL     1      -0.846  -1.841   1.168  1.00  0.00     0.240 C 
HETATM    4  C   UNL     1      -1.650  -0.589   1.529  1.00  0.00    -0.020 A 
HETATM    5  C   UNL     1      -1.097   0.701   1.392  1.00  0.00    -0.048 A 
HETATM    6  C   UNL     1       0.290   0.905   0.849  1.00  0.00     0.067 C 
HETATM    7  C   UNL     1       1.160  -0.331   1.012  1.00  0.00     0.241 C 
HETATM    8  C   UNL     1      -2.951  -0.695   2.057  1.00  0.00     0.010 A 
HETATM    9  C   UNL     1      -3.697   0.441   2.379  1.00  0.00     0.001 A 
HETATM   10  C   UNL     1      -3.155   1.706   2.198  1.00  0.00     0.001 A 
HETATM   11  C   UNL     1      -1.860   1.837   1.709  1.00  0.00     0.008 A 
ENDROOT
BRANCH   1  12
HETATM   12  C   UNL     1       1.463  -2.726   0.283  1.00  0.00     0.319 C 
BRANCH  12  13
HETATM   13  C   UNL     1       1.317  -3.495  -1.027  1.00  0.00     0.188 C 
HETATM   14  O   UNL     1       0.438  -3.146  -1.818  1.00  0.00    -0.290 OA
BRANCH  13  15
HETATM   15  C   UNL     1       2.196  -4.624  -1.333  1.00  0.00     0.046 A 
HETATM   16  C   UNL     1       1.900  -5.570  -2.312  1.00  0.00     0.020 A 
HETATM   17  C   UNL     1       0.713  -5.728  -3.200  1.00  0.00     0.069 C 
HETATM   18  N   UNL     1       2.952  -6.444  -2.393  1.00  0.00    -0.358 N 
HETATM   19  H   UNL     1       3.018  -7.223  -3.036  1.00  0.00     0.166 HD
HETATM   20  C   UNL     1       3.925  -6.104  -1.487  1.00  0.00     0.043 A 
HETATM   21  C   UNL     1       3.476  -4.985  -0.783  1.00  0.00     0.009 A 
HETATM   22  C   UNL     1       5.166  -6.708  -1.257  1.00  0.00     0.033 A 
HETATM   23  C   UNL     1       4.333  -4.468   0.215  1.00  0.00     0.051 A 
HETATM   24  C   UNL     1       5.583  -5.057   0.466  1.00  0.00     0.069 A 
HETATM   25  C   UNL     1       5.991  -6.163  -0.270  1.00  0.00     0.039 A 
BRANCH  24  26
HETATM   26  O   UNL     1       6.299  -4.440   1.457  1.00  0.00    -0.356 OA
HETATM   27  C   UNL     1       7.584  -4.981   1.751  1.00  0.00     0.210 C 
ENDBRANCH  24  26
ENDBRANCH  13  15
ENDBRANCH  12  13
ENDBRANCH   1  12
BRANCH   3  28
HETATM   28  C   UNL     1      -1.685  -2.922   0.423  1.00  0.00     0.173 C 
BRANCH  28  29
HETATM   29  N   UNL     1      -2.282  -2.595  -0.866  1.00  0.00    -0.278 N 
HETATM   30  C   UNL     1      -1.901  -1.607  -1.733  1.00  0.00     0.261 A 
HETATM   31  O   UNL     1      -1.055  -0.746  -1.560  1.00  0.00    -0.267 OA
HETATM   32  C   UNL     1      -2.605  -1.839  -2.992  1.00  0.00     0.048 A 
HETATM   33  C   UNL     1      -3.321  -3.014  -2.853  1.00  0.00     0.048 A 
HETATM   34  C   UNL     1      -2.568  -1.141  -4.182  1.00  0.00     0.018 A 
HETATM   35  C   UNL     1      -3.082  -3.513  -1.502  1.00  0.00     0.261 A 
HETATM   36  C   UNL     1      -4.041  -3.561  -3.896  1.00  0.00     0.018 A 
HETATM   37  O   UNL     1      -3.478  -4.579  -1.072  1.00  0.00    -0.267 OA
HETATM   38  C   UNL     1      -4.025  -2.870  -5.112  1.00  0.00     0.001 A 
HETATM   39  C   UNL     1      -3.296  -1.670  -5.253  1.00  0.00     0.001 A 
ENDBRANCH  28  29
ENDBRANCH   3  28
TORSDOF 6
