REMARK  5 active torsions:
REMARK  status: ('A' for Active; 'I' for Inactive)
REMARK    1  A    between atoms: C_3  and  N_4 
REMARK       I    between atoms: N_4  and  C_5 
REMARK       I    between atoms: C_5  and  N_6 
REMARK    2  A    between atoms: N_6  and  C_7 
REMARK    3  A    between atoms: C_7  and  C_8 
REMARK    4  A    between atoms: C_16  and  N_17 
REMARK       I    between atoms: N_17  and  C_18 
REMARK    5  A    between atoms: C_18  and  C_19 
ROOT
HETATM    1  C   UNL     1       1.086  -0.577   0.550  1.00  0.00     0.050 C 
HETATM    2  C   UNL     1       2.375  -0.248  -0.156  1.00  0.00    -0.035 A 
HETATM    3  C   UNL     1       2.599   0.997  -0.772  1.00  0.00     0.044 A 
HETATM    4  C   UNL     1       3.830   1.263  -1.410  1.00  0.00     0.059 A 
HETATM    5  C   UNL     1       4.823   0.286  -1.476  1.00  0.00     0.037 A 
HETATM    6  C   UNL     1       4.564  -0.968  -0.902  1.00  0.00     0.030 A 
HETATM    7  C   UNL     1       3.362  -1.231  -0.245  1.00  0.00     0.011 A 
ENDROOT
BRANCH   3   8
HETATM    8  N   UNL     1       1.599   1.982  -0.670  1.00  0.00    -0.308 N 
HETATM    9  C   UNL     1       1.186   2.924  -1.562  1.00  0.00     0.321 C 
HETATM   10  N   UNL     1       1.606   2.791  -2.846  1.00  0.00    -0.336 N 
HETATM   11  O   UNL     1       0.370   3.776  -1.214  1.00  0.00    -0.247 OA
HETATM   12  H   UNL     1       1.989   1.897  -3.126  1.00  0.00     0.164 HD
HETATM   13  H   UNL     1       0.978   1.939   0.127  1.00  0.00     0.170 HD
BRANCH  10  14
HETATM   14  C   UNL     1       0.956   3.534  -3.897  1.00  0.00     0.202 C 
BRANCH  14  15
HETATM   15  C   UNL     1       1.246   2.877  -5.204  1.00  0.00     0.121 A 
HETATM   16  N   UNL     1       2.039   1.843  -5.425  1.00  0.00    -0.244 NA
HETATM   17  C   UNL     1       1.982   1.613  -6.774  1.00  0.00     0.135 A 
HETATM   18  C   UNL     1       1.135   2.505  -7.384  1.00  0.00     0.109 A 
HETATM   19  N   UNL     1       0.666   3.300  -6.376  1.00  0.00    -0.352 N 
HETATM   20  H   UNL     1       0.007   4.061  -6.469  1.00  0.00     0.166 HD
ENDBRANCH  14  15
ENDBRANCH  10  14
ENDBRANCH   3   8
BRANCH   5  21
HETATM   21  N   UNL     1       6.119   0.439  -2.001  1.00  0.00    -0.323 N 
HETATM   22  C   UNL     1       6.835   1.457  -2.572  1.00  0.00     0.256 C 
HETATM   23  O   UNL     1       8.059   1.324  -2.664  1.00  0.00    -0.267 OA
HETATM   24  H   UNL     1       6.749  -0.336  -1.824  1.00  0.00     0.169 HD
BRANCH  22  25
HETATM   25  C   UNL     1       6.247   2.688  -3.119  1.00  0.00     0.032 A 
HETATM   26  C   UNL     1       5.243   2.645  -4.089  1.00  0.00     0.017 A 
HETATM   27  C   UNL     1       4.817   3.832  -4.689  1.00  0.00     0.001 A 
HETATM   28  C   UNL     1       5.397   5.051  -4.337  1.00  0.00     0.000 A 
HETATM   29  C   UNL     1       6.417   5.090  -3.388  1.00  0.00     0.001 A 
HETATM   30  C   UNL     1       6.849   3.909  -2.786  1.00  0.00     0.017 A 
ENDBRANCH  22  25
ENDBRANCH   5  21
TORSDOF 5
