REMARK  2 active torsions:
REMARK  status: ('A' for Active; 'I' for Inactive)
REMARK    1  A    between atoms: N_6  and  C_7 
REMARK    2  A    between atoms: C_12  and  N_13 
ROOT
HETATM    1  C   UNL     1       5.405  -0.072   3.154  1.00  0.00     0.070 A 
HETATM    2  C   UNL     1       5.038  -1.138   4.011  1.00  0.00     0.162 A 
HETATM    3  F   UNL     1       4.274  -2.132   3.524  1.00  0.00    -0.202 F 
HETATM    4  C   UNL     1       5.400  -1.185   5.365  1.00  0.00     0.084 A 
HETATM    5 BR   UNL     1       4.865  -2.689   6.392  1.00  0.00    -0.045 Br
HETATM    6  C   UNL     1       6.150  -0.135   5.880  1.00  0.00     0.123 A 
HETATM    7  C   UNL     1       6.552   0.934   5.076  1.00  0.00     0.040 A 
HETATM    8  C   UNL     1       6.182   0.954   3.727  1.00  0.00     0.035 A 
ENDROOT
BRANCH   1   9
HETATM    9  N   UNL     1       5.091  -0.012   1.791  1.00  0.00    -0.375 N 
HETATM   10  C   UNL     1       4.521   1.242   1.253  1.00  0.00     0.150 C 
HETATM   11  C   UNL     1       2.981   1.150   1.154  1.00  0.00     0.254 C 
HETATM   12  N   UNL     1       2.564  -0.081   0.349  1.00  0.00    -0.072 N 
HETATM   13  C   UNL     1       1.075  -0.177   0.201  1.00  0.00     0.269 C 
HETATM   14  H   UNL     1       2.962   0.021  -0.594  1.00  0.00     0.279 HD
HETATM   15  C   UNL     1       3.162  -1.358   0.950  1.00  0.00     0.254 C 
HETATM   16  C   UNL     1       4.697  -1.228   1.049  1.00  0.00     0.150 C 
ENDBRANCH   1   9
BRANCH   6  17
HETATM   17  N   UNL     1       6.534  -0.105   7.272  1.00  0.00    -0.114 N 
HETATM   18  O   UNL     1       5.636   0.120   8.093  1.00  0.00    -0.532 OA
HETATM   19  O   UNL     1       7.736  -0.254   7.521  1.00  0.00    -0.532 OA
ENDBRANCH   6  17
TORSDOF 2
