REMARK  7 active torsions:
REMARK  status: ('A' for Active; 'I' for Inactive)
REMARK    1  A    between atoms: C_2  and  C_3 
REMARK    2  A    between atoms: C_6  and  N_7 
REMARK       I    between atoms: N_7  and  C_8 
REMARK       I    between atoms: C_8  and  N_9 
REMARK    3  A    between atoms: N_13  and  C_14 
REMARK    4  A    between atoms: N_21  and  C_22 
REMARK    5  A    between atoms: C_22  and  C_23 
REMARK       I    between atoms: C_23  and  N_24 
REMARK    6  A    between atoms: N_24  and  C_25 
REMARK    7  A    between atoms: C_25  and  C_26 
ROOT
HETATM    1  N   UNL     1       3.395  -3.990  -3.561  1.00  0.00    -0.309 N 
HETATM    2  C   UNL     1       3.479  -5.337  -3.292  1.00  0.00     0.322 C 
HETATM    3  N   UNL     1       3.516  -5.666  -1.930  1.00  0.00    -0.334 N 
HETATM    4  C   UNL     1       3.506  -7.090  -1.603  1.00  0.00     0.130 C 
HETATM    5  C   UNL     1       4.389  -7.400  -0.402  1.00  0.00     0.061 C 
HETATM    6  C   UNL     1       4.148  -6.445   0.780  1.00  0.00     0.118 C 
HETATM    7  N   UNL     1       5.191  -6.601   1.841  1.00  0.00    -0.346 N 
HETATM    8  C   UNL     1       4.663  -7.372   2.963  1.00  0.00     0.254 C 
HETATM    9  N   UNL     1       3.250  -7.422   2.742  1.00  0.00    -0.325 N 
HETATM   10  C   UNL     1       2.881  -6.947   1.502  1.00  0.00     0.250 C 
HETATM   11  O   UNL     1       1.746  -6.973   1.048  1.00  0.00    -0.270 OA
HETATM   12  C   UNL     1       3.923  -4.973   0.407  1.00  0.00     0.061 C 
HETATM   13  C   UNL     1       3.056  -4.806  -0.838  1.00  0.00     0.130 C 
HETATM   14  O   UNL     1       3.528  -6.209  -4.156  1.00  0.00    -0.247 OA
HETATM   15  H   UNL     1       3.668  -3.368  -2.820  1.00  0.00     0.170 HD
ENDROOT
BRANCH   7  16
HETATM   16  C   UNL     1       6.563  -6.457   1.689  1.00  0.00     0.032 A 
HETATM   17  C   UNL     1       7.159  -5.920   0.535  1.00  0.00     0.029 A 
HETATM   18  C   UNL     1       8.549  -5.804   0.380  1.00  0.00     0.002 A 
HETATM   19  C   UNL     1       9.400  -6.208   1.397  1.00  0.00     0.000 A 
HETATM   20  C   UNL     1       8.856  -6.715   2.567  1.00  0.00     0.002 A 
HETATM   21  C   UNL     1       7.465  -6.828   2.708  1.00  0.00     0.029 A 
ENDBRANCH   7  16
BRANCH   9  22
HETATM   22  C   UNL     1       2.406  -8.325   3.506  1.00  0.00     0.230 C 
BRANCH  22  23
HETATM   23  C   UNL     1       2.298  -8.032   5.000  1.00  0.00     0.235 C 
HETATM   24  N   UNL     1       2.250  -6.704   5.344  1.00  0.00    -0.354 N 
HETATM   25  H   UNL     1       2.239  -5.992   4.622  1.00  0.00     0.162 HD
HETATM   26  O   UNL     1       2.122  -8.932   5.820  1.00  0.00    -0.272 OA
BRANCH  24  27
HETATM   27  C   UNL     1       1.905  -6.322   6.693  1.00  0.00     0.187 C 
BRANCH  27  28
HETATM   28  C   UNL     1       1.913  -4.848   6.865  1.00  0.00     0.070 A 
HETATM   29  O   UNL     1       2.417  -4.079   5.853  1.00  0.00    -0.325 OA
HETATM   30  C   UNL     1       2.322  -2.785   6.254  1.00  0.00     0.142 A 
HETATM   31  C   UNL     1       1.760  -2.707   7.506  1.00  0.00     0.027 A 
HETATM   32  C   UNL     1       1.494  -4.038   7.902  1.00  0.00     0.036 A 
ENDBRANCH  27  28
ENDBRANCH  24  27
ENDBRANCH  22  23
ENDBRANCH   9  22
BRANCH   1  33
HETATM   33  C   UNL     1       3.140  -3.371  -4.804  1.00  0.00     0.036 A 
HETATM   34  C   UNL     1       2.873  -4.062  -5.985  1.00  0.00     0.030 A 
HETATM   35  C   UNL     1       2.586  -3.371  -7.169  1.00  0.00     0.010 A 
HETATM   36  C   UNL     1       2.535  -1.972  -7.194  1.00  0.00    -0.055 A 
HETATM   37  C   UNL     1       2.822  -1.281  -6.011  1.00  0.00     0.010 A 
HETATM   38  C   UNL     1       3.124  -1.972  -4.831  1.00  0.00     0.030 A 
BRANCH  36  39
HETATM   39  C   UNL     1       2.198  -1.198  -8.456  1.00  0.00     0.010 C 
HETATM   40  C   UNL     1       1.008  -1.786  -9.222  1.00  0.00     0.015 C 
HETATM   41  C   UNL     1       3.423  -1.087  -9.365  1.00  0.00     0.015 C 
ENDBRANCH  36  39
ENDBRANCH   1  33
TORSDOF 7
