REMARK  5 active torsions:
REMARK  status: ('A' for Active; 'I' for Inactive)
REMARK    1  A    between atoms: C_3  and  N_4 
REMARK       I    between atoms: N_4  and  C_5 
REMARK    2  A    between atoms: C_9  and  N_10 
REMARK       I    between atoms: N_10  and  C_11 
REMARK    3  A    between atoms: C_11  and  C_12 
REMARK    4  A    between atoms: C_17  and  C_18 
REMARK    5  A    between atoms: C_24  and  C_25 
ROOT
HETATM    1  C   UNL     1       6.739   2.318  -0.149  1.00  0.00     0.148 A 
HETATM    2  N   UNL     1       7.298   3.377  -0.780  1.00  0.00    -0.165 NA
HETATM    3  N   UNL     1       6.648   4.432  -0.253  1.00  0.00    -0.240 N 
HETATM    4  C   UNL     1       5.729   4.099   0.703  1.00  0.00     0.123 A 
HETATM    5  N   UNL     1       5.023   5.041   1.364  1.00  0.00    -0.364 N 
HETATM    6  C   UNL     1       5.044   6.440   0.929  1.00  0.00     0.143 C 
HETATM    7  C   UNL     1       6.458   6.784   0.421  1.00  0.00     0.068 C 
HETATM    8  C   UNL     1       6.929   5.796  -0.664  1.00  0.00     0.221 C 
HETATM    9  C   UNL     1       5.757   2.734   0.792  1.00  0.00     0.089 A 
HETATM   10  H   UNL     1       4.195   4.776   1.897  1.00  0.00     0.162 HD
ENDROOT
BRANCH   1  11
HETATM   11  C   UNL     1       7.130   0.928  -0.444  1.00  0.00     0.276 C 
HETATM   12  N   UNL     1       8.012   0.849  -1.505  1.00  0.00    -0.322 N 
HETATM   13  H   UNL     1       8.249   1.755  -1.903  1.00  0.00     0.169 HD
HETATM   14  O   UNL     1       6.677  -0.011   0.202  1.00  0.00    -0.266 OA
BRANCH  12  15
HETATM   15  C   UNL     1       8.551  -0.303  -2.106  1.00  0.00     0.037 A 
HETATM   16  C   UNL     1       8.302  -1.602  -1.660  1.00  0.00     0.059 A 
HETATM   17  C   UNL     1       8.829  -2.733  -2.318  1.00  0.00     0.042 A 
HETATM   18  C   UNL     1       9.695  -2.545  -3.407  1.00  0.00    -0.035 A 
HETATM   19  C   UNL     1      10.438  -3.643  -4.115  1.00  0.00     0.050 C 
HETATM   20  C   UNL     1       9.929  -1.232  -3.860  1.00  0.00     0.011 A 
HETATM   21  C   UNL     1       9.366  -0.126  -3.220  1.00  0.00     0.030 A 
BRANCH  17  22
HETATM   22  N   UNL     1       8.445  -3.973  -1.752  1.00  0.00    -0.327 N 
HETATM   23  C   UNL     1       8.280  -5.189  -2.387  1.00  0.00     0.218 C 
HETATM   24  C   UNL     1       7.916  -6.287  -1.418  1.00  0.00     0.117 C 
HETATM   25  O   UNL     1       8.383  -5.423  -3.584  1.00  0.00    -0.274 OA
HETATM   26  H   UNL     1       8.002  -3.906  -0.843  1.00  0.00     0.169 HD
ENDBRANCH  17  22
ENDBRANCH  12  15
ENDBRANCH   1  11
BRANCH   8  27
HETATM   27  C   UNL     1       6.284   6.070  -2.005  1.00  0.00     0.409 C 
HETATM   28  F   UNL     1       6.792   5.301  -2.993  1.00  0.00    -0.169 F 
HETATM   29  F   UNL     1       4.946   5.898  -1.994  1.00  0.00    -0.169 F 
HETATM   30  F   UNL     1       6.509   7.359  -2.370  1.00  0.00    -0.169 F 
ENDBRANCH   8  27
BRANCH   6  31
HETATM   31  C   UNL     1       4.646   7.389   2.016  1.00  0.00     0.075 A 
HETATM   32  O   UNL     1       3.897   8.466   1.641  1.00  0.00    -0.325 OA
HETATM   33  C   UNL     1       3.632   9.177   2.768  1.00  0.00     0.142 A 
HETATM   34  C   UNL     1       4.207   8.576   3.863  1.00  0.00     0.027 A 
HETATM   35  C   UNL     1       4.866   7.421   3.379  1.00  0.00     0.037 A 
ENDBRANCH   6  31
TORSDOF 5
