REMARK  6 active torsions:
REMARK  status: ('A' for Active; 'I' for Inactive)
REMARK    1  A    between atoms: C_6  and  C_7 
REMARK    2  A    between atoms: C_7  and  N_8 
REMARK    3  A    between atoms: C_12  and  C_13 
REMARK    4  A    between atoms: C_13  and  C_14 
REMARK    5  A    between atoms: N_23  and  C_24 
REMARK    6  A    between atoms: C_24  and  C_25 
ROOT
HETATM    1  C   UNL     1       2.630  -1.856   0.757  1.00  0.00     0.149 C 
HETATM    2  N   UNL     1       3.033  -3.112   0.140  1.00  0.00    -0.220 NA
HETATM    3  C   UNL     1       3.291  -4.076   1.094  1.00  0.00     0.304 C 
HETATM    4  O   UNL     1       3.798  -5.149   0.818  1.00  0.00    -0.253 OA
HETATM    5  N   UNL     1       2.886  -3.628   2.307  1.00  0.00    -0.270 N 
HETATM    6  C   UNL     1       2.434  -2.344   2.211  1.00  0.00     0.257 C 
HETATM    7  O   UNL     1       1.947  -1.682   3.117  1.00  0.00    -0.270 OA
HETATM    8  H   UNL     1       3.770  -3.073  -0.563  1.00  0.00     0.134 HD
ENDROOT
BRANCH   1   9
HETATM    9  C   UNL     1       1.303  -1.290   0.156  1.00  0.00     0.028 C 
HETATM   10  C   UNL     1       0.129  -2.293   0.147  1.00  0.00     0.035 C 
HETATM   11  C   UNL     1       0.182  -3.337  -0.966  1.00  0.00     0.235 C 
HETATM   12  N   UNL     1       0.370  -2.675  -2.309  1.00  0.00    -0.067 N 
HETATM   13  H   UNL     1      -0.477  -2.123  -2.486  1.00  0.00     0.280 HD
HETATM   14  C   UNL     1       1.552  -1.739  -2.357  1.00  0.00     0.235 C 
HETATM   15  C   UNL     1       1.429  -0.694  -1.260  1.00  0.00     0.035 C 
BRANCH  12  16
HETATM   16  C   UNL     1       0.453  -3.683  -3.446  1.00  0.00     0.273 C 
BRANCH  16  17
HETATM   17  C   UNL     1      -0.772  -4.550  -3.590  1.00  0.00    -0.027 A 
HETATM   18  C   UNL     1      -1.966  -4.091  -4.185  1.00  0.00    -0.054 A 
HETATM   19  C   UNL     1      -3.081  -4.948  -4.232  1.00  0.00     0.014 A 
HETATM   20  C   UNL     1      -2.099  -2.717  -4.787  1.00  0.00     0.049 C 
HETATM   21  C   UNL     1      -3.022  -6.252  -3.726  1.00  0.00    -0.061 A 
HETATM   22  C   UNL     1      -4.227  -7.146  -3.768  1.00  0.00     0.048 C 
HETATM   23  C   UNL     1      -1.837  -6.699  -3.142  1.00  0.00     0.007 A 
HETATM   24  C   UNL     1      -0.724  -5.862  -3.080  1.00  0.00     0.010 A 
ENDBRANCH  16  17
ENDBRANCH  12  16
ENDBRANCH   1   9
BRANCH   1  25
HETATM   25  C   UNL     1       3.785  -0.859   0.664  1.00  0.00     0.067 A 
HETATM   26  N   UNL     1       4.658  -1.069  -0.366  1.00  0.00    -0.263 NA
HETATM   27  C   UNL     1       5.711  -0.225  -0.473  1.00  0.00     0.117 A 
HETATM   28  C   UNL     1       5.920   0.851   0.370  1.00  0.00     0.019 A 
HETATM   29  C   UNL     1       5.000   1.079   1.386  1.00  0.00     0.003 A 
HETATM   30  C   UNL     1       3.916   0.219   1.538  1.00  0.00     0.030 A 
ENDBRANCH   1  25
BRANCH   5  31
HETATM   31  C   UNL     1       3.016  -4.374   3.544  1.00  0.00     0.168 C 
BRANCH  31  32
HETATM   32  C   UNL     1       1.701  -4.972   4.046  1.00  0.00     0.140 C 
HETATM   33  O   UNL     1       1.956  -5.715   5.255  1.00  0.00    -0.384 OA
HETATM   34  C   UNL     1       1.393  -7.026   5.118  1.00  0.00     0.168 C 
HETATM   35  C   UNL     1       0.378  -6.928   4.003  1.00  0.00     0.029 C 
HETATM   36  C   UNL     1       1.042  -5.943   3.073  1.00  0.00     0.036 C 
ENDBRANCH  31  32
ENDBRANCH   5  31
TORSDOF 6
