REMARK  3 active torsions:
REMARK  status: ('A' for Active; 'I' for Inactive)
REMARK    1  A    between atoms: C_7  and  C_8 
REMARK    2  A    between atoms: C_17  and  C_18 
REMARK       I    between atoms: C_18  and  N_19 
REMARK    3  A    between atoms: N_19  and  C_20 
ROOT
HETATM    1  C   UNL     1       2.436  -2.806   0.132  1.00  0.00     0.206 C 
HETATM    2  N   UNL     1       1.925  -3.343  -1.132  1.00  0.00    -0.084 N 
HETATM    3  C   UNL     1       2.207  -4.598  -1.599  1.00  0.00     0.725 A 
HETATM    4  N   UNL     1       1.614  -4.778  -2.752  1.00  0.00    -0.054 NA
HETATM    5  C   UNL     1       1.008  -3.568  -2.972  1.00  0.00     0.275 A 
HETATM    6  N   UNL     1       1.190  -2.642  -2.023  1.00  0.00    -0.149 NA
HETATM    7  N   UNL     1       3.036  -5.396  -0.897  1.00  0.00    -0.192 N 
HETATM    8  C   UNL     1       3.777  -4.940   0.190  1.00  0.00     0.037 C 
HETATM    9  C   UNL     1       4.898  -5.846   0.635  1.00  0.00     0.070 C 
HETATM   10  C   UNL     1       3.508  -3.719   0.719  1.00  0.00     0.063 C 
HETATM   11  H   UNL     1       3.329  -6.267  -1.332  1.00  0.00     0.184 HD
ENDROOT
BRANCH  10  12
HETATM   12  C   UNL     1       4.294  -3.090   1.814  1.00  0.00     0.256 C 
HETATM   13  N   UNL     1       4.395  -3.874   2.942  1.00  0.00    -0.323 N 
HETATM   14  H   UNL     1       3.903  -4.758   2.935  1.00  0.00     0.169 HD
HETATM   15  O   UNL     1       4.741  -1.964   1.640  1.00  0.00    -0.267 OA
BRANCH  13  16
HETATM   16  C   UNL     1       5.153  -3.607   4.102  1.00  0.00     0.035 A 
HETATM   17  C   UNL     1       5.863  -2.424   4.316  1.00  0.00     0.029 A 
HETATM   18  C   UNL     1       6.615  -2.248   5.482  1.00  0.00     0.002 A 
HETATM   19  C   UNL     1       6.667  -3.254   6.443  1.00  0.00     0.000 A 
HETATM   20  C   UNL     1       5.961  -4.437   6.242  1.00  0.00     0.002 A 
HETATM   21  C   UNL     1       5.204  -4.610   5.080  1.00  0.00     0.029 A 
ENDBRANCH  13  16
ENDBRANCH  10  12
BRANCH   1  22
HETATM   22  C   UNL     1       1.279  -2.602   1.076  1.00  0.00     0.015 A 
HETATM   23  C   UNL     1       0.617  -1.374   1.368  1.00  0.00     0.061 A 
HETATM   24  C   UNL     1       0.903  -0.025   0.815  1.00  0.00     0.073 C 
HETATM   25  N   UNL     1      -0.383  -1.541   2.241  1.00  0.00    -0.178 NA
HETATM   26  N   UNL     1      -0.398  -2.860   2.478  1.00  0.00    -0.284 N 
HETATM   27  C   UNL     1      -1.398  -3.422   3.352  1.00  0.00     0.179 C 
HETATM   28  C   UNL     1       0.584  -3.540   1.822  1.00  0.00     0.123 A 
ENDBRANCH   1  22
TORSDOF 3
