REMARK  5 active torsions:
REMARK  status: ('A' for Active; 'I' for Inactive)
REMARK    1  A    between atoms: C_3  and  S_4 
REMARK    2  A    between atoms: S_4  and  C_5 
REMARK    3  A    between atoms: C_5  and  C_6 
REMARK       I    between atoms: C_6  and  N_7 
REMARK    4  A    between atoms: N_7  and  C_8 
REMARK    5  A    between atoms: C_10  and  C_11 
ROOT
HETATM    1  C   UNL     1       2.831   5.620   0.418  1.00  0.00     0.231 C 
HETATM    2  N   UNL     1       1.520   5.204   0.230  1.00  0.00    -0.327 N 
HETATM    3  O   UNL     1       3.251   6.770   0.330  1.00  0.00    -0.272 OA
HETATM    4  H   UNL     1       1.376   4.204   0.162  1.00  0.00     0.169 HD
ENDROOT
BRANCH   2   5
HETATM    5  C   UNL     1       0.381   6.017   0.055  1.00  0.00     0.035 A 
HETATM    6  C   UNL     1       0.396   7.411   0.167  1.00  0.00     0.042 A 
HETATM    7  C   UNL     1      -0.779   8.169   0.023  1.00  0.00    -0.021 A 
HETATM    8  C   UNL     1      -1.982   7.500  -0.232  1.00  0.00     0.012 A 
HETATM    9  C   UNL     1      -2.010   6.109  -0.345  1.00  0.00     0.003 A 
HETATM   10  C   UNL     1      -0.834   5.372  -0.201  1.00  0.00     0.029 A 
BRANCH   7  11
HETATM   11  C   UNL     1      -0.760   9.619   0.154  1.00  0.00     0.010 A 
HETATM   12  C   UNL     1      -1.795  10.540   0.450  1.00  0.00     0.152 A 
HETATM   13  N   UNL     1      -1.373  11.807   0.478  1.00  0.00    -0.187 NA
HETATM   14  N   UNL     1      -0.064  11.706   0.202  1.00  0.00    -0.289 N 
HETATM   15  H   UNL     1       0.489  12.556   0.167  1.00  0.00     0.188 HD
HETATM   16  C   UNL     1       0.351  10.423  -0.004  1.00  0.00     0.123 A 
ENDBRANCH   7  11
ENDBRANCH   2   5
BRANCH   1  17
HETATM   17  C   UNL     1       3.753   4.487   0.831  1.00  0.00     0.182 C 
BRANCH  17  18
HETATM   18  S   UNL     1       4.078   3.377  -0.572  1.00  0.00    -0.120 SA
BRANCH  18  19
HETATM   19  C   UNL     1       4.859   2.031   0.315  1.00  0.00     0.006 A 
HETATM   20  C   UNL     1       6.137   2.109   0.903  1.00  0.00    -0.045 A 
HETATM   21  C   UNL     1       7.013   3.330   0.823  1.00  0.00     0.049 C 
HETATM   22  C   UNL     1       6.616   1.006   1.634  1.00  0.00     0.008 A 
HETATM   23  C   UNL     1       5.868  -0.166   1.742  1.00  0.00     0.001 A 
HETATM   24  C   UNL     1       4.627  -0.255   1.122  1.00  0.00     0.001 A 
HETATM   25  C   UNL     1       4.127   0.837   0.413  1.00  0.00     0.019 A 
ENDBRANCH  18  19
ENDBRANCH  17  18
ENDBRANCH   1  17
TORSDOF 5
