REMARK  7 active torsions:
REMARK  status: ('A' for Active; 'I' for Inactive)
REMARK    1  A    between atoms: C_2  and  O_3 
REMARK    2  A    between atoms: O_3  and  C_4 
REMARK       I    between atoms: C_4  and  N_5 
REMARK    3  A    between atoms: C_8  and  N_9 
REMARK    4  A    between atoms: C_18  and  C_19 
REMARK    5  A    between atoms: C_19  and  N_20 
REMARK    6  A    between atoms: C_22  and  C_23 
REMARK    7  A    between atoms: C_23  and  O_24 
ROOT
HETATM    1  N   UNL     1       7.809   1.835   0.988  1.00  0.00    -0.061 N 
HETATM    2  H   UNL     1       8.039   2.740   1.420  1.00  0.00     0.280 HD
HETATM    3  C   UNL     1       6.415   1.493   1.532  1.00  0.00     0.276 C 
HETATM    4  C   UNL     1       5.776   0.271   0.926  1.00  0.00     0.002 A 
HETATM    5  C   UNL     1       6.362  -0.981   1.107  1.00  0.00     0.076 A 
HETATM    6  O   UNL     1       7.500  -1.133   1.845  1.00  0.00    -0.349 OA
HETATM    7  C   UNL     1       8.641  -0.578   1.175  1.00  0.00     0.203 C 
HETATM    8  C   UNL     1       8.853   0.879   1.585  1.00  0.00     0.262 C 
HETATM    9  C   UNL     1       4.588   0.348   0.169  1.00  0.00     0.020 A 
HETATM   10  C   UNL     1       4.000  -0.798  -0.418  1.00  0.00    -0.032 A 
HETATM   11  C   UNL     1       4.631  -2.032  -0.208  1.00  0.00     0.011 A 
HETATM   12  C   UNL     1       5.784  -2.128   0.574  1.00  0.00     0.038 A 
ENDROOT
BRANCH   1  13
HETATM   13  C   UNL     1       7.865   2.040  -0.537  1.00  0.00     0.191 C 
HETATM   14  C   UNL     1       6.935   3.175  -0.984  1.00  0.00     0.053 C 
HETATM   15  C   UNL     1       7.405   4.535  -0.489  1.00  0.00     0.130 C 
HETATM   16  N   UNL     1       8.805   4.786  -0.787  1.00  0.00    -0.328 N 
HETATM   17  C   UNL     1       9.210   6.125  -0.746  1.00  0.00     0.362 C 
HETATM   18  C   UNL     1       9.781   3.721  -0.587  1.00  0.00     0.130 C 
HETATM   19  O   UNL     1       8.427   7.049  -0.566  1.00  0.00    -0.238 OA
HETATM   20  C   UNL     1       9.274   2.362  -1.050  1.00  0.00     0.053 C 
BRANCH  17  21
HETATM   21  O   UNL     1      10.550   6.270  -0.906  1.00  0.00    -0.304 OA
BRANCH  21  22
HETATM   22  C   UNL     1      11.050   7.618  -0.858  1.00  0.00     0.176 C 
HETATM   23  C   UNL     1      10.823   8.334  -2.178  1.00  0.00     0.034 C 
ENDBRANCH  21  22
ENDBRANCH  17  21
ENDBRANCH   1  13
BRANCH  10  24
HETATM   24  C   UNL     1       2.825  -0.653  -1.364  1.00  0.00     0.274 C 
BRANCH  24  25
HETATM   25  N   UNL     1       1.507  -1.351  -1.094  1.00  0.00    -0.054 N 
HETATM   26  H   UNL     1       0.900  -1.006  -1.850  1.00  0.00     0.281 HD
HETATM   27  C   UNL     1       0.730  -1.070   0.206  1.00  0.00     0.287 C 
HETATM   28  C   UNL     1       1.227  -2.158   1.133  1.00  0.00     0.045 C 
HETATM   29  C   UNL     1       1.403  -3.372   0.229  1.00  0.00     0.030 C 
HETATM   30  C   UNL     1       1.518  -2.855  -1.200  1.00  0.00     0.236 C 
BRANCH  27  31
HETATM   31  C   UNL     1       0.767   0.339   0.789  1.00  0.00     0.289 C 
HETATM   32  O   UNL     1       1.548   1.216   0.447  1.00  0.00    -0.263 OA
BRANCH  31  33
HETATM   33  O   UNL     1      -0.236   0.478   1.695  1.00  0.00    -0.325 OA
HETATM   34  C   UNL     1      -0.431   1.799   2.215  1.00  0.00     0.213 C 
ENDBRANCH  31  33
ENDBRANCH  27  31
ENDBRANCH  24  25
ENDBRANCH  10  24
TORSDOF 7
