REMARK  6 active torsions:
REMARK  status: ('A' for Active; 'I' for Inactive)
REMARK    1  A    between atoms: C_2  and  O_3 
REMARK    2  A    between atoms: O_3  and  C_4 
REMARK    3  A    between atoms: C_4  and  C_5 
REMARK    4  A    between atoms: C_10  and  N_11 
REMARK       I    between atoms: N_11  and  C_12 
REMARK    5  A    between atoms: C_12  and  C_13 
REMARK    6  A    between atoms: C_13  and  N_14 
ROOT
HETATM    1  N   UNL     1      10.332  -3.639  -1.398  1.00  0.00    -0.322 N 
HETATM    2  C   UNL     1      10.368  -2.685  -2.393  1.00  0.00     0.253 C 
HETATM    3  O   UNL     1      11.185  -2.630  -3.308  1.00  0.00    -0.271 OA
HETATM    4  H   UNL     1       9.425  -3.937  -1.037  1.00  0.00     0.169 HD
ENDROOT
BRANCH   2   5
HETATM    5  C   UNL     1       9.203  -1.672  -2.317  1.00  0.00     0.275 C 
HETATM    6  C   UNL     1       9.517  -0.579  -1.308  1.00  0.00     0.050 C 
BRANCH   5   7
HETATM    7  N   UNL     1       8.804  -1.093  -3.704  1.00  0.00    -0.058 N 
HETATM    8  H   UNL     1       8.750  -1.970  -4.244  1.00  0.00     0.281 HD
HETATM    9  C   UNL     1       7.385  -0.565  -3.765  1.00  0.00     0.246 C 
HETATM   10  C   UNL     1       7.259   0.906  -4.182  1.00  0.00     0.062 C 
HETATM   11  C   UNL     1       8.095   1.137  -5.430  1.00  0.00     0.020 C 
HETATM   12  C   UNL     1       7.637   1.841  -3.047  1.00  0.00     0.020 A 
HETATM   13  C   UNL     1       9.552   1.007  -5.028  1.00  0.00     0.031 C 
HETATM   14  C   UNL     1       9.901   2.121  -4.042  1.00  0.00     0.138 C 
HETATM   15  C   UNL     1       9.907  -0.373  -4.469  1.00  0.00     0.242 C 
HETATM   16  N   UNL     1       8.949   2.308  -2.955  1.00  0.00    -0.317 N 
HETATM   17  C   UNL     1       9.374   3.156  -1.922  1.00  0.00     0.247 A 
HETATM   18  O   UNL     1      10.517   3.591  -1.817  1.00  0.00    -0.268 OA
HETATM   19  C   UNL     1       8.359   3.516  -0.904  1.00  0.00     0.074 A 
HETATM   20  C   UNL     1       7.106   3.064  -1.022  1.00  0.00     0.007 A 
HETATM   21  C   UNL     1       6.733   2.211  -2.121  1.00  0.00     0.026 A 
ENDBRANCH   5   7
ENDBRANCH   2   5
BRANCH   1  22
HETATM   22  C   UNL     1      11.374  -4.506  -1.090  1.00  0.00     0.080 A 
HETATM   23  C   UNL     1      11.135  -5.758  -0.546  1.00  0.00     0.137 A 
HETATM   24  N   UNL     1      12.359  -6.344  -0.329  1.00  0.00    -0.349 N 
HETATM   25  H   UNL     1      12.488  -7.272   0.054  1.00  0.00     0.166 HD
HETATM   26  C   UNL     1      13.378  -5.486  -0.669  1.00  0.00     0.045 A 
HETATM   27  C   UNL     1      12.790  -4.321  -1.171  1.00  0.00     0.023 A 
HETATM   28  C   UNL     1      14.764  -5.657  -0.554  1.00  0.00     0.033 A 
HETATM   29  C   UNL     1      13.642  -3.266  -1.557  1.00  0.00     0.058 A 
HETATM   30  C   UNL     1      15.023  -3.426  -1.441  1.00  0.00     0.117 A 
HETATM   31  C   UNL     1      15.582  -4.597  -0.950  1.00  0.00     0.044 A 
HETATM   32  F   UNL     1      15.826  -2.417  -1.801  1.00  0.00    -0.206 F 
BRANCH  23  33
HETATM   33  C   UNL     1       9.862  -6.385  -0.290  1.00  0.00     0.312 C 
HETATM   34  O   UNL     1       8.783  -5.825  -0.453  1.00  0.00    -0.258 OA
BRANCH  33  35
HETATM   35  O   UNL     1      10.047  -7.670   0.113  1.00  0.00    -0.317 OA
BRANCH  35  36
HETATM   36  C   UNL     1       8.851  -8.437   0.325  1.00  0.00     0.175 C 
HETATM   37  C   UNL     1       8.372  -9.031  -0.988  1.00  0.00     0.034 C 
ENDBRANCH  35  36
ENDBRANCH  33  35
ENDBRANCH  23  33
ENDBRANCH   1  22
TORSDOF 6
