REMARK  7 active torsions:
REMARK  status: ('A' for Active; 'I' for Inactive)
REMARK    1  A    between atoms: C_2  and  N_3 
REMARK    2  A    between atoms: N_3  and  C_4 
REMARK    3  A    between atoms: C_6  and  C_7 
REMARK    4  A    between atoms: C_7  and  N_8 
REMARK       I    between atoms: N_8  and  C_9 
REMARK       I    between atoms: C_9  and  N_10 
REMARK    5  A    between atoms: N_10  and  C_11 
REMARK    6  A    between atoms: C_11  and  C_12 
REMARK    7  A    between atoms: C_12  and  N_13 
ROOT
HETATM    1  N   UNL     1      -0.490   1.883   4.716  1.00  0.00    -0.339 N 
HETATM    2  C   UNL     1      -1.578   1.583   5.472  1.00  0.00     0.316 C 
HETATM    3  N   UNL     1      -2.044   2.662   6.171  1.00  0.00    -0.342 N 
HETATM    4  O   UNL     1      -2.085   0.472   5.568  1.00  0.00    -0.248 OA
HETATM    5  H   UNL     1       0.028   2.724   4.917  1.00  0.00     0.164 HD
HETATM    6  H   UNL     1      -1.670   3.548   5.855  1.00  0.00     0.164 HD
ENDROOT
BRANCH   1   7
HETATM    7  C   UNL     1       0.190   0.884   3.914  1.00  0.00     0.162 C 
BRANCH   7   8
HETATM    8  C   UNL     1       1.343   0.247   4.646  1.00  0.00    -0.039 A 
HETATM    9  C   UNL     1       1.419  -1.152   4.759  1.00  0.00     0.032 A 
HETATM   10  C   UNL     1       2.529  -1.788   5.332  1.00  0.00     0.009 A 
HETATM   11  C   UNL     1       3.532  -0.990   5.886  1.00  0.00     0.023 A 
HETATM   12  C   UNL     1       3.472   0.403   5.793  1.00  0.00     0.002 A 
HETATM   13  C   UNL     1       2.392   1.018   5.162  1.00  0.00     0.009 A 
BRANCH  10  14
HETATM   14  N   UNL     1       2.500  -3.187   5.424  1.00  0.00    -0.289 NA
HETATM   15  H   UNL     1       1.973  -3.437   6.261  1.00  0.00     0.128 HD
BRANCH  14  16
HETATM   16  C   UNL     1       3.766  -3.938   5.372  1.00  0.00     0.052 C 
HETATM   17  C   UNL     1       4.436  -3.784   4.005  1.00  0.00     0.026 C 
HETATM   18  C   UNL     1       3.455  -5.416   5.621  1.00  0.00     0.026 C 
ENDBRANCH  14  16
ENDBRANCH  10  14
ENDBRANCH   7   8
ENDBRANCH   1   7
BRANCH   3  19
HETATM   19  C   UNL     1      -3.345   2.743   6.832  1.00  0.00     0.152 C 
BRANCH  19  20
HETATM   20  C   UNL     1      -4.070   1.443   7.244  1.00  0.00     0.255 C 
BRANCH  20  21
HETATM   21  N   UNL     1      -3.180   0.442   7.932  1.00  0.00    -0.065 N 
HETATM   22  H   UNL     1      -2.434   0.250   7.235  1.00  0.00     0.280 HD
HETATM   23  C   UNL     1      -2.504   0.950   9.183  1.00  0.00     0.274 C 
HETATM   24  C   UNL     1      -1.790  -0.134   9.919  1.00  0.00    -0.019 A 
HETATM   25  C   UNL     1      -1.966  -1.470   9.617  1.00  0.00    -0.008 A 
HETATM   26  C   UNL     1      -0.879   0.029  11.009  1.00  0.00     0.017 A 
HETATM   27  S   UNL     1      -1.049  -2.504  10.604  1.00  0.00    -0.106 SA
HETATM   28  C   UNL     1      -2.847  -1.981   8.524  1.00  0.00     0.074 C 
HETATM   29  C   UNL     1      -0.405  -1.179  11.475  1.00  0.00     0.051 A 
HETATM   30  C   UNL     1      -3.869  -0.900   8.136  1.00  0.00     0.240 C 
ENDBRANCH  20  21
ENDBRANCH  19  20
ENDBRANCH   3  19
TORSDOF 7
