REMARK  6 active torsions:
REMARK  status: ('A' for Active; 'I' for Inactive)
REMARK    1  A    between atoms: N_6  and  C_7 
REMARK    2  A    between atoms: C_8  and  N_9 
REMARK    3  A    between atoms: N_9  and  C_10 
REMARK    4  A    between atoms: C_10  and  N_11 
REMARK       I    between atoms: N_11  and  C_12 
REMARK    5  A    between atoms: C_12  and  C_13 
REMARK    6  A    between atoms: C_14  and  O_15 
ROOT
HETATM    1  C   UNL     1       5.512   4.679   4.059  1.00  0.00     0.179 C 
HETATM    2  S   UNL     1       7.129   4.979   3.706  1.00  0.00    -0.040 SA
ENDROOT
BRANCH   1   3
HETATM    3  N   UNL     1       4.962   3.406   4.216  1.00  0.00    -0.331 N 
HETATM    4  H   UNL     1       4.094   3.247   3.712  1.00  0.00     0.168 HD
BRANCH   3   5
HETATM    5  C   UNL     1       5.681   2.225   4.528  1.00  0.00     0.061 A 
HETATM    6  C   UNL     1       5.409   1.017   3.831  1.00  0.00     0.057 A 
HETATM    7  C   UNL     1       5.955  -0.153   4.397  1.00  0.00     0.031 A 
HETATM    8  C   UNL     1       6.811  -0.121   5.507  1.00  0.00     0.002 A 
HETATM    9  C   UNL     1       7.126   1.084   6.111  1.00  0.00     0.002 A 
HETATM   10  C   UNL     1       6.545   2.253   5.637  1.00  0.00     0.032 A 
BRANCH   6  11
HETATM   11  N   UNL     1       4.652   0.994   2.630  1.00  0.00    -0.376 N 
HETATM   12  C   UNL     1       4.271  -0.321   2.052  1.00  0.00     0.150 C 
HETATM   13  C   UNL     1       5.413  -0.950   1.209  1.00  0.00     0.254 C 
HETATM   14  N   UNL     1       5.938   0.028   0.158  1.00  0.00    -0.072 N 
HETATM   15  C   UNL     1       7.089  -0.540  -0.617  1.00  0.00     0.269 C 
HETATM   16  H   UNL     1       5.172   0.202  -0.505  1.00  0.00     0.279 HD
HETATM   17  C   UNL     1       6.303   1.375   0.784  1.00  0.00     0.254 C 
HETATM   18  C   UNL     1       5.100   1.937   1.564  1.00  0.00     0.150 C 
ENDBRANCH   6  11
ENDBRANCH   3   5
ENDBRANCH   1   3
BRANCH   1  19
HETATM   19  N   UNL     1       4.517   5.648   4.170  1.00  0.00    -0.299 N 
HETATM   20  C   UNL     1       4.781   7.004   4.111  1.00  0.00     0.260 C 
HETATM   21  O   UNL     1       5.150   7.555   3.078  1.00  0.00    -0.267 OA
HETATM   22  H   UNL     1       3.835   5.396   4.875  1.00  0.00     0.171 HD
BRANCH  20  23
HETATM   23  C   UNL     1       4.550   7.812   5.347  1.00  0.00     0.068 C 
HETATM   24  C   UNL     1       3.683   7.462   6.393  1.00  0.00     0.102 C 
HETATM   25  C   UNL     1       3.495   8.369   7.462  1.00  0.00     0.056 C 
HETATM   26 BR   UNL     1       2.076   8.067   8.720  1.00  0.00    -0.047 Br
HETATM   27  C   UNL     1       4.288   9.551   7.581  1.00  0.00    -0.006 A 
HETATM   28  C   UNL     1       5.212   9.838   6.550  1.00  0.00    -0.024 A 
HETATM   29  C   UNL     1       4.230  10.469   8.663  1.00  0.00     0.014 A 
HETATM   30  C   UNL     1       5.306   8.990   5.442  1.00  0.00     0.032 C 
HETATM   31  C   UNL     1       6.034  10.975   6.622  1.00  0.00     0.012 A 
HETATM   32  C   UNL     1       5.962  11.846   7.706  1.00  0.00     0.001 A 
HETATM   33  C   UNL     1       5.057  11.595   8.726  1.00  0.00     0.001 A 
BRANCH  24  34
HETATM   34  O   UNL     1       2.995   6.273   6.290  1.00  0.00    -0.353 OA
HETATM   35  C   UNL     1       3.276   5.361   7.363  1.00  0.00     0.210 C 
ENDBRANCH  24  34
ENDBRANCH  20  23
ENDBRANCH   1  19
TORSDOF 6
