REMARK  6 active torsions:
REMARK  status: ('A' for Active; 'I' for Inactive)
REMARK    1  A    between atoms: C_3  and  N_4 
REMARK       I    between atoms: N_4  and  C_5 
REMARK       I    between atoms: C_5  and  N_6 
REMARK    2  A    between atoms: N_6  and  N_7 
REMARK       I    between atoms: N_7  and  C_8 
REMARK    3  A    between atoms: C_8  and  C_9 
REMARK    4  A    between atoms: C_9  and  N_10 
REMARK       I    between atoms: N_10  and  C_11 
REMARK       I    between atoms: C_11  and  N_12 
REMARK    5  A    between atoms: N_12  and  C_13 
REMARK    6  A    between atoms: C_16  and  O_17 
ROOT
HETATM    1  N   UNL     1       5.232   2.878  -0.961  1.00  0.00    -0.265 N 
HETATM    2  C   UNL     1       6.344   2.797  -0.133  1.00  0.00     0.253 C 
HETATM    3  O   UNL     1       6.733   1.730   0.344  1.00  0.00    -0.270 OA
HETATM    4  H   UNL     1       5.230   3.646  -1.644  1.00  0.00     0.190 HD
ENDROOT
BRANCH   2   5
HETATM    5  C   UNL     1       7.184   4.071  -0.037  1.00  0.00     0.228 C 
BRANCH   5   6
HETATM    6  N   UNL     1       6.476   5.323   0.158  1.00  0.00    -0.334 N 
HETATM    7  C   UNL     1       5.854   5.983  -0.847  1.00  0.00     0.321 C 
HETATM    8  N   UNL     1       5.502   7.278  -0.632  1.00  0.00    -0.309 N 
HETATM    9  O   UNL     1       5.559   5.417  -1.899  1.00  0.00    -0.247 OA
HETATM   10  H   UNL     1       4.883   7.624  -1.355  1.00  0.00     0.170 HD
HETATM   11  H   UNL     1       6.203   5.579   1.098  1.00  0.00     0.164 HD
BRANCH   8  12
HETATM   12  C   UNL     1       5.985   8.246   0.275  1.00  0.00     0.036 A 
HETATM   13  C   UNL     1       7.099   8.077   1.098  1.00  0.00     0.032 A 
HETATM   14  C   UNL     1       7.528   9.115   1.935  1.00  0.00     0.039 A 
HETATM   15  C   UNL     1       6.874  10.346   1.943  1.00  0.00     0.068 A 
HETATM   16  C   UNL     1       5.767  10.527   1.119  1.00  0.00     0.039 A 
HETATM   17  C   UNL     1       5.330   9.484   0.289  1.00  0.00     0.032 A 
BRANCH  15  18
HETATM   18  O   UNL     1       7.409  11.275   2.790  1.00  0.00    -0.356 OA
HETATM   19  C   UNL     1       6.981  12.620   2.614  1.00  0.00     0.210 C 
ENDBRANCH  15  18
ENDBRANCH   8  12
ENDBRANCH   5   6
ENDBRANCH   2   5
BRANCH   1  20
HETATM   20  N   UNL     1       4.736   1.632  -1.416  1.00  0.00    -0.249 N 
HETATM   21  C   UNL     1       3.405   1.286  -1.305  1.00  0.00     0.339 C 
HETATM   22  N   UNL     1       2.554   2.362  -1.225  1.00  0.00    -0.307 N 
HETATM   23  O   UNL     1       3.096   0.100  -1.324  1.00  0.00    -0.245 OA
HETATM   24  H   UNL     1       3.020   3.247  -1.345  1.00  0.00     0.170 HD
HETATM   25  H   UNL     1       5.363   0.839  -1.274  1.00  0.00     0.192 HD
BRANCH  22  26
HETATM   26  C   UNL     1       1.149   2.349  -1.090  1.00  0.00     0.042 A 
HETATM   27  C   UNL     1       0.435   3.559  -1.234  1.00  0.00    -0.034 A 
HETATM   28  C   UNL     1       1.117   4.862  -1.555  1.00  0.00     0.050 C 
HETATM   29  C   UNL     1      -0.965   3.556  -1.084  1.00  0.00     0.032 A 
HETATM   30  C   UNL     1      -1.647   2.375  -0.799  1.00  0.00     0.034 A 
HETATM   31  C   UNL     1      -0.949   1.184  -0.657  1.00  0.00     0.026 A 
HETATM   32 CL   UNL     1      -3.358   2.394  -0.621  1.00  0.00    -0.084 Cl
HETATM   33  C   UNL     1       0.441   1.174  -0.801  1.00  0.00     0.032 A 
ENDBRANCH  22  26
ENDBRANCH   1  20
TORSDOF 6
