REMARK  4 active torsions:
REMARK  status: ('A' for Active; 'I' for Inactive)
REMARK    1  A    between atoms: C_10  and  C_11 
REMARK       I    between atoms: C_11  and  N_12 
REMARK    2  A    between atoms: N_12  and  C_13 
REMARK    3  A    between atoms: C_13  and  C_14 
REMARK    4  A    between atoms: C_16  and  C_17 
ROOT
HETATM    1  C   UNL     1       8.058   2.885  -1.769  1.00  0.00     0.268 C 
HETATM    2  N   UNL     1       7.980   3.955  -0.914  1.00  0.00    -0.351 N 
HETATM    3  O   UNL     1       7.100   2.484  -2.423  1.00  0.00    -0.266 OA
HETATM    4  H   UNL     1       8.806   4.271  -0.431  1.00  0.00     0.163 HD
ENDROOT
BRANCH   2   5
HETATM    5  C   UNL     1       6.766   4.716  -0.733  1.00  0.00     0.161 C 
BRANCH   5   6
HETATM    6  C   UNL     1       6.982   6.166  -1.080  1.00  0.00    -0.040 A 
HETATM    7  C   UNL     1       6.855   7.165  -0.102  1.00  0.00     0.024 A 
HETATM    8  C   UNL     1       7.040   8.520  -0.421  1.00  0.00     0.014 A 
HETATM    9  C   UNL     1       7.362   8.866  -1.741  1.00  0.00     0.015 A 
HETATM   10  C   UNL     1       7.491   7.881  -2.722  1.00  0.00     0.002 A 
HETATM   11  C   UNL     1       7.299   6.540  -2.394  1.00  0.00     0.009 A 
BRANCH   8  12
HETATM   12  C   UNL     1       6.889   9.545   0.609  1.00  0.00     0.181 A 
HETATM   13  N   UNL     1       7.032  10.863   0.390  1.00  0.00    -0.152 NA
HETATM   14  N   UNL     1       6.791  11.378   1.603  1.00  0.00    -0.263 N 
HETATM   15  H   UNL     1       6.829  12.383   1.732  1.00  0.00     0.190 HD
HETATM   16  C   UNL     1       6.516  10.404   2.516  1.00  0.00     0.118 A 
HETATM   17  C   UNL     1       6.213  10.680   3.935  1.00  0.00     0.093 C 
HETATM   18  N   UNL     1       6.574   9.236   1.917  1.00  0.00    -0.212 NA
ENDBRANCH   8  12
ENDBRANCH   5   6
ENDBRANCH   2   5
BRANCH   1  19
HETATM   19  C   UNL     1       9.357   2.256  -1.860  1.00  0.00     0.102 A 
HETATM   20  N   UNL     1       9.569   1.193  -2.713  1.00  0.00    -0.351 N 
HETATM   21  C   UNL     1      10.868   0.753  -2.647  1.00  0.00     0.043 A 
HETATM   22  H   UNL     1       8.848   0.803  -3.306  1.00  0.00     0.166 HD
HETATM   23  C   UNL     1      11.508  -0.283  -3.338  1.00  0.00     0.037 A 
HETATM   24  C   UNL     1      11.520   1.554  -1.714  1.00  0.00    -0.007 A 
HETATM   25  C   UNL     1      12.864  -0.518  -3.062  1.00  0.00    -0.060 A 
HETATM   26  C   UNL     1      13.608  -1.602  -3.788  1.00  0.00     0.048 C 
HETATM   27  C   UNL     1      13.538   0.280  -2.131  1.00  0.00     0.007 A 
HETATM   28  C   UNL     1      12.881   1.313  -1.450  1.00  0.00     0.014 A 
HETATM   29  C   UNL     1      10.565   2.492  -1.227  1.00  0.00     0.049 A 
ENDBRANCH   1  19
TORSDOF 4
