REMARK  7 active torsions:
REMARK  status: ('A' for Active; 'I' for Inactive)
REMARK    1  A    between atoms: C_4  and  C_5 
REMARK    2  A    between atoms: C_5  and  N_6 
REMARK       I    between atoms: N_6  and  C_7 
REMARK    3  A    between atoms: N_6  and  C_18 
REMARK       I    between atoms: C_7  and  N_8 
REMARK    4  A    between atoms: N_8  and  C_9 
REMARK    5  A    between atoms: C_10  and  O_11 
REMARK    6  A    between atoms: N_21  and  C_23 
REMARK    7  A    between atoms: C_23  and  C_24 
ROOT
HETATM    1  N   UNL     1       6.238   0.494   0.850  1.00  0.00    -0.323 N 
HETATM    2  C   UNL     1       6.857  -0.448   1.707  1.00  0.00     0.323 C 
HETATM    3  N   UNL     1       6.201  -0.699   2.890  1.00  0.00    -0.306 N 
HETATM    4  O   UNL     1       7.900  -0.982   1.344  1.00  0.00    -0.247 OA
HETATM    5  H   UNL     1       5.281  -0.319   3.004  1.00  0.00     0.171 HD
ENDROOT
BRANCH   1   6
HETATM    6  C   UNL     1       4.899   1.047   1.084  1.00  0.00     0.193 C 
BRANCH   6   7
HETATM    7  C   UNL     1       4.984   2.355   1.774  1.00  0.00     0.071 A 
HETATM    8  O   UNL     1       4.480   3.427   1.095  1.00  0.00    -0.318 OA
HETATM    9  C   UNL     1       4.665   4.523   1.884  1.00  0.00     0.049 A 
HETATM   10  C   UNL     1       4.211   5.822   1.345  1.00  0.00     0.076 C 
HETATM   11  C   UNL     1       5.276   4.160   3.064  1.00  0.00     0.035 A 
HETATM   12  C   UNL     1       5.483   2.762   2.994  1.00  0.00     0.037 A 
ENDBRANCH   6   7
ENDBRANCH   1   6
BRANCH   1  13
HETATM   13  C   UNL     1       7.051   0.917  -0.330  1.00  0.00     0.092 C 
HETATM   14  C   UNL     1       6.784   2.289  -0.966  1.00  0.00     0.053 C 
HETATM   15  C   UNL     1       5.599   2.361  -1.919  1.00  0.00     0.237 C 
HETATM   16  N   UNL     1       5.596   1.209  -2.898  1.00  0.00    -0.067 N 
HETATM   17  H   UNL     1       6.369   1.378  -3.554  1.00  0.00     0.280 HD
HETATM   18  C   UNL     1       5.814  -0.142  -2.258  1.00  0.00     0.237 C 
HETATM   19  C   UNL     1       7.082  -0.147  -1.436  1.00  0.00     0.053 C 
BRANCH  16  20
HETATM   20  C   UNL     1       4.332   1.160  -3.746  1.00  0.00     0.273 C 
BRANCH  20  21
HETATM   21  C   UNL     1       3.962   2.453  -4.414  1.00  0.00    -0.033 A 
HETATM   22  C   UNL     1       4.652   2.903  -5.549  1.00  0.00     0.009 A 
HETATM   23  C   UNL     1       4.294   4.107  -6.157  1.00  0.00     0.001 A 
HETATM   24  C   UNL     1       3.252   4.873  -5.637  1.00  0.00     0.000 A 
HETATM   25  C   UNL     1       2.562   4.438  -4.509  1.00  0.00     0.001 A 
HETATM   26  C   UNL     1       2.913   3.235  -3.900  1.00  0.00     0.009 A 
ENDBRANCH  20  21
ENDBRANCH  16  20
ENDBRANCH   1  13
BRANCH   3  27
HETATM   27  C   UNL     1       6.562  -1.559   3.961  1.00  0.00     0.069 A 
HETATM   28  C   UNL     1       7.827  -2.097   4.235  1.00  0.00     0.095 A 
HETATM   29  C   UNL     1       8.007  -2.986   5.306  1.00  0.00     0.039 A 
HETATM   30  C   UNL     1       6.948  -3.305   6.151  1.00  0.00     0.003 A 
HETATM   31  C   UNL     1       5.700  -2.738   5.928  1.00  0.00     0.002 A 
HETATM   32  C   UNL     1       5.511  -1.873   4.846  1.00  0.00     0.032 A 
BRANCH  28  33
HETATM   33  O   UNL     1       8.953  -1.807   3.519  1.00  0.00    -0.354 OA
HETATM   34  C   UNL     1       9.560  -0.612   4.008  1.00  0.00     0.210 C 
ENDBRANCH  28  33
ENDBRANCH   3  27
TORSDOF 7
