REMARK  3 active torsions:
REMARK  status: ('A' for Active; 'I' for Inactive)
REMARK    1  A    between atoms: C_4  and  C_5 
REMARK    2  A    between atoms: C_11  and  C_12 
REMARK    3  A    between atoms: C_21  and  N_22 
ROOT
HETATM    1  C   UNL     1       1.549  -2.478   4.260  1.00  0.00     0.071 A 
HETATM    2  N   UNL     1       1.456  -1.538   5.266  1.00  0.00    -0.274 N 
HETATM    3  H   UNL     1       1.373  -1.710   6.262  1.00  0.00     0.189 HD
HETATM    4  N   UNL     1       1.412  -0.263   4.832  1.00  0.00    -0.148 NA
HETATM    5  C   UNL     1       1.500  -0.414   3.517  1.00  0.00     0.199 A 
HETATM    6  C   UNL     1       1.637  -1.739   3.092  1.00  0.00     0.036 A 
HETATM    7  C   UNL     1       1.763  -2.065   1.640  1.00  0.00     0.081 C 
HETATM    8  C   UNL     1       1.328  -0.842   0.810  1.00  0.00     0.077 C 
HETATM    9  C   UNL     1       1.057  -1.067  -0.573  1.00  0.00     0.100 C 
HETATM   10  N   UNL     1       0.819  -1.268  -1.690  1.00  0.00    -0.192 NA
HETATM   11  C   UNL     1       1.188   0.401   1.342  1.00  0.00     0.140 C 
HETATM   12  O   UNL     1       1.384   0.652   2.706  1.00  0.00    -0.277 OA
ENDROOT
BRANCH   7  13
HETATM   13  C   UNL     1       3.186  -2.563   1.200  1.00  0.00     0.022 C 
HETATM   14  C   UNL     1       3.550  -3.906   1.794  1.00  0.00    -0.025 C 
HETATM   15  C   UNL     1       4.625  -4.118   2.567  1.00  0.00    -0.030 C 
HETATM   16  C   UNL     1       5.584  -3.039   2.970  1.00  0.00     0.027 C 
HETATM   17  C   UNL     1       5.052  -1.631   2.710  1.00  0.00     0.004 C 
HETATM   18  C   UNL     1       4.332  -1.534   1.367  1.00  0.00     0.010 C 
ENDBRANCH   7  13
BRANCH  11  19
HETATM   19  N   UNL     1       0.835   1.534   0.640  1.00  0.00    -0.282 NA
HETATM   20  H   UNL     1       0.284   1.381  -0.201  1.00  0.00     0.126 HD
HETATM   21  H   UNL     1       0.441   2.247   1.251  1.00  0.00     0.126 HD
ENDBRANCH  11  19
BRANCH   1  22
HETATM   22  C   UNL     1       1.504  -3.909   4.529  1.00  0.00    -0.007 A 
HETATM   23  C   UNL     1       0.607  -4.733   3.836  1.00  0.00     0.014 A 
HETATM   24  C   UNL     1       0.554  -6.104   4.099  1.00  0.00     0.001 A 
HETATM   25  C   UNL     1       1.394  -6.663   5.060  1.00  0.00     0.000 A 
HETATM   26  C   UNL     1       2.287  -5.853   5.758  1.00  0.00     0.001 A 
HETATM   27  C   UNL     1       2.342  -4.482   5.495  1.00  0.00     0.014 A 
ENDBRANCH   1  22
TORSDOF 3
