REMARK  2 active torsions:
REMARK  status: ('A' for Active; 'I' for Inactive)
REMARK       I    between atoms: N_8  and  C_9 
REMARK    1  A    between atoms: C_9  and  C_10 
REMARK    2  A    between atoms: N_12  and  C_13 
ROOT
HETATM    1  C   UNL     1       2.902   0.046   1.636  1.00  0.00     0.021 C 
HETATM    2  C   UNL     1       2.619  -0.221   0.161  1.00  0.00     0.087 C 
HETATM    3  C   UNL     1       3.097  -1.596  -0.272  1.00  0.00     0.207 C 
HETATM    4  O   UNL     1       2.339  -2.436  -0.746  1.00  0.00    -0.279 OA
HETATM    5  N   UNL     1       4.469  -1.769  -0.178  1.00  0.00    -0.227 NA
HETATM    6  C   UNL     1       5.169  -1.352  -1.341  1.00  0.00     0.042 A 
HETATM    7  C   UNL     1       5.384   0.022  -1.577  1.00  0.00     0.059 A 
HETATM    8  N   UNL     1       4.661   1.014  -0.810  1.00  0.00    -0.309 N 
HETATM    9  C   UNL     1       5.302   2.229  -0.444  1.00  0.00     0.298 C 
HETATM   10  O   UNL     1       6.498   2.427  -0.676  1.00  0.00    -0.264 OA
HETATM   11  C   UNL     1       3.184   0.824  -0.816  1.00  0.00     0.145 C 
HETATM   12  C   UNL     1       5.745  -2.334  -2.146  1.00  0.00     0.026 A 
HETATM   13  C   UNL     1       6.571  -1.955  -3.200  1.00  0.00     0.002 A 
HETATM   14  C   UNL     1       6.826  -0.603  -3.432  1.00  0.00     0.002 A 
HETATM   15  C   UNL     1       6.238   0.380  -2.627  1.00  0.00     0.031 A 
HETATM   16  H   UNL     1       4.812  -1.191   0.584  1.00  0.00     0.136 HD
ENDROOT
BRANCH   9  17
HETATM   17  C   UNL     1       4.525   3.259   0.303  1.00  0.00     0.239 A 
HETATM   18  N   UNL     1       4.898   4.552   0.355  1.00  0.00    -0.140 NA
HETATM   19  N   UNL     1       3.980   5.116   1.173  1.00  0.00    -0.225 N 
HETATM   20  C   UNL     1       3.092   4.156   1.581  1.00  0.00     0.237 A 
HETATM   21  N   UNL     1       3.407   2.992   1.067  1.00  0.00    -0.216 NA
BRANCH  19  22
HETATM   22  C   UNL     1       4.007   6.495   1.508  1.00  0.00     0.059 A 
HETATM   23  C   UNL     1       5.040   7.305   1.012  1.00  0.00     0.031 A 
HETATM   24  C   UNL     1       5.084   8.662   1.339  1.00  0.00     0.002 A 
HETATM   25  C   UNL     1       4.102   9.218   2.156  1.00  0.00     0.000 A 
HETATM   26  C   UNL     1       3.072   8.419   2.649  1.00  0.00     0.002 A 
HETATM   27  C   UNL     1       3.021   7.060   2.330  1.00  0.00     0.031 A 
ENDBRANCH  19  22
ENDBRANCH   9  17
TORSDOF 2
