REMARK  5 active torsions:
REMARK  status: ('A' for Active; 'I' for Inactive)
REMARK    1  A    between atoms: C_4  and  N_5 
REMARK    2  A    between atoms: C_6  and  C_8 
REMARK    3  A    between atoms: C_6  and  O_7 
REMARK       I    between atoms: C_8  and  N_9 
REMARK    4  A    between atoms: N_9  and  C_10 
REMARK    5  A    between atoms: C_10  and  C_11 
ROOT
HETATM    1  N   UNL     1       2.500   0.269  -0.791  1.00  0.00    -0.254 N 
HETATM    2  C   UNL     1       3.382   1.439  -0.629  1.00  0.00     0.256 C 
HETATM    3  C   UNL     1       4.566   1.416  -1.578  1.00  0.00     0.035 A 
HETATM    4  C   UNL     1       5.002   0.176  -2.039  1.00  0.00     0.048 A 
HETATM    5  N   UNL     1       4.289  -0.961  -1.685  1.00  0.00    -0.308 N 
HETATM    6  C   UNL     1       3.061  -0.966  -1.086  1.00  0.00     0.330 C 
HETATM    7  O   UNL     1       2.511  -2.055  -0.918  1.00  0.00    -0.246 OA
HETATM    8  C   UNL     1       5.307   2.557  -1.933  1.00  0.00     0.034 A 
HETATM    9  C   UNL     1       6.430   2.441  -2.756  1.00  0.00     0.011 A 
HETATM   10 BR   UNL     1       7.396   3.991  -3.247  1.00  0.00    -0.051 Br
HETATM   11  C   UNL     1       6.849   1.194  -3.211  1.00  0.00     0.021 A 
HETATM   12  C   UNL     1       6.138   0.054  -2.843  1.00  0.00     0.031 A 
HETATM   13  H   UNL     1       4.614  -1.876  -1.971  1.00  0.00     0.170 HD
ENDROOT
BRANCH   2  14
HETATM   14  C   UNL     1       2.628   2.834  -0.711  1.00  0.00     0.279 C 
HETATM   15  N   UNL     1       2.465   3.448   0.519  1.00  0.00    -0.352 N 
HETATM   16  H   UNL     1       3.075   3.131   1.267  1.00  0.00     0.162 HD
HETATM   17  O   UNL     1       2.178   3.316  -1.750  1.00  0.00    -0.268 OA
BRANCH  15  18
HETATM   18  C   UNL     1       1.814   4.725   0.658  1.00  0.00     0.168 C 
BRANCH  18  19
HETATM   19  C   UNL     1       1.305   4.823   2.059  1.00  0.00     0.000 A 
HETATM   20  S   UNL     1       2.223   5.621   3.265  1.00  0.00    -0.105 SA
HETATM   21  C   UNL     1       1.047   5.299   4.464  1.00  0.00     0.050 A 
HETATM   22  C   UNL     1      -0.024   4.595   3.962  1.00  0.00     0.008 A 
HETATM   23  C   UNL     1       0.126   4.317   2.573  1.00  0.00     0.017 A 
ENDBRANCH  18  19
ENDBRANCH  15  18
ENDBRANCH   2  14
BRANCH   2  24
HETATM   24  O   UNL     1       3.955   1.330   0.689  1.00  0.00    -0.359 OA
HETATM   25  H   UNL     1       3.263   0.887   1.207  1.00  0.00     0.213 HD
ENDBRANCH   2  24
BRANCH   1  26
HETATM   26  C   UNL     1       1.191   0.307  -0.214  1.00  0.00     0.042 A 
HETATM   27  C   UNL     1       0.872  -0.464   0.910  1.00  0.00     0.030 A 
HETATM   28  C   UNL     1      -0.409  -0.411   1.465  1.00  0.00     0.002 A 
HETATM   29  C   UNL     1      -1.388   0.397   0.890  1.00  0.00     0.000 A 
HETATM   30  C   UNL     1      -1.090   1.142  -0.248  1.00  0.00     0.002 A 
HETATM   31  C   UNL     1       0.191   1.091  -0.801  1.00  0.00     0.030 A 
ENDBRANCH   1  26
TORSDOF 5
