REMARK  7 active torsions:
REMARK  status: ('A' for Active; 'I' for Inactive)
REMARK    1  A    between atoms: C_8  and  C_9 
REMARK    2  A    between atoms: C_9  and  C_10 
REMARK       I    between atoms: C_10  and  N_11 
REMARK    3  A    between atoms: N_11  and  C_27 
REMARK    4  A    between atoms: N_11  and  C_12 
REMARK    5  A    between atoms: C_12  and  C_13 
REMARK    6  A    between atoms: C_12  and  C_22 
REMARK       I    between atoms: C_13  and  N_14 
REMARK    7  A    between atoms: N_14  and  C_15 
ROOT
HETATM    1  C   UNL     1       2.283  -2.013  -1.613  1.00  0.00     0.229 C 
HETATM    2  N   UNL     1       2.200  -3.358  -1.248  1.00  0.00    -0.299 N 
HETATM    3  O   UNL     1       1.424  -1.202  -1.245  1.00  0.00    -0.273 OA
ENDROOT
BRANCH   2   4
HETATM    4  C   UNL     1       3.285  -4.280  -1.312  1.00  0.00     0.041 A 
HETATM    5  C   UNL     1       3.064  -5.582  -1.788  1.00  0.00     0.069 A 
HETATM    6  C   UNL     1       4.113  -6.476  -1.749  1.00  0.00     0.107 A 
HETATM    7  C   UNL     1       5.349  -6.124  -1.263  1.00  0.00     0.105 A 
HETATM    8  O   UNL     1       4.066  -7.774  -2.154  1.00  0.00    -0.323 OA
HETATM    9  O   UNL     1       6.235  -7.155  -1.301  1.00  0.00    -0.323 OA
HETATM   10  C   UNL     1       5.606  -4.857  -0.790  1.00  0.00     0.042 A 
HETATM   11  C   UNL     1       5.405  -8.207  -1.838  1.00  0.00     0.352 A 
HETATM   12  C   UNL     1       4.557  -3.929  -0.807  1.00  0.00     0.032 A 
ENDBRANCH   2   4
BRANCH   2  13
HETATM   13  C   UNL     1       1.001  -3.825  -0.505  1.00  0.00     0.225 C 
BRANCH  13  14
HETATM   14  C   UNL     1      -0.286  -3.681  -1.351  1.00  0.00     0.246 C 
HETATM   15  N   UNL     1      -0.964  -2.483  -1.281  1.00  0.00    -0.354 N 
HETATM   16  H   UNL     1      -0.329  -1.718  -1.049  1.00  0.00     0.162 HD
HETATM   17  O   UNL     1      -0.591  -4.568  -2.153  1.00  0.00    -0.271 OA
BRANCH  15  18
HETATM   18  C   UNL     1      -2.016  -2.084  -2.220  1.00  0.00     0.084 C 
HETATM   19  C   UNL     1      -3.154  -3.102  -2.411  1.00  0.00     0.025 C 
HETATM   20  C   UNL     1      -4.012  -3.267  -1.160  1.00  0.00     0.002 C 
HETATM   21  C   UNL     1      -4.579  -1.929  -0.700  1.00  0.00     0.000 C 
HETATM   22  C   UNL     1      -3.481  -0.887  -0.510  1.00  0.00     0.002 C 
HETATM   23  C   UNL     1      -2.611  -0.740  -1.762  1.00  0.00     0.025 C 
ENDBRANCH  15  18
ENDBRANCH  13  14
BRANCH  13  24
HETATM   24  C   UNL     1       0.976  -3.305   0.929  1.00  0.00     0.015 A 
HETATM   25  S   UNL     1       1.531  -4.371   2.180  1.00  0.00    -0.104 SA
HETATM   26  C   UNL     1       1.331  -3.190   3.393  1.00  0.00     0.050 A 
HETATM   27  C   UNL     1       0.846  -2.010   2.886  1.00  0.00     0.008 A 
HETATM   28  C   UNL     1       0.634  -2.079   1.477  1.00  0.00     0.017 A 
ENDBRANCH  13  24
ENDBRANCH   2  13
BRANCH   1  29
HETATM   29  C   UNL     1       3.392  -1.550  -2.558  1.00  0.00     0.144 C 
BRANCH  29  30
HETATM   30  C   UNL     1       2.883  -1.184  -3.925  1.00  0.00    -0.021 A 
HETATM   31  C   UNL     1       1.983  -0.124  -4.287  1.00  0.00    -0.001 A 
HETATM   32  C   UNL     1       1.275   0.864  -3.569  1.00  0.00     0.014 A 
HETATM   33  C   UNL     1       1.840  -0.150  -5.675  1.00  0.00     0.042 A 
HETATM   34  C   UNL     1       0.445   1.762  -4.250  1.00  0.00     0.001 A 
HETATM   35  C   UNL     1       0.325   1.705  -5.635  1.00  0.00     0.002 A 
HETATM   36  C   UNL     1       1.026   0.750  -6.376  1.00  0.00     0.030 A 
HETATM   37  N   UNL     1       2.625  -1.175  -6.145  1.00  0.00    -0.365 N 
HETATM   38  H   UNL     1       2.724  -1.419  -7.120  1.00  0.00     0.165 HD
HETATM   39  C   UNL     1       3.256  -1.802  -5.106  1.00  0.00     0.097 A 
ENDBRANCH  29  30
ENDBRANCH   1  29
TORSDOF 7
