REMARK  3 active torsions:
REMARK  status: ('A' for Active; 'I' for Inactive)
REMARK    1  A    between atoms: C_3  and  C_4 
REMARK    2  A    between atoms: C_11  and  N_12 
REMARK       I    between atoms: N_12  and  C_13 
REMARK       I    between atoms: C_13  and  N_14 
REMARK    3  A    between atoms: N_14  and  C_15 
ROOT
HETATM    1  C   UNL     1      -1.054   0.113  -1.297  1.00  0.00     0.001 A 
HETATM    2  C   UNL     1      -0.587   1.388  -0.986  1.00  0.00     0.016 A 
HETATM    3  C   UNL     1       0.769   1.582  -0.692  1.00  0.00     0.021 A 
HETATM    4  C   UNL     1       1.668   0.498  -0.693  1.00  0.00     0.049 A 
HETATM    5  C   UNL     1       1.178  -0.780  -0.989  1.00  0.00     0.030 A 
HETATM    6  C   UNL     1      -0.173  -0.968  -1.299  1.00  0.00     0.002 A 
ENDROOT
BRANCH   4   7
HETATM    7  N   UNL     1       3.004   0.699  -0.295  1.00  0.00    -0.308 N 
HETATM    8  C   UNL     1       4.177   0.119  -0.695  1.00  0.00     0.325 C 
HETATM    9  N   UNL     1       4.136  -0.625  -1.839  1.00  0.00    -0.306 N 
HETATM   10  O   UNL     1       5.193   0.409  -0.066  1.00  0.00    -0.247 OA
HETATM   11  H   UNL     1       3.234  -0.769  -2.271  1.00  0.00     0.171 HD
HETATM   12  H   UNL     1       3.182   1.459   0.354  1.00  0.00     0.170 HD
BRANCH   9  13
HETATM   13  C   UNL     1       5.224  -1.139  -2.578  1.00  0.00     0.075 A 
HETATM   14  C   UNL     1       4.917  -1.876  -3.732  1.00  0.00     0.146 A 
HETATM   15  F   UNL     1       3.630  -2.085  -4.055  1.00  0.00    -0.204 F 
HETATM   16  C   UNL     1       5.908  -2.392  -4.557  1.00  0.00     0.086 A 
HETATM   17  C   UNL     1       7.234  -2.161  -4.227  1.00  0.00     0.119 A 
HETATM   18  F   UNL     1       8.204  -2.636  -5.018  1.00  0.00    -0.206 F 
HETATM   19  C   UNL     1       7.573  -1.436  -3.088  1.00  0.00     0.044 A 
HETATM   20  C   UNL     1       6.567  -0.929  -2.258  1.00  0.00     0.036 A 
ENDBRANCH   9  13
ENDBRANCH   4   7
BRANCH   3  21
HETATM   21  C   UNL     1       1.216   2.976  -0.454  1.00  0.00     0.089 A 
HETATM   22  N   UNL     1       0.675   3.667   0.501  1.00  0.00    -0.171 NA
HETATM   23  N   UNL     1       1.142   4.940   0.671  1.00  0.00    -0.243 N 
HETATM   24  C   UNL     1       2.128   5.542  -0.069  1.00  0.00     0.261 A 
HETATM   25  H   UNL     1       0.733   5.478   1.428  1.00  0.00     0.192 HD
HETATM   26  O   UNL     1       2.526   6.683   0.137  1.00  0.00    -0.267 OA
HETATM   27  C   UNL     1       2.697   4.732  -1.162  1.00  0.00     0.078 A 
HETATM   28  C   UNL     1       2.261   3.489  -1.374  1.00  0.00     0.040 A 
ENDBRANCH   3  21
TORSDOF 3
