REMARK  4 active torsions:
REMARK  status: ('A' for Active; 'I' for Inactive)
REMARK    1  A    between atoms: C_9  and  N_10 
REMARK    2  A    between atoms: N_10  and  C_12 
REMARK    3  A    between atoms: C_12  and  C_13 
REMARK    4  A    between atoms: C_14  and  C_15 
ROOT
HETATM    1  C   UNL     1       4.112   3.735   1.840  1.00  0.00     0.016 A 
HETATM    2  C   UNL     1       4.570   4.811   2.677  1.00  0.00     0.096 A 
HETATM    3  N   UNL     1       5.334   5.664   1.988  1.00  0.00    -0.174 NA
HETATM    4  N   UNL     1       5.451   5.126   0.774  1.00  0.00    -0.288 N 
HETATM    5  H   UNL     1       6.029   5.608   0.089  1.00  0.00     0.188 HD
HETATM    6  C   UNL     1       4.737   3.970   0.629  1.00  0.00     0.120 A 
ENDROOT
BRANCH   1   7
HETATM    7  C   UNL     1       3.190   2.650   2.275  1.00  0.00     0.277 C 
BRANCH   7   8
HETATM    8  N   UNL     1       2.279   1.960   1.278  1.00  0.00    -0.065 N 
HETATM    9  H   UNL     1       1.599   1.441   1.846  1.00  0.00     0.280 HD
HETATM   10  C   UNL     1       1.508   2.924   0.425  1.00  0.00     0.270 C 
BRANCH   8  11
HETATM   11  C   UNL     1       3.043   1.014   0.401  1.00  0.00     0.205 C 
HETATM   12  C   UNL     1       2.195  -0.123  -0.282  1.00  0.00     0.008 C 
HETATM   13  C   UNL     1       0.803  -0.466   0.259  1.00  0.00     0.020 C 
HETATM   14  C   UNL     1       2.164   0.004  -1.808  1.00  0.00     0.020 C 
HETATM   15  C   UNL     1       3.230  -1.150   0.241  1.00  0.00     0.137 C 
HETATM   16  C   UNL     1       3.841  -0.084   1.166  1.00  0.00     0.049 C 
HETATM   17  O   UNL     1       4.269  -1.615  -0.640  1.00  0.00    -0.385 OA
HETATM   18  C   UNL     1       5.338  -0.181   0.837  1.00  0.00     0.035 C 
HETATM   19  C   UNL     1       5.507  -1.486   0.063  1.00  0.00     0.168 C 
ENDBRANCH   8  11
ENDBRANCH   7   8
ENDBRANCH   1   7
BRANCH   2  20
HETATM   20  C   UNL     1       4.283   5.048   4.090  1.00  0.00    -0.002 A 
HETATM   21  C   UNL     1       4.482   4.035   5.038  1.00  0.00     0.053 A 
HETATM   22  C   UNL     1       4.198   4.272   6.383  1.00  0.00     0.103 A 
HETATM   23  C   UNL     1       3.701   5.510   6.792  1.00  0.00     0.102 A 
HETATM   24  O   UNL     1       4.429   3.231   7.248  1.00  0.00    -0.346 OA
HETATM   25  O   UNL     1       3.379   5.800   8.091  1.00  0.00    -0.346 OA
HETATM   26  C   UNL     1       3.529   6.531   5.861  1.00  0.00     0.040 A 
HETATM   27  C   UNL     1       3.324   4.622   8.905  1.00  0.00     0.202 C 
HETATM   28  C   UNL     1       4.493   3.697   8.604  1.00  0.00     0.202 C 
HETATM   29  C   UNL     1       3.821   6.303   4.514  1.00  0.00     0.017 A 
ENDBRANCH   2  20
TORSDOF 4
