REMARK  8 active torsions:
REMARK  status: ('A' for Active; 'I' for Inactive)
REMARK    1  A    between atoms: C_5  and  O_6 
REMARK    2  A    between atoms: O_6  and  C_7 
REMARK    3  A    between atoms: C_7  and  C_8 
REMARK    4  A    between atoms: C_8  and  C_9 
REMARK    5  A    between atoms: C_9  and  C_10 
REMARK    6  A    between atoms: C_10  and  N_11 
REMARK       I    between atoms: N_11  and  C_12 
REMARK    7  A    between atoms: C_12  and  C_13 
REMARK    8  A    between atoms: C_17  and  C_18 
ROOT
HETATM    1  C   UNL     1      -4.317  -9.373  -1.070  1.00  0.00     0.120 A 
HETATM    2  N   UNL     1      -4.623 -10.681  -1.319  1.00  0.00    -0.272 N 
HETATM    3  H   UNL     1      -3.973 -11.419  -1.574  1.00  0.00     0.189 HD
HETATM    4  N   UNL     1      -5.927 -10.973  -1.212  1.00  0.00    -0.174 NA
HETATM    5  C   UNL     1      -6.507  -9.815  -0.859  1.00  0.00     0.089 A 
HETATM    6  C   UNL     1      -5.529  -8.784  -0.767  1.00  0.00     0.071 A 
ENDROOT
BRANCH   1   7
HETATM    7  C   UNL     1      -2.968  -8.886  -1.151  1.00  0.00     0.270 C 
HETATM    8  N   UNL     1      -2.812  -7.546  -0.908  1.00  0.00    -0.345 N 
HETATM    9  H   UNL     1      -3.605  -6.974  -0.660  1.00  0.00     0.163 HD
HETATM   10  O   UNL     1      -2.022  -9.621  -1.419  1.00  0.00    -0.266 OA
BRANCH   8  11
HETATM   11  C   UNL     1      -1.508  -6.941  -0.927  1.00  0.00     0.217 C 
BRANCH  11  12
HETATM   12  C   UNL     1      -1.651  -5.437  -0.757  1.00  0.00    -0.085 C 
BRANCH  12  13
HETATM   13  C   UNL     1      -1.774  -4.147  -0.612  1.00  0.00    -0.078 C 
BRANCH  13  14
HETATM   14  C   UNL     1      -1.917  -2.644  -0.442  1.00  0.00     0.269 C 
BRANCH  14  15
HETATM   15  O   UNL     1      -3.283  -2.294  -0.644  1.00  0.00    -0.338 OA
BRANCH  15  16
HETATM   16  C   UNL     1      -3.599  -0.971  -0.540  1.00  0.00     0.087 A 
HETATM   17  C   UNL     1      -4.932  -0.642  -0.766  1.00  0.00     0.152 A 
HETATM   18  N   UNL     1      -5.436   0.615  -0.707  1.00  0.00    -0.270 NA
HETATM   19  C   UNL     1      -4.564   1.597  -0.406  1.00  0.00     0.116 A 
HETATM   20  C   UNL     1      -3.217   1.378  -0.162  1.00  0.00     0.022 A 
HETATM   21  C   UNL     1      -2.730   0.072  -0.231  1.00  0.00     0.040 A 
ENDBRANCH  15  16
ENDBRANCH  14  15
ENDBRANCH  13  14
ENDBRANCH  12  13
ENDBRANCH  11  12
ENDBRANCH   8  11
ENDBRANCH   1   7
BRANCH   5  22
HETATM   22  C   UNL     1      -7.952  -9.715  -0.628  1.00  0.00    -0.003 A 
HETATM   23  C   UNL     1      -8.493  -8.629   0.079  1.00  0.00     0.053 A 
HETATM   24  C   UNL     1      -9.861  -8.586   0.264  1.00  0.00     0.106 A 
HETATM   25  C   UNL     1     -10.694  -9.565  -0.222  1.00  0.00     0.105 A 
HETATM   26  O   UNL     1     -10.538  -7.609   0.926  1.00  0.00    -0.323 OA
HETATM   27  O   UNL     1     -12.000  -9.328   0.071  1.00  0.00    -0.323 OA
HETATM   28  C   UNL     1     -10.206 -10.647  -0.918  1.00  0.00     0.040 A 
HETATM   29  C   UNL     1     -11.894  -8.089   0.802  1.00  0.00     0.352 A 
HETATM   30  C   UNL     1      -8.822 -10.719  -1.118  1.00  0.00     0.017 A 
ENDBRANCH   5  22
TORSDOF 8
