REMARK  9 active torsions:
REMARK  status: ('A' for Active; 'I' for Inactive)
REMARK    1  A    between atoms: C_2  and  C_3 
REMARK    2  A    between atoms: C_3  and  O_4 
REMARK    3  A    between atoms: C_3  and  C_5 
REMARK    4  A    between atoms: C_5  and  N_6 
REMARK    5  A    between atoms: N_6  and  C_8 
REMARK    6  A    between atoms: N_6  and  C_21 
REMARK    7  A    between atoms: C_8  and  C_9 
REMARK    8  A    between atoms: C_10  and  C_11 
REMARK    9  A    between atoms: C_21  and  C_22 
ROOT
HETATM    1  N   UNL     1       5.031   2.488   1.283  1.00  0.00    -0.061 N 
HETATM    2  H   UNL     1       4.675   3.339   0.839  1.00  0.00     0.280 HD
ENDROOT
BRANCH   1   3
HETATM    3  C   UNL     1       4.569   1.340   0.397  1.00  0.00     0.267 C 
BRANCH   3   4
HETATM    4  C   UNL     1       3.041   1.266   0.170  1.00  0.00     0.143 C 
BRANCH   4   5
HETATM    5  C   UNL     1       2.389   2.543  -0.368  1.00  0.00     0.029 C 
HETATM    6  C   UNL     1       2.939   2.988  -1.713  1.00  0.00     0.007 C 
ENDBRANCH   4   5
BRANCH   4   7
HETATM    7  O   UNL     1       2.399   0.905   1.393  1.00  0.00    -0.394 OA
HETATM    8  H   UNL     1       1.480   0.641   1.186  1.00  0.00     0.210 HD
ENDBRANCH   4   7
ENDBRANCH   3   4
ENDBRANCH   1   3
BRANCH   1   9
HETATM    9  C   UNL     1       4.465   2.532   2.690  1.00  0.00     0.277 C 
BRANCH   9  10
HETATM   10  C   UNL     1       4.898   1.527   3.699  1.00  0.00     0.016 A 
HETATM   11  C   UNL     1       4.836   1.704   5.125  1.00  0.00     0.096 A 
HETATM   12  N   UNL     1       5.356   0.649   5.764  1.00  0.00    -0.174 NA
HETATM   13  N   UNL     1       5.661  -0.224   4.804  1.00  0.00    -0.288 N 
HETATM   14  H   UNL     1       6.035  -1.128   5.079  1.00  0.00     0.188 HD
HETATM   15  C   UNL     1       5.432   0.260   3.547  1.00  0.00     0.120 A 
BRANCH  11  16
HETATM   16  C   UNL     1       4.336   2.850   5.884  1.00  0.00    -0.005 A 
HETATM   17  C   UNL     1       3.085   3.415   5.603  1.00  0.00     0.014 A 
HETATM   18  C   UNL     1       2.630   4.517   6.333  1.00  0.00     0.001 A 
HETATM   19  C   UNL     1       3.413   5.051   7.355  1.00  0.00     0.000 A 
HETATM   20  C   UNL     1       4.648   4.482   7.656  1.00  0.00     0.001 A 
HETATM   21  C   UNL     1       5.108   3.384   6.926  1.00  0.00     0.014 A 
ENDBRANCH  11  16
ENDBRANCH   9  10
ENDBRANCH   1   9
BRANCH   1  22
HETATM   22  C   UNL     1       6.537   2.657   1.297  1.00  0.00     0.273 C 
BRANCH  22  23
HETATM   23  C   UNL     1       7.092   3.095  -0.034  1.00  0.00    -0.033 A 
HETATM   24  C   UNL     1       6.834   4.383  -0.529  1.00  0.00     0.009 A 
HETATM   25  C   UNL     1       7.319   4.769  -1.780  1.00  0.00     0.001 A 
HETATM   26  C   UNL     1       8.069   3.878  -2.544  1.00  0.00     0.000 A 
HETATM   27  C   UNL     1       8.342   2.602  -2.058  1.00  0.00     0.001 A 
HETATM   28  C   UNL     1       7.858   2.210  -0.809  1.00  0.00     0.009 A 
ENDBRANCH  22  23
ENDBRANCH   1  22
TORSDOF 9
