REMARK  5 active torsions:
REMARK  status: ('A' for Active; 'I' for Inactive)
REMARK    1  A    between atoms: C_9  and  N_10 
REMARK       I    between atoms: N_10  and  C_11 
REMARK    2  A    between atoms: C_11  and  C_12 
REMARK    3  A    between atoms: C_14  and  C_15 
REMARK    4  A    between atoms: C_15  and  O_16 
REMARK    5  A    between atoms: O_16  and  C_17 
ROOT
HETATM    1  N   UNL     1       5.971  -2.127   4.574  1.00  0.00    -0.321 N 
HETATM    2  C   UNL     1       7.048  -2.068   5.452  1.00  0.00     0.279 C 
HETATM    3  O   UNL     1       7.650  -3.058   5.862  1.00  0.00    -0.265 OA
HETATM    4  H   UNL     1       5.677  -1.244   4.177  1.00  0.00     0.169 HD
ENDROOT
BRANCH   2   5
HETATM    5  C   UNL     1       7.443  -0.713   5.794  1.00  0.00     0.143 A 
HETATM    6  O   UNL     1       8.762  -0.486   6.075  1.00  0.00    -0.307 OA
HETATM    7  C   UNL     1       8.912   0.844   6.332  1.00  0.00     0.078 A 
HETATM    8  C   UNL     1       7.691   1.478   6.244  1.00  0.00     0.038 A 
HETATM    9  C   UNL     1       6.747   0.481   5.891  1.00  0.00     0.045 A 
BRANCH   7  10
HETATM   10  C   UNL     1      10.294   1.312   6.612  1.00  0.00     0.240 C 
BRANCH  10  11
HETATM   11  O   UNL     1      10.384   1.527   8.018  1.00  0.00    -0.345 OA
BRANCH  11  12
HETATM   12  C   UNL     1      11.624   1.834   8.510  1.00  0.00     0.069 A 
HETATM   13  C   UNL     1      12.763   2.112   7.747  1.00  0.00     0.040 A 
HETATM   14  C   UNL     1      13.974   2.407   8.381  1.00  0.00     0.045 A 
HETATM   15  C   UNL     1      14.040   2.426   9.768  1.00  0.00     0.116 A 
HETATM   16  F   UNL     1      15.204   2.706  10.369  1.00  0.00    -0.206 F 
HETATM   17  C   UNL     1      12.916   2.160  10.539  1.00  0.00     0.045 A 
HETATM   18  C   UNL     1      11.707   1.866   9.906  1.00  0.00     0.040 A 
ENDBRANCH  11  12
ENDBRANCH  10  11
ENDBRANCH   7  10
ENDBRANCH   2   5
BRANCH   1  19
HETATM   19  C   UNL     1       5.377  -3.289   4.041  1.00  0.00     0.035 A 
HETATM   20  C   UNL     1       5.616  -4.574   4.537  1.00  0.00     0.039 A 
HETATM   21  C   UNL     1       4.999  -5.656   3.926  1.00  0.00    -0.022 A 
HETATM   22  C   UNL     1       5.089  -7.093   4.308  1.00  0.00     0.274 C 
HETATM   23  C   UNL     1       4.145  -5.484   2.836  1.00  0.00    -0.025 A 
HETATM   24  N   UNL     1       4.399  -7.837   3.170  1.00  0.00    -0.067 N 
HETATM   25  C   UNL     1       3.608  -9.019   3.601  1.00  0.00     0.270 C 
HETATM   26  H   UNL     1       5.152  -8.153   2.548  1.00  0.00     0.280 HD
HETATM   27  C   UNL     1       3.607  -6.798   2.384  1.00  0.00     0.273 C 
HETATM   28  C   UNL     1       3.877  -4.220   2.342  1.00  0.00     0.012 A 
HETATM   29  C   UNL     1       4.494  -3.122   2.955  1.00  0.00     0.030 A 
ENDBRANCH   1  19
TORSDOF 5
