REMARK  7 active torsions:
REMARK  status: ('A' for Active; 'I' for Inactive)
REMARK    1  A    between atoms: C_4  and  C_5 
REMARK    2  A    between atoms: C_5  and  O_6 
REMARK    3  A    between atoms: C_5  and  C_7 
REMARK    4  A    between atoms: C_7  and  N_8 
REMARK       I    between atoms: N_8  and  C_9 
REMARK    5  A    between atoms: N_8  and  C_20 
REMARK    6  A    between atoms: C_9  and  C_10 
REMARK    7  A    between atoms: C_14  and  C_15 
ROOT
HETATM    1  N   UNL     1       4.912  -1.004  -0.270  1.00  0.00    -0.339 N 
HETATM    2  C   UNL     1       5.732   0.135  -0.088  1.00  0.00     0.274 C 
HETATM    3  O   UNL     1       6.944   0.081  -0.316  1.00  0.00    -0.266 OA
ENDROOT
BRANCH   1   4
HETATM    4  C   UNL     1       3.434  -0.985  -0.174  1.00  0.00     0.163 C 
BRANCH   4   5
HETATM    5  C   UNL     1       2.865  -1.545   1.153  1.00  0.00     0.169 C 
BRANCH   5   6
HETATM    6  C   UNL     1       1.349  -1.567   1.130  1.00  0.00    -0.028 A 
HETATM    7  C   UNL     1       0.599  -0.425   1.451  1.00  0.00     0.010 A 
HETATM    8  C   UNL     1      -0.795  -0.451   1.398  1.00  0.00     0.001 A 
HETATM    9  C   UNL     1      -1.458  -1.616   1.017  1.00  0.00     0.000 A 
HETATM   10  C   UNL     1      -0.727  -2.756   0.690  1.00  0.00     0.001 A 
HETATM   11  C   UNL     1       0.668  -2.732   0.744  1.00  0.00     0.010 A 
ENDBRANCH   5   6
BRANCH   5  12
HETATM   12  O   UNL     1       3.309  -0.827   2.304  1.00  0.00    -0.389 OA
HETATM   13  H   UNL     1       3.659   0.034   1.987  1.00  0.00     0.210 HD
ENDBRANCH   5  12
ENDBRANCH   4   5
ENDBRANCH   1   4
BRANCH   1  14
HETATM   14  C   UNL     1       5.616  -2.281  -0.535  1.00  0.00     0.087 C 
HETATM   15  C   UNL     1       4.822  -3.311  -1.358  1.00  0.00     0.025 C 
HETATM   16  C   UNL     1       5.659  -4.556  -1.646  1.00  0.00     0.002 C 
HETATM   17  C   UNL     1       6.182  -5.185  -0.358  1.00  0.00     0.000 C 
HETATM   18  C   UNL     1       6.961  -4.179   0.484  1.00  0.00     0.002 C 
HETATM   19  C   UNL     1       6.147  -2.916   0.764  1.00  0.00     0.025 C 
ENDBRANCH   1  14
BRANCH   2  20
HETATM   20  C   UNL     1       5.150   1.423   0.349  1.00  0.00     0.146 A 
HETATM   21  N   UNL     1       4.078   1.548   1.161  1.00  0.00    -0.169 NA
HETATM   22  N   UNL     1       3.933   2.878   1.320  1.00  0.00    -0.281 N 
HETATM   23  H   UNL     1       3.173   3.219   1.899  1.00  0.00     0.189 HD
HETATM   24  C   UNL     1       4.870   3.611   0.660  1.00  0.00     0.034 A 
HETATM   25  C   UNL     1       5.693   2.705   0.042  1.00  0.00     0.066 A 
BRANCH  24  26
HETATM   26  C   UNL     1       5.008   5.116   0.604  1.00  0.00     0.037 A 
HETATM   27  C   UNL     1       3.750   5.958   0.590  1.00  0.00     0.011 A 
HETATM   28  C   UNL     1       4.604   5.934   1.811  1.00  0.00     0.011 A 
ENDBRANCH  24  26
ENDBRANCH   2  20
TORSDOF 7
