REMARK  10 active torsions:
REMARK  status: ('A' for Active; 'I' for Inactive)
REMARK    1  A    between atoms: N_15  and  C_16 
REMARK    2  A    between atoms: C_16  and  C_17 
REMARK    3  A    between atoms: C_17  and  N_18 
REMARK       I    between atoms: N_18  and  C_19 
REMARK    4  A    between atoms: C_19  and  C_20 
REMARK    5  A    between atoms: C_20  and  C_21 
REMARK    6  A    between atoms: C_21  and  C_22 
REMARK    7  A    between atoms: C_24  and  C_25 
REMARK    8  A    between atoms: C_29  and  O_30 
REMARK    9  A    between atoms: C_31  and  C_32 
REMARK   10  A    between atoms: C_38  and  O_39 
ROOT
HETATM    1  C   UNL     1       5.840   3.802  -2.350  1.00  0.00     0.142 C 
ENDROOT
BRANCH   1   2
HETATM    2  C   UNL     1       6.827   3.678  -1.180  1.00  0.00     0.151 C 
BRANCH   2   3
HETATM    3  N   UNL     1       7.333   4.966  -0.668  1.00  0.00    -0.291 N 
HETATM    4  C   UNL     1       7.118   5.362   0.621  1.00  0.00     0.366 A 
HETATM    5  O   UNL     1       7.828   6.488   0.881  1.00  0.00    -0.287 OA
HETATM    6  O   UNL     1       6.400   4.824   1.443  1.00  0.00    -0.238 OA
HETATM    7  C   UNL     1       8.623   6.921  -0.274  1.00  0.00     0.126 A 
HETATM    8  C   UNL     1       8.060   8.326  -0.572  1.00  0.00     0.082 C 
HETATM    9  C   UNL     1       8.295   5.802  -1.329  1.00  0.00     0.166 A 
HETATM   10  C   UNL     1      10.053   7.032   0.296  1.00  0.00     0.082 C 
HETATM   11  C   UNL     1       8.955   9.245  -1.405  1.00  0.00     0.122 C 
HETATM   12  N   UNL     1      10.313   9.309  -0.746  1.00  0.00    -0.059 N 
HETATM   13  C   UNL     1       8.387  10.680  -1.351  1.00  0.00     0.046 C 
HETATM   14  C   UNL     1       9.093   8.868  -2.880  1.00  0.00     0.046 C 
HETATM   15  C   UNL     1      11.031   8.045  -0.334  1.00  0.00     0.122 C 
HETATM   16  H   UNL     1      10.199   9.882   0.105  1.00  0.00     0.279 HD
HETATM   17  H   UNL     1      10.943   9.876  -1.335  1.00  0.00     0.279 HD
HETATM   18  C   UNL     1      12.049   8.477   0.750  1.00  0.00     0.046 C 
HETATM   19  C   UNL     1      11.857   7.514  -1.509  1.00  0.00     0.046 C 
HETATM   20  C   UNL     1       9.480   5.000  -1.851  1.00  0.00     0.074 C 
BRANCH   9  21
HETATM   21  O   UNL     1       7.597   6.370  -2.425  1.00  0.00    -0.368 OA
HETATM   22  H   UNL     1       6.663   6.346  -2.141  1.00  0.00     0.212 HD
ENDBRANCH   9  21
ENDBRANCH   2   3
ENDBRANCH   1   2
BRANCH   1  23
HETATM   23  N   UNL     1       6.468   4.137  -3.619  1.00  0.00    -0.359 N 
HETATM   24  C   UNL     1       7.006   3.164  -4.429  1.00  0.00     0.217 C 
HETATM   25  O   UNL     1       7.000   1.976  -4.123  1.00  0.00    -0.274 OA
HETATM   26  H   UNL     1       6.658   5.107  -3.835  1.00  0.00     0.162 HD
BRANCH  24  27
HETATM   27  C   UNL     1       7.577   3.664  -5.744  1.00  0.00     0.107 C 
BRANCH  27  28
HETATM   28  C   UNL     1       8.842   4.515  -5.610  1.00  0.00     0.048 C 
BRANCH  28  29
HETATM   29  C   UNL     1      10.149   3.831  -5.259  1.00  0.00    -0.057 A 
HETATM   30  C   UNL     1      10.240   2.487  -4.885  1.00  0.00     0.018 A 
HETATM   31  C   UNL     1      11.455   1.868  -4.521  1.00  0.00    -0.016 A 
HETATM   32  C   UNL     1      12.613   2.670  -4.611  1.00  0.00     0.079 A 
HETATM   33  C   UNL     1      12.591   4.029  -5.017  1.00  0.00    -0.016 A 
HETATM   34  C   UNL     1      11.331   4.583  -5.314  1.00  0.00     0.018 A 
BRANCH  31  35
HETATM   35  C   UNL     1      11.426   0.352  -4.179  1.00  0.00    -0.021 C 
HETATM   36  C   UNL     1      11.463  -0.430  -5.508  1.00  0.00     0.019 C 
HETATM   37  C   UNL     1      12.583  -0.160  -3.293  1.00  0.00     0.019 C 
HETATM   38  C   UNL     1      10.132  -0.043  -3.413  1.00  0.00     0.019 C 
ENDBRANCH  31  35
BRANCH  32  39
HETATM   39  O   UNL     1      13.837   2.129  -4.341  1.00  0.00    -0.360 OA
HETATM   40  H   UNL     1      13.845   1.924  -3.392  1.00  0.00     0.217 HD
ENDBRANCH  32  39
BRANCH  33  41
HETATM   41  C   UNL     1      13.886   4.870  -5.171  1.00  0.00    -0.021 C 
HETATM   42  C   UNL     1      14.798   4.254  -6.256  1.00  0.00     0.019 C 
HETATM   43  C   UNL     1      13.627   6.336  -5.609  1.00  0.00     0.019 C 
HETATM   44  C   UNL     1      14.648   4.959  -3.830  1.00  0.00     0.019 C 
ENDBRANCH  33  41
ENDBRANCH  28  29
ENDBRANCH  27  28
ENDBRANCH  24  27
ENDBRANCH   1  23
TORSDOF 10
