REMARK  5 active torsions:
REMARK  status: ('A' for Active; 'I' for Inactive)
REMARK    1  A    between atoms: C_8  and  C_9 
REMARK    2  A    between atoms: N_10  and  N_11 
REMARK       I    between atoms: N_11  and  C_12 
REMARK    3  A    between atoms: C_12  and  C_13 
REMARK    4  A    between atoms: C_13  and  N_14 
REMARK    5  A    between atoms: N_14  and  C_15 
ROOT
HETATM    1  N   UNL     1      -1.394  -5.034   0.256  1.00  0.00    -0.246 N 
HETATM    2  C   UNL     1      -0.518  -6.118   0.325  1.00  0.00     0.255 C 
HETATM    3  O   UNL     1       0.709  -6.047   0.326  1.00  0.00    -0.270 OA
HETATM    4  H   UNL     1      -2.356  -5.213  -0.018  1.00  0.00     0.192 HD
ENDROOT
BRANCH   1   5
HETATM    5  N   UNL     1      -1.023  -3.713   0.140  1.00  0.00    -0.184 NA
HETATM    6  C   UNL     1       0.083  -3.341   0.706  1.00  0.00     0.152 C 
BRANCH   6   7
HETATM    7  C   UNL     1       0.530  -1.967   0.590  1.00  0.00     0.011 A 
HETATM    8  C   UNL     1       1.716  -1.403   1.163  1.00  0.00     0.004 A 
HETATM    9  C   UNL     1       2.769  -1.917   1.951  1.00  0.00     0.014 A 
HETATM   10  C   UNL     1       1.750  -0.052   0.813  1.00  0.00     0.043 A 
HETATM   11  C   UNL     1       3.804  -1.069   2.361  1.00  0.00     0.001 A 
HETATM   12  C   UNL     1       3.805   0.275   1.997  1.00  0.00     0.002 A 
HETATM   13  C   UNL     1       2.778   0.810   1.214  1.00  0.00     0.030 A 
HETATM   14  N   UNL     1       0.632   0.195   0.049  1.00  0.00    -0.364 N 
HETATM   15  H   UNL     1       0.399   1.094  -0.350  1.00  0.00     0.165 HD
HETATM   16  C   UNL     1      -0.108  -0.947  -0.092  1.00  0.00     0.102 A 
ENDBRANCH   6   7
ENDBRANCH   1   5
BRANCH   2  17
HETATM   17  C   UNL     1      -1.251  -7.456   0.430  1.00  0.00     0.224 C 
BRANCH  17  18
HETATM   18  N   UNL     1      -1.775  -7.885  -0.868  1.00  0.00    -0.381 N 
HETATM   19  H   UNL     1      -2.062  -7.145  -1.500  1.00  0.00     0.160 HD
BRANCH  18  20
HETATM   20  C   UNL     1      -2.507  -9.065  -0.978  1.00  0.00     0.028 A 
HETATM   21  C   UNL     1      -3.211  -9.314  -2.165  1.00  0.00     0.030 A 
HETATM   22  C   UNL     1      -3.907 -10.512  -2.365  1.00  0.00     0.021 A 
HETATM   23  C   UNL     1      -3.885 -11.494  -1.380  1.00  0.00     0.011 A 
HETATM   24 BR   UNL     1      -4.809 -13.120  -1.645  1.00  0.00    -0.051 Br
HETATM   25  C   UNL     1      -3.168 -11.287  -0.207  1.00  0.00     0.021 A 
HETATM   26  C   UNL     1      -2.478 -10.084  -0.016  1.00  0.00     0.030 A 
ENDBRANCH  18  20
ENDBRANCH  17  18
ENDBRANCH   2  17
TORSDOF 5
