REMARK  7 active torsions:
REMARK  status: ('A' for Active; 'I' for Inactive)
REMARK    1  A    between atoms: C_2  and  C_3 
REMARK       I    between atoms: C_3  and  N_4 
REMARK    2  A    between atoms: N_7  and  C_8 
REMARK    3  A    between atoms: C_12  and  N_13 
REMARK    4  A    between atoms: N_13  and  C_14 
REMARK    5  A    between atoms: C_14  and  N_15 
REMARK       I    between atoms: N_15  and  C_16 
REMARK    6  A    between atoms: C_16  and  C_17 
REMARK    7  A    between atoms: C_18  and  O_19 
ROOT
HETATM    1  C   UNL     1       1.114   1.118  -6.644  1.00  0.00     0.052 A 
HETATM    2  C   UNL     1       1.312   0.169  -7.664  1.00  0.00     0.062 A 
HETATM    3 CL   UNL     1       2.415  -1.160  -7.524  1.00  0.00    -0.082 Cl
HETATM    4  C   UNL     1       0.646   0.279  -8.896  1.00  0.00     0.055 A 
HETATM    5  C   UNL     1      -0.226   1.333  -9.153  1.00  0.00     0.036 A 
HETATM    6  C   UNL     1      -0.325   2.349  -8.202  1.00  0.00     0.032 A 
HETATM    7  C   UNL     1       0.328   2.237  -6.968  1.00  0.00     0.033 A 
ENDROOT
BRANCH   5   8
HETATM    8  N   UNL     1      -1.017   1.463 -10.315  1.00  0.00    -0.333 N 
HETATM    9  H   UNL     1      -1.477   2.370 -10.424  1.00  0.00     0.168 HD
BRANCH   8  10
HETATM   10  C   UNL     1      -1.427   0.540 -11.251  1.00  0.00     0.179 C 
HETATM   11  S   UNL     1      -1.190  -1.114 -11.305  1.00  0.00    -0.040 SA
BRANCH  10  12
HETATM   12  N   UNL     1      -2.178   1.061 -12.289  1.00  0.00    -0.299 N 
HETATM   13  C   UNL     1      -2.631   2.355 -12.503  1.00  0.00     0.260 C 
HETATM   14  O   UNL     1      -2.490   3.275 -11.704  1.00  0.00    -0.267 OA
HETATM   15  H   UNL     1      -2.414   0.370 -12.994  1.00  0.00     0.171 HD
BRANCH  13  16
HETATM   16  C   UNL     1      -3.398   2.544 -13.759  1.00  0.00     0.066 A 
HETATM   17  C   UNL     1      -3.023   1.937 -14.969  1.00  0.00     0.089 A 
HETATM   18  C   UNL     1      -3.852   2.023 -16.098  1.00  0.00    -0.028 A 
HETATM   19  C   UNL     1      -3.506   1.304 -17.372  1.00  0.00     0.051 C 
HETATM   20  C   UNL     1      -5.040   2.763 -16.009  1.00  0.00     0.009 A 
HETATM   21  C   UNL     1      -5.388   3.414 -14.823  1.00  0.00     0.002 A 
HETATM   22  C   UNL     1      -4.569   3.308 -13.699  1.00  0.00     0.020 A 
BRANCH  17  23
HETATM   23  O   UNL     1      -1.872   1.194 -15.073  1.00  0.00    -0.354 OA
HETATM   24  C   UNL     1      -0.721   2.044 -15.161  1.00  0.00     0.210 C 
ENDBRANCH  17  23
ENDBRANCH  13  16
ENDBRANCH  10  12
ENDBRANCH   8  10
ENDBRANCH   5   8
BRANCH   1  25
HETATM   25  N   UNL     1       1.566   1.044  -5.323  1.00  0.00    -0.376 N 
HETATM   26  C   UNL     1       2.827   1.756  -5.040  1.00  0.00     0.143 C 
HETATM   27  C   UNL     1       2.975   1.968  -3.516  1.00  0.00     0.145 C 
HETATM   28  N   UNL     1       2.738   0.749  -2.724  1.00  0.00    -0.349 N 
HETATM   29  C   UNL     1       3.331   0.663  -1.469  1.00  0.00     0.219 C 
HETATM   30  C   UNL     1       1.547  -0.025  -3.112  1.00  0.00     0.145 C 
HETATM   31  O   UNL     1       4.139   1.503  -1.070  1.00  0.00    -0.273 OA
HETATM   32  C   UNL     1       1.477  -0.253  -4.630  1.00  0.00     0.143 C 
BRANCH  29  33
HETATM   33  C   UNL     1       2.951  -0.540  -0.617  1.00  0.00     0.098 C 
HETATM   34  C   UNL     1       3.684  -0.575   0.713  1.00  0.00     0.014 C 
ENDBRANCH  29  33
ENDBRANCH   1  25
TORSDOF 7
