REMARK  3 active torsions:
REMARK  status: ('A' for Active; 'I' for Inactive)
REMARK    1  A    between atoms: C_8  and  C_9 
REMARK    2  A    between atoms: C_12  and  C_13 
REMARK    3  A    between atoms: C_24  and  N_25 
ROOT
HETATM    1  C   UNL     1       5.203   3.293  -2.287  1.00  0.00     0.073 C 
HETATM    2  C   UNL     1       5.003   3.879  -0.939  1.00  0.00     0.062 A 
HETATM    3  N   UNL     1       5.791   4.881  -0.513  1.00  0.00    -0.177 NA
HETATM    4  N   UNL     1       5.330   5.165   0.722  1.00  0.00    -0.256 N 
HETATM    5  H   UNL     1       5.782   5.898   1.257  1.00  0.00     0.191 HD
HETATM    6  C   UNL     1       4.284   4.381   1.085  1.00  0.00     0.175 A 
HETATM    7  C   UNL     1       4.034   3.537   0.035  1.00  0.00     0.034 A 
HETATM    8  C   UNL     1       2.942   2.530   0.133  1.00  0.00     0.105 A 
HETATM    9  C   UNL     1       2.262   2.609   1.502  1.00  0.00     0.080 A 
HETATM   10  C   UNL     1       1.243   1.647   1.762  1.00  0.00     0.100 C 
HETATM   11  N   UNL     1       0.411   0.867   1.977  1.00  0.00    -0.191 NA
HETATM   12  C   UNL     1       2.625   3.509   2.458  1.00  0.00     0.140 A 
HETATM   13  O   UNL     1       3.653   4.447   2.250  1.00  0.00    -0.279 OA
ENDROOT
BRANCH   8  14
HETATM   14  C   UNL     1       2.006   2.814  -1.034  1.00  0.00    -0.044 A 
HETATM   15  C   UNL     1       1.838   1.846  -2.036  1.00  0.00     0.009 A 
HETATM   16  C   UNL     1       1.009   2.090  -3.136  1.00  0.00     0.013 A 
HETATM   17  C   UNL     1       0.315   3.303  -3.269  1.00  0.00    -0.026 A 
HETATM   18  C   UNL     1       0.467   4.258  -2.253  1.00  0.00     0.013 A 
HETATM   19  C   UNL     1       1.296   4.020  -1.151  1.00  0.00     0.009 A 
BRANCH  17  20
HETATM   20  C   UNL     1      -0.532   3.569  -4.446  1.00  0.00    -0.026 A 
HETATM   21  C   UNL     1      -1.502   2.644  -4.869  1.00  0.00     0.012 A 
HETATM   22  C   UNL     1      -2.294   2.893  -5.994  1.00  0.00     0.001 A 
HETATM   23  C   UNL     1      -2.130   4.072  -6.716  1.00  0.00     0.000 A 
HETATM   24  C   UNL     1      -1.177   5.003  -6.313  1.00  0.00     0.001 A 
HETATM   25  C   UNL     1      -0.385   4.753  -5.189  1.00  0.00     0.012 A 
ENDBRANCH  17  20
ENDBRANCH   8  14
BRANCH  12  26
HETATM   26  N   UNL     1       2.059   3.616   3.709  1.00  0.00    -0.282 NA
HETATM   27  H   UNL     1       1.108   3.265   3.794  1.00  0.00     0.126 HD
HETATM   28  H   UNL     1       2.180   4.545   4.106  1.00  0.00     0.126 HD
ENDBRANCH  12  26
TORSDOF 3
