REMARK  6 active torsions:
REMARK  status: ('A' for Active; 'I' for Inactive)
REMARK    1  A    between atoms: C_8  and  C_9 
REMARK    2  A    between atoms: N_10  and  N_11 
REMARK       I    between atoms: N_11  and  C_12 
REMARK    3  A    between atoms: C_12  and  C_13 
REMARK    4  A    between atoms: C_16  and  N_17 
REMARK    5  A    between atoms: N_17  and  C_18 
REMARK    6  A    between atoms: C_18  and  C_19 
ROOT
HETATM    1  C   UNL     1       0.644  -5.752  -0.016  1.00  0.00     0.033 A 
HETATM    2  C   UNL     1       1.126  -4.503   0.384  1.00  0.00     0.019 A 
HETATM    3  C   UNL     1       2.498  -4.222   0.320  1.00  0.00     0.030 A 
HETATM    4  C   UNL     1       3.421  -5.185  -0.107  1.00  0.00     0.028 A 
HETATM    5  C   UNL     1       2.919  -6.433  -0.503  1.00  0.00     0.030 A 
HETATM    6  C   UNL     1       1.552  -6.724  -0.444  1.00  0.00     0.019 A 
ENDROOT
BRANCH   1   7
HETATM    7  C   UNL     1      -0.807  -6.093  -0.014  1.00  0.00     0.271 C 
HETATM    8  N   UNL     1      -1.663  -5.036  -0.294  1.00  0.00    -0.243 N 
HETATM    9  H   UNL     1      -1.289  -4.101  -0.405  1.00  0.00     0.192 HD
HETATM   10  O   UNL     1      -1.137  -7.255   0.203  1.00  0.00    -0.266 OA
BRANCH   8  11
HETATM   11  N   UNL     1      -3.034  -5.063  -0.319  1.00  0.00    -0.183 NA
HETATM   12  C   UNL     1      -3.647  -6.184  -0.529  1.00  0.00     0.152 C 
BRANCH  12  13
HETATM   13  C   UNL     1      -5.099  -6.199  -0.533  1.00  0.00     0.011 A 
HETATM   14  C   UNL     1      -5.952  -7.308  -0.837  1.00  0.00     0.004 A 
HETATM   15  C   UNL     1      -5.727  -8.653  -1.202  1.00  0.00     0.014 A 
HETATM   16  C   UNL     1      -7.271  -6.864  -0.731  1.00  0.00     0.043 A 
HETATM   17  C   UNL     1      -6.818  -9.495  -1.448  1.00  0.00     0.001 A 
HETATM   18  C   UNL     1      -8.121  -9.018  -1.335  1.00  0.00     0.002 A 
HETATM   19  C   UNL     1      -8.374  -7.692  -0.972  1.00  0.00     0.030 A 
HETATM   20  N   UNL     1      -7.224  -5.538  -0.367  1.00  0.00    -0.364 N 
HETATM   21  H   UNL     1      -8.036  -4.956  -0.214  1.00  0.00     0.165 HD
HETATM   22  C   UNL     1      -5.925  -5.127  -0.249  1.00  0.00     0.102 A 
ENDBRANCH  12  13
ENDBRANCH   8  11
ENDBRANCH   1   7
BRANCH   4  23
HETATM   23  N   UNL     1       4.777  -4.928  -0.299  1.00  0.00    -0.386 N 
HETATM   24  H   UNL     1       5.349  -5.767  -0.245  1.00  0.00     0.160 HD
BRANCH  23  25
HETATM   25  C   UNL     1       5.418  -3.775   0.317  1.00  0.00     0.158 C 
BRANCH  25  26
HETATM   26  C   UNL     1       6.863  -3.711  -0.126  1.00  0.00    -0.038 A 
HETATM   27  C   UNL     1       7.905  -3.803   0.812  1.00  0.00     0.048 A 
HETATM   28  C   UNL     1       9.202  -3.715   0.351  1.00  0.00     0.105 A 
HETATM   29  C   UNL     1       9.491  -3.545  -0.983  1.00  0.00     0.105 A 
HETATM   30  O   UNL     1      10.322  -3.777   1.120  1.00  0.00    -0.323 OA
HETATM   31  O   UNL     1      10.828  -3.480  -1.220  1.00  0.00    -0.323 OA
HETATM   32  C   UNL     1       8.500  -3.455  -1.934  1.00  0.00     0.040 A 
HETATM   33  C   UNL     1      11.349  -3.620   0.118  1.00  0.00     0.352 A 
HETATM   34  C   UNL     1       7.174  -3.538  -1.497  1.00  0.00     0.012 A 
ENDBRANCH  25  26
ENDBRANCH  23  25
ENDBRANCH   4  23
TORSDOF 6
