REMARK  4 active torsions:
REMARK  status: ('A' for Active; 'I' for Inactive)
REMARK    1  A    between atoms: C_2  and  O_3 
REMARK    2  A    between atoms: C_2  and  C_12 
REMARK    3  A    between atoms: O_3  and  C_4 
REMARK       I    between atoms: C_12  and  N_13 
REMARK    4  A    between atoms: N_13  and  C_14 
ROOT
HETATM    1  C   UNL     1       3.962   0.252  -0.963  1.00  0.00     0.050 C 
HETATM    2  C   UNL     1       2.695  -0.131  -0.200  1.00  0.00     0.217 C 
ENDROOT
BRANCH   2   3
HETATM    3  O   UNL     1       2.442   0.775   0.893  1.00  0.00    -0.336 OA
BRANCH   3   4
HETATM    4  C   UNL     1       1.912   1.972   0.488  1.00  0.00     0.087 A 
HETATM    5  C   UNL     1       0.546   2.153   0.239  1.00  0.00     0.047 A 
HETATM    6 BR   UNL     1      -0.709   0.747   0.458  1.00  0.00    -0.048 Br
HETATM    7  C   UNL     1       0.069   3.410  -0.138  1.00  0.00     0.064 A 
HETATM    8  C   UNL     1       0.956   4.477  -0.230  1.00  0.00     0.117 A 
HETATM    9  F   UNL     1       0.499   5.684  -0.587  1.00  0.00    -0.206 F 
HETATM   10  C   UNL     1       2.306   4.319   0.061  1.00  0.00     0.045 A 
HETATM   11  C   UNL     1       2.784   3.064   0.433  1.00  0.00     0.041 A 
ENDBRANCH   3   4
ENDBRANCH   2   3
BRANCH   2  12
HETATM   12  C   UNL     1       2.838  -1.551   0.390  1.00  0.00     0.252 C 
HETATM   13  N   UNL     1       1.953  -1.768   1.433  1.00  0.00    -0.309 N 
HETATM   14  H   UNL     1       1.385  -0.978   1.710  1.00  0.00     0.170 HD
HETATM   15  O   UNL     1       3.614  -2.369  -0.093  1.00  0.00    -0.270 OA
BRANCH  13  16
HETATM   16  C   UNL     1       1.858  -2.936   2.197  1.00  0.00     0.129 A 
HETATM   17  N   UNL     1       2.658  -3.988   1.950  1.00  0.00    -0.242 NA
HETATM   18  C   UNL     1       2.537  -5.081   2.741  1.00  0.00     0.142 A 
HETATM   19  C   UNL     1       1.633  -5.177   3.783  1.00  0.00     0.051 A 
HETATM   20 CL   UNL     1       1.536  -6.591   4.748  1.00  0.00    -0.083 Cl
HETATM   21  C   UNL     1       0.805  -4.091   4.029  1.00  0.00     0.029 A 
HETATM   22  C   UNL     1       0.919  -2.953   3.226  1.00  0.00     0.052 A 
ENDBRANCH  13  16
ENDBRANCH   2  12
TORSDOF 4
