REMARK  6 active torsions:
REMARK  status: ('A' for Active; 'I' for Inactive)
REMARK    1  A    between atoms: C_2  and  C_3 
REMARK    2  A    between atoms: C_7  and  O_8 
REMARK    3  A    between atoms: O_8  and  C_9 
REMARK    4  A    between atoms: C_9  and  C_10 
REMARK       I    between atoms: C_10  and  N_11 
REMARK    5  A    between atoms: N_11  and  N_12 
REMARK    6  A    between atoms: C_13  and  C_14 
ROOT
HETATM    1  C   UNL     1       5.641  -2.292   6.927  1.00  0.00     0.261 C 
HETATM    2  N   UNL     1       6.716  -1.442   7.014  1.00  0.00    -0.246 N 
HETATM    3  O   UNL     1       5.333  -2.992   7.895  1.00  0.00    -0.269 OA
HETATM    4  H   UNL     1       7.184  -1.401   7.913  1.00  0.00     0.192 HD
ENDROOT
BRANCH   1   5
HETATM    5  C   UNL     1       4.893  -2.367   5.600  1.00  0.00     0.280 C 
BRANCH   5   6
HETATM    6  O   UNL     1       4.132  -1.184   5.393  1.00  0.00    -0.341 OA
BRANCH   6   7
HETATM    7  C   UNL     1       3.454  -1.077   4.208  1.00  0.00     0.086 A 
HETATM    8  C   UNL     1       3.045   0.204   3.815  1.00  0.00     0.044 A 
HETATM    9  C   UNL     1       2.307   0.393   2.640  1.00  0.00     0.029 A 
HETATM   10 BR   UNL     1       3.476   1.743   4.846  1.00  0.00    -0.048 Br
HETATM   11  C   UNL     1       1.956  -0.696   1.829  1.00  0.00    -0.053 A 
HETATM   12  C   UNL     1       2.361  -1.976   2.230  1.00  0.00     0.010 A 
HETATM   13  C   UNL     1       3.104  -2.164   3.402  1.00  0.00     0.039 A 
BRANCH  11  14
HETATM   14  C   UNL     1       1.115  -0.467   0.586  1.00  0.00     0.010 C 
HETATM   15  C   UNL     1      -0.352  -0.807   0.863  1.00  0.00     0.015 C 
HETATM   16  C   UNL     1       1.624  -1.234  -0.639  1.00  0.00     0.015 C 
ENDBRANCH  11  14
ENDBRANCH   6   7
ENDBRANCH   5   6
ENDBRANCH   1   5
BRANCH   2  17
HETATM   17  N   UNL     1       7.114  -0.649   5.981  1.00  0.00    -0.184 NA
HETATM   18  C   UNL     1       8.132   0.110   6.234  1.00  0.00     0.152 C 
BRANCH  18  19
HETATM   19  C   UNL     1       8.622   1.018   5.219  1.00  0.00     0.011 A 
HETATM   20  C   UNL     1       9.795   1.837   5.282  1.00  0.00     0.004 A 
HETATM   21  C   UNL     1       9.864   2.557   4.088  1.00  0.00     0.043 A 
HETATM   22  C   UNL     1      10.811   2.033   6.242  1.00  0.00     0.014 A 
HETATM   23  C   UNL     1      10.894   3.464   3.808  1.00  0.00     0.030 A 
HETATM   24  N   UNL     1       8.775   2.194   3.331  1.00  0.00    -0.364 N 
HETATM   25  C   UNL     1      11.887   3.638   4.776  1.00  0.00     0.002 A 
HETATM   26  C   UNL     1      11.849   2.934   5.976  1.00  0.00     0.001 A 
HETATM   27  H   UNL     1       8.563   2.565   2.415  1.00  0.00     0.165 HD
HETATM   28  C   UNL     1       8.025   1.266   3.998  1.00  0.00     0.102 A 
ENDBRANCH  18  19
ENDBRANCH   2  17
TORSDOF 6
