REMARK  8 active torsions:
REMARK  status: ('A' for Active; 'I' for Inactive)
REMARK    1  A    between atoms: C_2  and  O_3 
REMARK    2  A    between atoms: O_3  and  C_4 
REMARK    3  A    between atoms: C_5  and  C_6 
REMARK    4  A    between atoms: C_6  and  N_7 
REMARK    5  A    between atoms: C_9  and  C_10 
REMARK    6  A    between atoms: C_10  and  C_11 
REMARK       I    between atoms: C_11  and  N_12 
REMARK    7  A    between atoms: N_12  and  C_13 
REMARK    8  A    between atoms: C_13  and  C_14 
ROOT
HETATM    1  N   UNL     1       5.866   1.611  -0.423  1.00  0.00    -0.052 N 
HETATM    2  H   UNL     1       6.243   1.471  -1.371  1.00  0.00     0.281 HD
HETATM    3  C   UNL     1       5.727   3.148  -0.428  1.00  0.00     0.288 C 
HETATM    4  C   UNL     1       7.077   3.833  -0.730  1.00  0.00     0.249 C 
HETATM    5  O   UNL     1       7.156   5.021  -1.025  1.00  0.00    -0.271 OA
HETATM    6  N   UNL     1       8.195   3.037  -0.740  1.00  0.00    -0.358 N 
HETATM    7  C   UNL     1       8.328   1.772  -0.024  1.00  0.00     0.150 C 
HETATM    8  C   UNL     1       7.014   1.089   0.401  1.00  0.00     0.256 C 
HETATM    9  H   UNL     1       9.048   3.563  -0.915  1.00  0.00     0.162 HD
ENDROOT
BRANCH   3  10
HETATM   10  C   UNL     1       5.020   3.817   0.752  1.00  0.00     0.145 C 
BRANCH  10  11
HETATM   11  C   UNL     1       5.775   3.752   2.057  1.00  0.00     0.220 C 
HETATM   12  N   UNL     1       5.015   4.028   3.163  1.00  0.00    -0.355 N 
HETATM   13  H   UNL     1       4.081   4.411   3.067  1.00  0.00     0.162 HD
HETATM   14  O   UNL     1       6.963   3.453   2.118  1.00  0.00    -0.274 OA
BRANCH  12  15
HETATM   15  C   UNL     1       5.532   3.910   4.507  1.00  0.00     0.179 C 
BRANCH  15  16
HETATM   16  C   UNL     1       5.685   5.266   5.077  1.00  0.00     0.028 A 
HETATM   17  N   UNL     1       6.653   6.139   4.638  1.00  0.00    -0.357 N 
HETATM   18  H   UNL     1       7.310   5.951   3.891  1.00  0.00     0.166 HD
HETATM   19  C   UNL     1       6.625   7.301   5.375  1.00  0.00     0.043 A 
HETATM   20  C   UNL     1       5.604   7.164   6.317  1.00  0.00    -0.005 A 
HETATM   21  C   UNL     1       7.427   8.446   5.289  1.00  0.00     0.033 A 
HETATM   22  C   UNL     1       5.014   5.887   6.112  1.00  0.00     0.040 A 
HETATM   23  C   UNL     1       5.372   8.212   7.225  1.00  0.00     0.056 A 
HETATM   24  C   UNL     1       6.170   9.352   7.148  1.00  0.00     0.117 A 
HETATM   25  C   UNL     1       7.178   9.476   6.200  1.00  0.00     0.044 A 
HETATM   26  F   UNL     1       5.961  10.353   8.014  1.00  0.00    -0.206 F 
ENDBRANCH  15  16
ENDBRANCH  12  15
ENDBRANCH  10  11
ENDBRANCH   3  10
BRANCH   1  27
HETATM   27  C   UNL     1       4.620   0.760  -0.490  1.00  0.00     0.277 C 
BRANCH  27  28
HETATM   28  C   UNL     1       3.589   0.806   0.607  1.00  0.00     0.001 A 
HETATM   29  C   UNL     1       2.229   0.648   0.262  1.00  0.00     0.076 A 
HETATM   30  C   UNL     1       1.227   0.733   1.233  1.00  0.00     0.037 A 
HETATM   31  C   UNL     1       1.568   0.894   2.573  1.00  0.00     0.003 A 
HETATM   32  C   UNL     1       2.906   0.949   2.943  1.00  0.00     0.001 A 
HETATM   33  C   UNL     1       3.909   0.890   1.970  1.00  0.00     0.012 A 
BRANCH  29  34
HETATM   34  O   UNL     1       1.957   0.424  -1.065  1.00  0.00    -0.351 OA
BRANCH  34  35
HETATM   35  C   UNL     1       0.850  -0.453  -1.321  1.00  0.00     0.171 C 
HETATM   36  C   UNL     1       1.074  -1.103  -2.674  1.00  0.00     0.034 C 
ENDBRANCH  34  35
ENDBRANCH  29  34
ENDBRANCH  27  28
ENDBRANCH   1  27
TORSDOF 8
