REMARK  6 active torsions:
REMARK  status: ('A' for Active; 'I' for Inactive)
REMARK    1  A    between atoms: C_2  and  C_3 
REMARK    2  A    between atoms: C_3  and  C_4 
REMARK       I    between atoms: C_4  and  N_5 
REMARK    3  A    between atoms: N_5  and  C_6 
REMARK    4  A    between atoms: C_8  and  C_9 
REMARK    5  A    between atoms: C_9  and  N_10 
REMARK       I    between atoms: N_10  and  C_11 
REMARK    6  A    between atoms: C_11  and  C_12 
ROOT
HETATM    1  C   UNL     1       7.211  -0.104  -1.674  1.00  0.00     0.161 C 
ENDROOT
BRANCH   1   2
HETATM    2  C   UNL     1       6.628  -1.471  -1.440  1.00  0.00    -0.038 A 
HETATM    3  C   UNL     1       5.237  -1.628  -1.300  1.00  0.00     0.038 A 
HETATM    4  C   UNL     1       4.673  -2.890  -1.105  1.00  0.00     0.035 A 
HETATM    5  C   UNL     1       5.517  -4.006  -1.045  1.00  0.00     0.029 A 
HETATM    6  C   UNL     1       6.902  -3.859  -1.156  1.00  0.00     0.003 A 
HETATM    7  C   UNL     1       7.456  -2.595  -1.348  1.00  0.00     0.009 A 
BRANCH   4   8
HETATM    8  N   UNL     1       3.287  -3.124  -0.981  1.00  0.00    -0.327 N 
HETATM    9  C   UNL     1       2.281  -2.182  -0.869  1.00  0.00     0.226 C 
HETATM   10  O   UNL     1       2.432  -0.964  -0.830  1.00  0.00    -0.273 OA
HETATM   11  H   UNL     1       3.015  -4.096  -0.925  1.00  0.00     0.169 HD
BRANCH   9  12
HETATM   12  C   UNL     1       0.870  -2.774  -0.812  1.00  0.00     0.074 C 
HETATM   13  C   UNL     1       0.510  -3.385  -2.166  1.00  0.00     0.020 C 
BRANCH  12  14
HETATM   14  C   UNL     1       0.668  -3.793   0.320  1.00  0.00     0.009 C 
HETATM   15  C   UNL     1       0.952  -3.212   1.699  1.00  0.00     0.006 C 
ENDBRANCH  12  14
ENDBRANCH   9  12
ENDBRANCH   4   8
ENDBRANCH   1   2
BRANCH   1  16
HETATM   16  N   UNL     1       7.307   0.650  -0.456  1.00  0.00    -0.351 N 
HETATM   17  C   UNL     1       7.790   1.940  -0.452  1.00  0.00     0.273 C 
HETATM   18  O   UNL     1       8.292   2.468  -1.440  1.00  0.00    -0.266 OA
HETATM   19  H   UNL     1       6.811   0.359   0.382  1.00  0.00     0.163 HD
BRANCH  17  20
HETATM   20  C   UNL     1       7.622   2.626   0.839  1.00  0.00     0.157 A 
HETATM   21  N   UNL     1       7.096   1.995   1.912  1.00  0.00    -0.168 NA
HETATM   22  N   UNL     1       7.098   2.937   2.871  1.00  0.00    -0.277 N 
HETATM   23  H   UNL     1       6.741   2.690   3.786  1.00  0.00     0.189 HD
HETATM   24  C   UNL     1       7.591   4.149   2.475  1.00  0.00     0.063 A 
HETATM   25  C   UNL     1       7.946   3.981   1.143  1.00  0.00     0.029 A 
HETATM   26  C   UNL     1       7.747   5.356   3.161  1.00  0.00     0.032 A 
HETATM   27  C   UNL     1       8.487   5.078   0.442  1.00  0.00     0.023 A 
HETATM   28  C   UNL     1       8.653   6.309   1.101  1.00  0.00    -0.061 A 
HETATM   29  C   UNL     1       8.284   6.434   2.446  1.00  0.00     0.009 A 
HETATM   30  C   UNL     1       9.217   7.477   0.345  1.00  0.00     0.048 C 
ENDBRANCH  17  20
ENDBRANCH   1  16
TORSDOF 6
