REMARK  5 active torsions:
REMARK  status: ('A' for Active; 'I' for Inactive)
REMARK    1  A    between atoms: C_4  and  C_5 
REMARK    2  A    between atoms: C_5  and  C_6 
REMARK    3  A    between atoms: C_6  and  C_7 
REMARK       I    between atoms: C_7  and  N_8 
REMARK    4  A    between atoms: N_8  and  C_9 
REMARK    5  A    between atoms: C_11  and  C_12 
ROOT
HETATM    1  C   UNL     1       6.483   3.913  -0.168  1.00  0.00     0.035 A 
HETATM    2  C   UNL     1       5.365   3.226  -0.653  1.00  0.00     0.042 A 
HETATM    3  C   UNL     1       4.163   3.897  -0.943  1.00  0.00    -0.021 A 
HETATM    4  C   UNL     1       4.105   5.282  -0.736  1.00  0.00     0.012 A 
HETATM    5  C   UNL     1       5.215   5.978  -0.257  1.00  0.00     0.003 A 
HETATM    6  C   UNL     1       6.398   5.296   0.024  1.00  0.00     0.029 A 
ENDROOT
BRANCH   1   7
HETATM    7  N   UNL     1       7.708   3.298   0.156  1.00  0.00    -0.327 N 
HETATM    8  C   UNL     1       8.048   1.964   0.046  1.00  0.00     0.222 C 
HETATM    9  O   UNL     1       7.347   1.060  -0.399  1.00  0.00    -0.273 OA
HETATM   10  H   UNL     1       8.448   3.917   0.477  1.00  0.00     0.169 HD
BRANCH   8  11
HETATM   11  C   UNL     1       9.449   1.666   0.549  1.00  0.00     0.110 C 
BRANCH  11  12
HETATM   12  C   UNL     1      10.514   2.007  -0.485  1.00  0.00     0.074 C 
BRANCH  12  13
HETATM   13  C   UNL     1      10.822   3.459  -0.624  1.00  0.00     0.053 A 
HETATM   14  O   UNL     1      10.412   4.300   0.371  1.00  0.00    -0.320 OA
HETATM   15  C   UNL     1      10.812   5.556   0.026  1.00  0.00     0.049 A 
HETATM   16  C   UNL     1      10.473   6.643   0.966  1.00  0.00     0.076 C 
HETATM   17  C   UNL     1      11.480   5.527  -1.178  1.00  0.00     0.035 A 
HETATM   18  C   UNL     1      11.486   4.176  -1.598  1.00  0.00     0.035 A 
ENDBRANCH  12  13
ENDBRANCH  11  12
ENDBRANCH   8  11
ENDBRANCH   1   7
BRANCH   3  19
HETATM   19  C   UNL     1       2.996   3.184  -1.451  1.00  0.00     0.010 A 
HETATM   20  C   UNL     1       1.800   3.663  -2.041  1.00  0.00     0.152 A 
HETATM   21  N   UNL     1       0.953   2.686  -2.378  1.00  0.00    -0.187 NA
HETATM   22  N   UNL     1       1.604   1.572  -2.009  1.00  0.00    -0.289 N 
HETATM   23  H   UNL     1       1.155   0.676  -2.168  1.00  0.00     0.188 HD
HETATM   24  C   UNL     1       2.823   1.815  -1.446  1.00  0.00     0.123 A 
ENDBRANCH   3  19
TORSDOF 5
