REMARK  8 active torsions:
REMARK  status: ('A' for Active; 'I' for Inactive)
REMARK    1  A    between atoms: C_8  and  C_9 
REMARK       I    between atoms: C_9  and  N_10 
REMARK    2  A    between atoms: N_10  and  N_11 
REMARK    3  A    between atoms: N_11  and  C_12 
REMARK    4  A    between atoms: C_12  and  N_13 
REMARK    5  A    between atoms: N_13  and  C_14 
REMARK    6  A    between atoms: C_15  and  O_16 
REMARK    7  A    between atoms: C_19  and  O_20 
REMARK    8  A    between atoms: C_26  and  C_27 
ROOT
HETATM    1  C   UNL     1       5.075  -3.338   0.711  1.00  0.00     0.275 C 
HETATM    2  N   UNL     1       3.942  -4.104   0.517  1.00  0.00    -0.263 N 
HETATM    3  O   UNL     1       5.029  -2.135   0.961  1.00  0.00    -0.266 OA
HETATM    4  H   UNL     1       3.997  -5.013   0.063  1.00  0.00     0.190 HD
ENDROOT
BRANCH   2   5
HETATM    5  N   UNL     1       2.683  -3.508   0.650  1.00  0.00    -0.273 N 
HETATM    6  H   UNL     1       2.709  -2.523   0.919  1.00  0.00     0.189 HD
BRANCH   5   7
HETATM    7  C   UNL     1       1.607  -3.929  -0.087  1.00  0.00     0.191 C 
HETATM    8  S   UNL     1       1.663  -5.152  -1.232  1.00  0.00    -0.039 SA
BRANCH   7   9
HETATM    9  N   UNL     1       0.420  -3.289   0.125  1.00  0.00    -0.330 N 
HETATM   10  H   UNL     1      -0.278  -3.438  -0.601  1.00  0.00     0.168 HD
BRANCH   9  11
HETATM   11  C   UNL     1      -0.060  -2.537   1.223  1.00  0.00     0.068 A 
HETATM   12  C   UNL     1      -1.282  -1.852   1.048  1.00  0.00     0.097 A 
HETATM   13  C   UNL     1      -1.840  -1.124   2.109  1.00  0.00     0.075 A 
HETATM   14  C   UNL     1      -1.196  -1.082   3.347  1.00  0.00     0.070 A 
HETATM   15  C   UNL     1       0.003  -1.772   3.519  1.00  0.00     0.039 A 
HETATM   16  C   UNL     1       0.564  -2.504   2.471  1.00  0.00     0.035 A 
BRANCH  12  17
HETATM   17  O   UNL     1      -1.848  -1.972  -0.202  1.00  0.00    -0.354 OA
HETATM   18  C   UNL     1      -2.995  -1.179  -0.478  1.00  0.00     0.210 C 
ENDBRANCH  12  17
BRANCH  14  19
HETATM   19  O   UNL     1      -1.631  -0.422   4.463  1.00  0.00    -0.356 OA
HETATM   20  C   UNL     1      -2.896   0.223   4.386  1.00  0.00     0.210 C 
ENDBRANCH  14  19
ENDBRANCH   9  11
ENDBRANCH   7   9
ENDBRANCH   5   7
ENDBRANCH   2   5
BRANCH   1  21
HETATM   21  C   UNL     1       6.316  -4.069   0.588  1.00  0.00     0.098 A 
HETATM   22  C   UNL     1       6.550  -5.419   0.776  1.00  0.00     0.138 A 
HETATM   23  N   UNL     1       5.767  -6.452   1.178  1.00  0.00    -0.370 N 
HETATM   24  N   UNL     1       7.888  -5.601   0.535  1.00  0.00    -0.240 N 
HETATM   25  C   UNL     1       6.306  -7.800   1.363  1.00  0.00     0.081 C 
HETATM   26  H   UNL     1       4.833  -6.293   1.557  1.00  0.00     0.161 HD
HETATM   27  C   UNL     1       5.528  -8.508   2.471  1.00  0.00     0.032 C 
HETATM   28  C   UNL     1       7.802  -7.735   1.708  1.00  0.00     0.061 C 
HETATM   29  C   UNL     1       8.577  -6.866   0.702  1.00  0.00     0.221 C 
HETATM   30  N   UNL     1       8.560  -4.464   0.293  1.00  0.00    -0.181 NA
HETATM   31  C   UNL     1       7.599  -3.534   0.314  1.00  0.00     0.160 A 
BRANCH  29  32
HETATM   32  C   UNL     1       8.754  -7.538  -0.640  1.00  0.00     0.409 C 
HETATM   33  F   UNL     1       7.588  -7.765  -1.283  1.00  0.00    -0.169 F 
HETATM   34  F   UNL     1       9.552  -6.837  -1.473  1.00  0.00    -0.169 F 
HETATM   35  F   UNL     1       9.345  -8.750  -0.471  1.00  0.00    -0.169 F 
ENDBRANCH  29  32
ENDBRANCH   1  21
TORSDOF 8
