REMARK  7 active torsions:
REMARK  status: ('A' for Active; 'I' for Inactive)
REMARK    1  A    between atoms: O_2  and  C_3 
REMARK    2  A    between atoms: C_4  and  O_5 
REMARK    3  A    between atoms: C_13  and  C_14 
REMARK       I    between atoms: C_14  and  N_15 
REMARK    4  A    between atoms: N_15  and  C_16 
REMARK    5  A    between atoms: C_16  and  C_17 
REMARK    6  A    between atoms: C_17  and  C_18 
REMARK    7  A    between atoms: C_18  and  C_19 
ROOT
HETATM    1  C   UNL     1       5.984  -2.754  -5.963  1.00  0.00     0.268 C 
HETATM    2  N   UNL     1       6.244  -1.732  -6.844  1.00  0.00    -0.356 N 
HETATM    3  O   UNL     1       6.250  -3.926  -6.211  1.00  0.00    -0.266 OA
HETATM    4  H   UNL     1       5.874  -0.809  -6.659  1.00  0.00     0.162 HD
ENDROOT
BRANCH   1   5
HETATM    5  C   UNL     1       5.326  -2.360  -4.738  1.00  0.00     0.102 A 
HETATM    6  N   UNL     1       4.861  -3.302  -3.845  1.00  0.00    -0.351 N 
HETATM    7  C   UNL     1       4.216  -2.706  -2.790  1.00  0.00     0.045 A 
HETATM    8  H   UNL     1       4.965  -4.300  -3.982  1.00  0.00     0.166 HD
HETATM    9  C   UNL     1       3.570  -3.270  -1.686  1.00  0.00     0.070 A 
HETATM   10  C   UNL     1       4.304  -1.333  -2.982  1.00  0.00    -0.004 A 
HETATM   11  C   UNL     1       2.986  -2.411  -0.740  1.00  0.00     0.103 A 
HETATM   12  C   UNL     1       3.026  -1.020  -0.927  1.00  0.00     0.102 A 
HETATM   13  C   UNL     1       3.715  -0.478  -2.029  1.00  0.00     0.053 A 
HETATM   14  C   UNL     1       5.016  -1.124  -4.197  1.00  0.00     0.049 A 
BRANCH  11  15
HETATM   15  O   UNL     1       2.369  -3.100   0.276  1.00  0.00    -0.353 OA
HETATM   16  C   UNL     1       2.202  -2.428   1.517  1.00  0.00     0.210 C 
ENDBRANCH  11  15
BRANCH  12  17
HETATM   17  O   UNL     1       2.409  -0.207  -0.008  1.00  0.00    -0.353 OA
HETATM   18  C   UNL     1       1.789   0.958  -0.544  1.00  0.00     0.210 C 
ENDBRANCH  12  17
ENDBRANCH   1   5
BRANCH   2  19
HETATM   19  C   UNL     1       6.747  -1.974  -8.177  1.00  0.00     0.123 C 
BRANCH  19  20
HETATM   20  C   UNL     1       5.669  -2.488  -9.136  1.00  0.00     0.027 C 
BRANCH  20  21
HETATM   21  C   UNL     1       4.412  -1.617  -9.207  1.00  0.00     0.080 C 
BRANCH  21  22
HETATM   22  C   UNL     1       4.706  -0.231  -9.666  1.00  0.00     0.105 A 
HETATM   23  N   UNL     1       5.068   0.785  -8.909  1.00  0.00    -0.233 NA
HETATM   24  C   UNL     1       5.237   1.844  -9.771  1.00  0.00     0.085 A 
HETATM   25  C   UNL     1       4.975   1.463 -11.082  1.00  0.00     0.062 A 
HETATM   26  C   UNL     1       5.616   3.167  -9.506  1.00  0.00     0.034 A 
HETATM   27  N   UNL     1       4.635   0.139 -10.987  1.00  0.00    -0.343 N 
HETATM   28  C   UNL     1       5.072   2.333 -12.169  1.00  0.00     0.032 A 
HETATM   29  H   UNL     1       4.378  -0.462 -11.757  1.00  0.00     0.167 HD
HETATM   30  C   UNL     1       5.453   3.650 -11.886  1.00  0.00     0.002 A 
HETATM   31  C   UNL     1       5.720   4.064 -10.578  1.00  0.00     0.002 A 
ENDBRANCH  21  22
ENDBRANCH  20  21
ENDBRANCH  19  20
ENDBRANCH   2  19
TORSDOF 7
