REMARK  6 active torsions:
REMARK  status: ('A' for Active; 'I' for Inactive)
REMARK    1  A    between atoms: C_2  and  C_3 
REMARK    2  A    between atoms: C_4  and  O_5 
REMARK    3  A    between atoms: C_6  and  C_7 
REMARK       I    between atoms: C_7  and  N_8 
REMARK    4  A    between atoms: N_8  and  C_9 
REMARK    5  A    between atoms: C_9  and  C_10 
REMARK    6  A    between atoms: C_10  and  C_11 
ROOT
HETATM    1  C   UNL     1       3.057  -4.908   1.212  1.00  0.00     0.254 C 
HETATM    2  N   UNL     1       3.354  -5.954   2.050  1.00  0.00    -0.356 N 
HETATM    3  O   UNL     1       3.033  -3.744   1.601  1.00  0.00    -0.268 OA
HETATM    4  H   UNL     1       3.385  -6.885   1.641  1.00  0.00     0.162 HD
ENDROOT
BRANCH   1   5
HETATM    5  C   UNL     1       2.766  -5.243  -0.223  1.00  0.00     0.065 A 
HETATM    6  C   UNL     1       2.807  -6.542  -0.770  1.00  0.00     0.087 A 
HETATM    7  C   UNL     1       2.500  -6.764  -2.128  1.00  0.00    -0.024 A 
HETATM    8  C   UNL     1       2.189  -5.659  -2.937  1.00  0.00     0.010 A 
HETATM    9  C   UNL     1       2.162  -4.369  -2.411  1.00  0.00     0.002 A 
HETATM   10  C   UNL     1       2.443  -4.165  -1.062  1.00  0.00     0.020 A 
BRANCH   6  11
HETATM   11  O   UNL     1       3.148  -7.599   0.039  1.00  0.00    -0.359 OA
HETATM   12  H   UNL     1       3.418  -8.354  -0.510  1.00  0.00     0.218 HD
ENDBRANCH   6  11
BRANCH   7  13
HETATM   13  C   UNL     1       2.487  -8.135  -2.764  1.00  0.00     0.037 C 
HETATM   14  C   UNL     1       3.865  -8.550  -3.259  1.00  0.00     0.010 C 
ENDBRANCH   7  13
ENDBRANCH   1   5
BRANCH   2  15
HETATM   15  C   UNL     1       3.696  -5.763   3.445  1.00  0.00     0.136 C 
BRANCH  15  16
HETATM   16  C   UNL     1       4.120  -7.076   4.170  1.00  0.00    -0.004 C 
HETATM   17  C   UNL     1       4.561  -6.705   5.602  1.00  0.00     0.021 C 
HETATM   18  C   UNL     1       2.862  -7.973   4.276  1.00  0.00     0.021 C 
BRANCH  16  19
HETATM   19  C   UNL     1       5.303  -7.794   3.489  1.00  0.00    -0.046 A 
HETATM   20  C   UNL     1       6.312  -7.077   2.827  1.00  0.00     0.027 A 
HETATM   21  C   UNL     1       7.364  -7.761   2.231  1.00  0.00     0.116 A 
HETATM   22  N   UNL     1       7.497  -9.101   2.253  1.00  0.00    -0.273 NA
HETATM   23  C   UNL     1       6.541  -9.783   2.913  1.00  0.00     0.116 A 
HETATM   24  C   UNL     1       5.451  -9.188   3.536  1.00  0.00     0.027 A 
ENDBRANCH  16  19
ENDBRANCH  15  16
ENDBRANCH   2  15
TORSDOF 6
