REMARK  5 active torsions:
REMARK  status: ('A' for Active; 'I' for Inactive)
REMARK    1  A    between atoms: C_3  and  O_4 
REMARK    2  A    between atoms: O_4  and  C_5 
REMARK    3  A    between atoms: C_5  and  C_6 
REMARK       I    between atoms: C_6  and  N_7 
REMARK    4  A    between atoms: N_7  and  N_8 
REMARK    5  A    between atoms: C_9  and  C_10 
ROOT
HETATM    1  C   UNL     1       0.208  -3.629   0.432  1.00  0.00     0.261 C 
HETATM    2  N   UNL     1       1.278  -4.511   0.543  1.00  0.00    -0.246 N 
HETATM    3  O   UNL     1      -0.983  -3.940   0.414  1.00  0.00    -0.269 OA
HETATM    4  H   UNL     1       2.172  -4.105   0.818  1.00  0.00     0.192 HD
ENDROOT
BRANCH   2   5
HETATM    5  N   UNL     1       1.172  -5.867   0.767  1.00  0.00    -0.184 NA
HETATM    6  C   UNL     1       0.158  -6.486   0.248  1.00  0.00     0.152 C 
BRANCH   6   7
HETATM    7  C   UNL     1      -0.033  -7.903   0.491  1.00  0.00     0.011 A 
HETATM    8  C   UNL     1      -1.140  -8.700   0.052  1.00  0.00     0.004 A 
HETATM    9  C   UNL     1      -0.918 -10.005   0.495  1.00  0.00     0.043 A 
HETATM   10  C   UNL     1      -2.318  -8.430  -0.678  1.00  0.00     0.014 A 
HETATM   11  C   UNL     1      -1.810 -11.054   0.237  1.00  0.00     0.030 A 
HETATM   12  N   UNL     1       0.274 -10.001   1.181  1.00  0.00    -0.364 N 
HETATM   13  C   UNL     1      -2.967 -10.759  -0.491  1.00  0.00     0.002 A 
HETATM   14  C   UNL     1      -3.220  -9.467  -0.942  1.00  0.00     0.001 A 
HETATM   15  H   UNL     1       0.685 -10.814   1.620  1.00  0.00     0.165 HD
HETATM   16  C   UNL     1       0.813  -8.743   1.189  1.00  0.00     0.102 A 
ENDBRANCH   6   7
ENDBRANCH   2   5
BRANCH   1  17
HETATM   17  C   UNL     1       0.638  -2.177   0.257  1.00  0.00     0.280 C 
BRANCH  17  18
HETATM   18  O   UNL     1       1.970  -1.945   0.724  1.00  0.00    -0.341 OA
BRANCH  18  19
HETATM   19  C   UNL     1       2.150  -0.597   0.929  1.00  0.00     0.081 A 
HETATM   20  C   UNL     1       2.521   0.236  -0.140  1.00  0.00    -0.028 A 
HETATM   21  C   UNL     1       2.758  -0.294  -1.524  1.00  0.00     0.051 C 
HETATM   22  C   UNL     1       2.632   1.614   0.092  1.00  0.00     0.009 A 
HETATM   23  C   UNL     1       2.437   2.138   1.370  1.00  0.00     0.001 A 
HETATM   24  C   UNL     1       2.134   1.291   2.435  1.00  0.00     0.009 A 
HETATM   25  C   UNL     1       1.986  -0.087   2.229  1.00  0.00    -0.028 A 
HETATM   26  C   UNL     1       1.712  -0.988   3.400  1.00  0.00     0.051 C 
ENDBRANCH  18  19
ENDBRANCH  17  18
ENDBRANCH   1  17
TORSDOF 5
