REMARK  8 active torsions:
REMARK  status: ('A' for Active; 'I' for Inactive)
REMARK    1  A    between atoms: C_2  and  C_3 
REMARK    2  A    between atoms: C_3  and  C_4 
REMARK    3  A    between atoms: C_8  and  C_9 
REMARK       I    between atoms: C_9  and  N_10 
REMARK    4  A    between atoms: N_10  and  C_11 
REMARK    5  A    between atoms: N_10  and  C_17 
REMARK    6  A    between atoms: C_17  and  C_18 
REMARK    7  A    between atoms: C_18  and  O_19 
REMARK    8  A    between atoms: C_18  and  C_20 
ROOT
HETATM    1  C   UNL     1       7.681  -3.270  -0.024  1.00  0.00     0.272 C 
HETATM    2  N   UNL     1       7.699  -4.675   0.091  1.00  0.00    -0.339 N 
HETATM    3  O   UNL     1       6.606  -2.676  -0.126  1.00  0.00    -0.266 OA
ENDROOT
BRANCH   2   4
HETATM    4  C   UNL     1       8.939  -5.498   0.078  1.00  0.00     0.087 C 
HETATM    5  C   UNL     1       9.397  -5.880   1.495  1.00  0.00     0.025 C 
HETATM    6  C   UNL     1       8.913  -7.242   1.977  1.00  0.00     0.002 C 
HETATM    7  C   UNL     1       9.240  -8.333   0.970  1.00  0.00     0.000 C 
HETATM    8  C   UNL     1       8.572  -8.049  -0.365  1.00  0.00     0.002 C 
HETATM    9  C   UNL     1       8.947  -6.675  -0.924  1.00  0.00     0.025 C 
ENDBRANCH   2   4
BRANCH   2  10
HETATM   10  C   UNL     1       6.373  -5.328   0.094  1.00  0.00     0.163 C 
BRANCH  10  11
HETATM   11  C   UNL     1       5.593  -5.226   1.432  1.00  0.00     0.169 C 
BRANCH  11  12
HETATM   12  O   UNL     1       5.203  -3.897   1.776  1.00  0.00    -0.389 OA
HETATM   13  H   UNL     1       5.512  -3.295   1.070  1.00  0.00     0.210 HD
ENDBRANCH  11  12
BRANCH  11  14
HETATM   14  C   UNL     1       4.326  -6.060   1.390  1.00  0.00    -0.028 A 
HETATM   15  C   UNL     1       4.129  -7.108   2.300  1.00  0.00     0.010 A 
HETATM   16  C   UNL     1       2.964  -7.879   2.253  1.00  0.00     0.001 A 
HETATM   17  C   UNL     1       1.984  -7.613   1.298  1.00  0.00     0.000 A 
HETATM   18  C   UNL     1       2.162  -6.569   0.394  1.00  0.00     0.001 A 
HETATM   19  C   UNL     1       3.321  -5.793   0.444  1.00  0.00     0.010 A 
ENDBRANCH  11  14
ENDBRANCH  10  11
ENDBRANCH   2  10
BRANCH   1  20
HETATM   20  C   UNL     1       8.916  -2.535  -0.044  1.00  0.00     0.119 A 
HETATM   21  N   UNL     1       9.878  -2.540   0.926  1.00  0.00    -0.273 N 
HETATM   22  N   UNL     1      10.932  -1.750   0.656  1.00  0.00    -0.179 NA
HETATM   23  H   UNL     1       9.881  -3.056   1.798  1.00  0.00     0.189 HD
HETATM   24  C   UNL     1      10.587  -1.131  -0.480  1.00  0.00     0.057 A 
HETATM   25  C   UNL     1       9.331  -1.576  -0.948  1.00  0.00     0.065 A 
BRANCH  24  26
HETATM   26  C   UNL     1      11.473  -0.100  -1.094  1.00  0.00     0.061 C 
BRANCH  26  27
HETATM   27  C   UNL     1      11.148   1.309  -0.594  1.00  0.00     0.002 C 
HETATM   28  C   UNL     1      11.999   2.359  -1.290  1.00  0.00     0.005 C 
ENDBRANCH  26  27
ENDBRANCH  24  26
ENDBRANCH   1  20
TORSDOF 8
