REMARK  7 active torsions:
REMARK  status: ('A' for Active; 'I' for Inactive)
REMARK    1  A    between atoms: C_2  and  S_3 
REMARK    2  A    between atoms: C_2  and  C_20 
REMARK    3  A    between atoms: S_3  and  C_4 
REMARK    4  A    between atoms: C_4  and  C_5 
REMARK       I    between atoms: C_5  and  N_6 
REMARK    5  A    between atoms: N_6  and  C_7 
REMARK    6  A    between atoms: C_10  and  C_11 
REMARK       I    between atoms: C_11  and  N_12 
REMARK    7  A    between atoms: N_12  and  C_13 
ROOT
HETATM    1  C   UNL     1       2.981  -3.358  -2.081  1.00  0.00     0.231 C 
HETATM    2  N   UNL     1       3.940  -3.012  -3.021  1.00  0.00    -0.327 N 
HETATM    3  O   UNL     1       2.327  -4.398  -2.063  1.00  0.00    -0.272 OA
HETATM    4  H   UNL     1       4.392  -2.113  -2.903  1.00  0.00     0.169 HD
ENDROOT
BRANCH   1   5
HETATM    5  C   UNL     1       2.770  -2.290  -1.015  1.00  0.00     0.177 C 
BRANCH   5   6
HETATM    6  S   UNL     1       3.725  -2.720   0.477  1.00  0.00    -0.147 SA
BRANCH   6   7
HETATM    7  C   UNL     1       2.827  -1.668   1.678  1.00  0.00     0.113 C 
HETATM    8  C   UNL     1       3.121  -2.147   3.098  1.00  0.00     0.029 C 
BRANCH   7   9
HETATM    9  C   UNL     1       3.187  -0.228   1.485  1.00  0.00     0.118 A 
HETATM   10  N   UNL     1       2.388   0.725   1.044  1.00  0.00    -0.232 NA
HETATM   11  C   UNL     1       3.136   1.877   1.063  1.00  0.00     0.085 A 
HETATM   12  C   UNL     1       4.431   1.621   1.497  1.00  0.00     0.062 A 
HETATM   13  C   UNL     1       2.775   3.189   0.723  1.00  0.00     0.034 A 
HETATM   14  N   UNL     1       4.442   0.273   1.745  1.00  0.00    -0.342 N 
HETATM   15  C   UNL     1       5.411   2.608   1.615  1.00  0.00     0.032 A 
HETATM   16  H   UNL     1       5.234  -0.265   2.068  1.00  0.00     0.167 HD
HETATM   17  C   UNL     1       5.032   3.912   1.274  1.00  0.00     0.002 A 
HETATM   18  C   UNL     1       3.737   4.201   0.836  1.00  0.00     0.002 A 
ENDBRANCH   7   9
ENDBRANCH   6   7
ENDBRANCH   5   6
ENDBRANCH   1   5
BRANCH   2  19
HETATM   19  C   UNL     1       4.337  -3.757  -4.152  1.00  0.00     0.034 A 
HETATM   20  C   UNL     1       3.878  -5.044  -4.440  1.00  0.00     0.030 A 
HETATM   21  C   UNL     1       4.293  -5.711  -5.601  1.00  0.00     0.019 A 
HETATM   22  C   UNL     1       5.164  -5.089  -6.500  1.00  0.00     0.032 A 
HETATM   23  C   UNL     1       5.652  -3.812  -6.198  1.00  0.00     0.019 A 
HETATM   24  C   UNL     1       5.243  -3.154  -5.032  1.00  0.00     0.030 A 
BRANCH  22  25
HETATM   25  C   UNL     1       5.608  -5.735  -7.771  1.00  0.00     0.251 C 
HETATM   26  N   UNL     1       4.780  -6.714  -8.284  1.00  0.00    -0.353 N 
HETATM   27  H   UNL     1       3.859  -6.818  -7.882  1.00  0.00     0.163 HD
HETATM   28  O   UNL     1       6.638  -5.354  -8.315  1.00  0.00    -0.268 OA
BRANCH  26  29
HETATM   29  C   UNL     1       4.993  -7.370  -9.570  1.00  0.00     0.076 C 
HETATM   30  C   UNL     1       4.802  -6.405 -10.737  1.00  0.00     0.032 C 
HETATM   31  C   UNL     1       6.331  -8.100  -9.654  1.00  0.00     0.032 C 
ENDBRANCH  26  29
ENDBRANCH  22  25
ENDBRANCH   2  19
TORSDOF 7
