REMARK  7 active torsions:
REMARK  status: ('A' for Active; 'I' for Inactive)
REMARK    1  A    between atoms: O_2  and  C_3 
REMARK    2  A    between atoms: C_4  and  O_5 
REMARK    3  A    between atoms: C_7  and  C_8 
REMARK       I    between atoms: C_8  and  N_9 
REMARK    4  A    between atoms: N_9  and  C_10 
REMARK    5  A    between atoms: C_10  and  C_11 
REMARK    6  A    between atoms: C_11  and  N_12 
REMARK    7  A    between atoms: C_11  and  C_18 
ROOT
HETATM    1  C   UNL     1       4.704  -7.116  -2.947  1.00  0.00     0.239 C 
ENDROOT
BRANCH   1   2
HETATM    2  C   UNL     1       4.700  -7.815  -1.548  1.00  0.00     0.161 C 
BRANCH   2   3
HETATM    3  N   UNL     1       4.912  -9.257  -1.582  1.00  0.00    -0.354 N 
HETATM    4  C   UNL     1       3.888 -10.172  -1.586  1.00  0.00     0.254 C 
HETATM    5  O   UNL     1       2.722  -9.806  -1.697  1.00  0.00    -0.268 OA
HETATM    6  H   UNL     1       5.862  -9.615  -1.501  1.00  0.00     0.162 HD
BRANCH   4   7
HETATM    7  C   UNL     1       4.228 -11.625  -1.496  1.00  0.00     0.068 A 
HETATM    8  C   UNL     1       5.507 -12.163  -1.751  1.00  0.00     0.117 A 
HETATM    9  C   UNL     1       5.687 -13.566  -1.745  1.00  0.00     0.102 A 
HETATM   10  C   UNL     1       4.616 -14.397  -1.392  1.00  0.00     0.040 A 
HETATM   11  C   UNL     1       3.366 -13.859  -1.092  1.00  0.00     0.004 A 
HETATM   12  C   UNL     1       3.169 -12.483  -1.160  1.00  0.00     0.020 A 
BRANCH   8  13
HETATM   13  O   UNL     1       6.511 -11.279  -2.086  1.00  0.00    -0.352 OA
HETATM   14  C   UNL     1       7.774 -11.536  -1.464  1.00  0.00     0.210 C 
ENDBRANCH   8  13
BRANCH   9  15
HETATM   15  O   UNL     1       6.916 -14.041  -2.122  1.00  0.00    -0.353 OA
HETATM   16  C   UNL     1       7.070 -15.447  -2.283  1.00  0.00     0.210 C 
ENDBRANCH   9  15
ENDBRANCH   4   7
ENDBRANCH   2   3
ENDBRANCH   1   2
BRANCH   1  17
HETATM   17  N   UNL     1       3.679  -7.762  -3.898  1.00  0.00    -0.061 N 
HETATM   18  H   UNL     1       3.844  -8.775  -3.834  1.00  0.00     0.280 HD
HETATM   19  C   UNL     1       3.765  -7.310  -5.340  1.00  0.00     0.236 C 
HETATM   20  C   UNL     1       2.760  -6.184  -5.419  1.00  0.00     0.029 C 
HETATM   21  C   UNL     1       1.596  -6.726  -4.620  1.00  0.00     0.029 C 
HETATM   22  C   UNL     1       2.226  -7.525  -3.488  1.00  0.00     0.236 C 
ENDBRANCH   1  17
BRANCH   1  23
HETATM   23  C   UNL     1       6.135  -7.083  -3.491  1.00  0.00    -0.015 A 
HETATM   24  C   UNL     1       6.928  -5.889  -3.457  1.00  0.00    -0.018 A 
HETATM   25  C   UNL     1       8.241  -5.936  -3.997  1.00  0.00    -0.025 A 
HETATM   26  C   UNL     1       6.505  -4.645  -2.919  1.00  0.00     0.013 A 
HETATM   27  C   UNL     1       9.053  -4.790  -4.002  1.00  0.00     0.012 A 
HETATM   28  C   UNL     1       8.747  -7.129  -4.527  1.00  0.00     0.012 A 
HETATM   29  C   UNL     1       8.599  -3.584  -3.476  1.00  0.00     0.001 A 
HETATM   30  C   UNL     1       7.327  -3.513  -2.931  1.00  0.00     0.001 A 
HETATM   31  C   UNL     1       7.983  -8.289  -4.536  1.00  0.00     0.002 A 
HETATM   32  C   UNL     1       6.692  -8.267  -4.024  1.00  0.00     0.010 A 
ENDBRANCH   1  23
TORSDOF 7
