REMARK  4 active torsions:
REMARK  status: ('A' for Active; 'I' for Inactive)
REMARK    1  A    between atoms: N_4  and  C_5 
REMARK    2  A    between atoms: C_15  and  N_16 
REMARK       I    between atoms: N_16  and  C_17 
REMARK    3  A    between atoms: C_17  and  C_18 
REMARK       I    between atoms: C_18  and  N_19 
REMARK    4  A    between atoms: N_19  and  C_20 
ROOT
HETATM    1  N   UNL     1       2.956  -1.745  -0.054  1.00  0.00    -0.303 N 
HETATM    2  C   UNL     1       2.924  -3.119  -0.208  1.00  0.00     0.315 C 
HETATM    3  O   UNL     1       1.979  -3.813  -0.564  1.00  0.00    -0.262 OA
HETATM    4  H   UNL     1       3.875  -1.313  -0.097  1.00  0.00     0.171 HD
ENDROOT
BRANCH   1   5
HETATM    5  C   UNL     1       1.811  -0.984  -0.199  1.00  0.00     0.152 C 
HETATM    6  N   UNL     1       0.530  -1.323   0.233  1.00  0.00    -0.045 N 
HETATM    7  N   UNL     1      -0.408  -0.460  -0.286  1.00  0.00    -0.156 NA
HETATM    8  C   UNL     1       0.316   0.534  -0.812  1.00  0.00     0.055 C 
HETATM    9  C   UNL     1      -0.353   1.714  -1.412  1.00  0.00     0.072 C 
HETATM   10  C   UNL     1       1.703   0.278  -0.738  1.00  0.00     0.079 C 
BRANCH   6  11
HETATM   11  C   UNL     1       0.118  -2.244   1.225  1.00  0.00     0.732 A 
HETATM   12  N   UNL     1       0.929  -2.902   2.000  1.00  0.00    -0.067 NA
HETATM   13  C   UNL     1       0.311  -3.704   2.915  1.00  0.00     0.065 A 
HETATM   14  C   UNL     1      -1.006  -3.829   3.086  1.00  0.00     0.036 A 
HETATM   15  C   UNL     1       1.065  -4.547   3.887  1.00  0.00     0.061 C 
HETATM   16  C   UNL     1      -1.374  -4.753   4.181  1.00  0.00     0.047 C 
HETATM   17  C   UNL     1      -1.909  -3.061   2.232  1.00  0.00     0.268 A 
HETATM   18  C   UNL     1      -0.036  -5.448   4.465  1.00  0.00     0.011 C 
HETATM   19  O   UNL     1      -3.125  -3.099   2.356  1.00  0.00    -0.267 OA
HETATM   20  N   UNL     1      -1.258  -2.298   1.305  1.00  0.00    -0.152 N 
HETATM   21  H   UNL     1      -1.801  -1.702   0.688  1.00  0.00     0.188 HD
ENDBRANCH   6  11
ENDBRANCH   1   5
BRANCH   2  22
HETATM   22  C   UNL     1       4.296  -3.782   0.034  1.00  0.00     0.310 C 
HETATM   23  N   UNL     1       4.300  -5.129  -0.253  1.00  0.00    -0.348 N 
HETATM   24  H   UNL     1       3.377  -5.491  -0.489  1.00  0.00     0.163 HD
HETATM   25  O   UNL     1       5.228  -3.109   0.445  1.00  0.00    -0.262 OA
BRANCH  23  26
HETATM   26  C   UNL     1       5.326  -6.072   0.193  1.00  0.00     0.084 C 
HETATM   27  C   UNL     1       4.821  -7.505  -0.116  1.00  0.00     0.025 C 
HETATM   28  C   UNL     1       5.586  -8.611   0.623  1.00  0.00     0.002 C 
HETATM   29  C   UNL     1       6.427  -9.485  -0.316  1.00  0.00     0.000 C 
HETATM   30  C   UNL     1       7.522 -10.276   0.418  1.00  0.00     0.000 C 
HETATM   31  C   UNL     1       8.925  -9.689   0.200  1.00  0.00     0.000 C 
HETATM   32  C   UNL     1       9.112  -8.312   0.840  1.00  0.00     0.000 C 
HETATM   33  C   UNL     1      10.107  -7.446   0.070  1.00  0.00     0.000 C 
HETATM   34  C   UNL     1      10.175  -6.002   0.582  1.00  0.00     0.000 C 
HETATM   35  C   UNL     1       9.128  -5.045  -0.013  1.00  0.00     0.000 C 
HETATM   36  C   UNL     1       7.709  -5.176   0.559  1.00  0.00     0.002 C 
HETATM   37  C   UNL     1       6.709  -5.784  -0.443  1.00  0.00     0.025 C 
ENDBRANCH  23  26
ENDBRANCH   2  22
TORSDOF 4
