REMARK  4 active torsions:
REMARK  status: ('A' for Active; 'I' for Inactive)
REMARK    1  A    between atoms: O_2  and  C_3 
REMARK    2  A    between atoms: C_5  and  N_6 
REMARK    3  A    between atoms: N_6  and  C_7 
REMARK    4  A    between atoms: C_7  and  C_8 
ROOT
HETATM    1  N   UNL     1       2.876   4.423   1.968  1.00  0.00    -0.372 N 
HETATM    2  H   UNL     1       3.442   5.035   2.542  1.00  0.00     0.161 HD
ENDROOT
BRANCH   1   3
HETATM    3  C   UNL     1       3.236   3.106   1.811  1.00  0.00     0.103 A 
HETATM    4  C   UNL     1       2.604   2.191   0.957  1.00  0.00     0.085 A 
HETATM    5  C   UNL     1       3.047   0.871   0.889  1.00  0.00     0.073 A 
HETATM    6  C   UNL     1       4.099   0.465   1.699  1.00  0.00     0.053 A 
HETATM    7  C   UNL     1       4.687   1.386   2.545  1.00  0.00     0.092 A 
HETATM    8  N   UNL     1       4.244   2.649   2.574  1.00  0.00    -0.352 N 
HETATM    9  H   UNL     1       4.684   3.305   3.211  1.00  0.00     0.166 HD
BRANCH   5  10
HETATM   10  O   UNL     1       2.533  -0.111   0.095  1.00  0.00    -0.356 OA
HETATM   11  C   UNL     1       1.554   0.261  -0.871  1.00  0.00     0.210 C 
ENDBRANCH   5  10
ENDBRANCH   1   3
BRANCH   1  12
HETATM   12  C   UNL     1       2.061   5.152   0.998  1.00  0.00     0.160 C 
BRANCH  12  13
HETATM   13  C   UNL     1       2.854   5.462  -0.249  1.00  0.00    -0.036 A 
HETATM   14  C   UNL     1       3.988   6.308  -0.188  1.00  0.00     0.031 A 
HETATM   15  C   UNL     1       4.734   6.593  -1.337  1.00  0.00     0.047 A 
HETATM   16 BR   UNL     1       6.249   7.711  -1.218  1.00  0.00    -0.048 Br
HETATM   17  C   UNL     1       4.335   6.039  -2.535  1.00  0.00     0.122 A 
HETATM   18  C   UNL     1       3.229   5.225  -2.600  1.00  0.00     0.107 A 
HETATM   19  O   UNL     1       4.924   6.194  -3.752  1.00  0.00    -0.322 OA
HETATM   20  O   UNL     1       2.986   4.772  -3.859  1.00  0.00    -0.323 OA
HETATM   21  C   UNL     1       2.471   4.920  -1.487  1.00  0.00     0.048 A 
HETATM   22  C   UNL     1       4.043   5.424  -4.595  1.00  0.00     0.352 A 
ENDBRANCH  12  13
ENDBRANCH   1  12
TORSDOF 4
