REMARK  4 active torsions:
REMARK  status: ('A' for Active; 'I' for Inactive)
REMARK    1  A    between atoms: N_2  and  C_3 
REMARK    2  A    between atoms: C_5  and  C_6 
REMARK    3  A    between atoms: C_6  and  C_7 
REMARK    4  A    between atoms: C_14  and  O_15 
ROOT
HETATM    1  C   UNL     1       3.385  -0.390   0.574  1.00  0.00     0.113 A 
HETATM    2  N   UNL     1       3.741  -1.645   0.912  1.00  0.00    -0.223 NA
HETATM    3  C   UNL     1       3.059  -2.685   0.364  1.00  0.00     0.106 A 
HETATM    4  N   UNL     1       2.032  -2.528  -0.488  1.00  0.00    -0.347 N 
HETATM    5  H   UNL     1       1.525  -3.347  -0.829  1.00  0.00     0.167 HD
HETATM    6  C   UNL     1       1.688  -1.291  -0.833  1.00  0.00     0.020 A 
HETATM    7  C   UNL     1       2.356  -0.193  -0.319  1.00  0.00     0.005 A 
HETATM    8  C   UNL     1       1.765   1.074  -0.849  1.00  0.00     0.044 C 
HETATM    9  C   UNL     1       0.963   0.551  -2.056  1.00  0.00     0.011 C 
HETATM   10  C   UNL     1       0.565  -0.899  -1.738  1.00  0.00     0.058 C 
ENDROOT
BRANCH   3  11
HETATM   11  C   UNL     1       3.440  -4.079   0.768  1.00  0.00     0.085 C 
BRANCH  11  12
HETATM   12  C   UNL     1       2.616  -4.624   1.959  1.00  0.00     0.021 C 
HETATM   13  C   UNL     1       1.105  -4.451   1.793  1.00  0.00     0.181 C 
HETATM   14  O   UNL     1       0.694  -4.958   0.514  1.00  0.00    -0.350 OA
HETATM   15  C   UNL     1       1.010  -6.294   0.373  1.00  0.00     0.077 A 
HETATM   16  C   UNL     1       2.053  -6.901   1.092  1.00  0.00    -0.024 A 
HETATM   17  C   UNL     1       0.274  -7.015  -0.571  1.00  0.00     0.074 A 
HETATM   18  C   UNL     1       2.861  -6.131   2.107  1.00  0.00     0.048 C 
HETATM   19  C   UNL     1       2.326  -8.254   0.875  1.00  0.00     0.012 A 
HETATM   20  C   UNL     1       1.583  -8.975  -0.060  1.00  0.00     0.037 A 
HETATM   21  C   UNL     1       0.555  -8.365  -0.783  1.00  0.00     0.070 A 
BRANCH  21  22
HETATM   22  O   UNL     1      -0.083  -9.192  -1.664  1.00  0.00    -0.356 OA
HETATM   23  C   UNL     1      -1.249  -8.691  -2.303  1.00  0.00     0.210 C 
ENDBRANCH  21  22
ENDBRANCH  11  12
ENDBRANCH   3  11
BRANCH   1  24
HETATM   24  N   UNL     1       4.102   0.700   1.054  1.00  0.00    -0.281 NA
HETATM   25  C   UNL     1       5.170   0.406   1.998  1.00  0.00     0.114 C 
HETATM   26  H   UNL     1       3.493   1.442   1.392  1.00  0.00     0.128 HD
ENDBRANCH   1  24
TORSDOF 4
