REMARK  6 active torsions:
REMARK  status: ('A' for Active; 'I' for Inactive)
REMARK    1  A    between atoms: C_11  and  N_12 
REMARK    2  A    between atoms: N_12  and  C_13 
REMARK    3  A    between atoms: C_13  and  C_14 
REMARK    4  A    between atoms: C_14  and  N_15 
REMARK       I    between atoms: N_15  and  C_16 
REMARK    5  A    between atoms: C_16  and  C_17 
REMARK    6  A    between atoms: C_20  and  O_21 
ROOT
HETATM    1  N   UNL     1       8.828  -1.441   0.412  1.00  0.00    -0.277 NA
HETATM    2  H   UNL     1       9.167  -2.122   1.090  1.00  0.00     0.129 HD
ENDROOT
BRANCH   1   3
HETATM    3  C   UNL     1       7.440  -1.475   0.278  1.00  0.00     0.086 C 
HETATM    4  N   UNL     1       6.823  -0.506  -0.417  1.00  0.00    -0.346 N 
HETATM    5  C   UNL     1       5.493  -0.380  -0.538  1.00  0.00     0.044 A 
HETATM    6  H   UNL     1       7.423   0.151  -0.929  1.00  0.00     0.167 HD
HETATM    7  C   UNL     1       4.933   0.720  -1.196  1.00  0.00     0.037 A 
HETATM    8  C   UNL     1       4.664  -1.364   0.026  1.00  0.00    -0.008 A 
HETATM    9  C   UNL     1       3.539   0.876  -1.274  1.00  0.00    -0.054 A 
HETATM   10  C   UNL     1       2.701  -0.088  -0.678  1.00  0.00    -0.055 A 
HETATM   11  C   UNL     1       2.971   2.101  -1.944  1.00  0.00     0.049 C 
HETATM   12  C   UNL     1       1.200   0.040  -0.715  1.00  0.00     0.049 C 
HETATM   13  C   UNL     1       3.272  -1.212  -0.056  1.00  0.00     0.021 A 
HETATM   14  C   UNL     1       5.265  -2.463   0.645  1.00  0.00     0.023 C 
HETATM   15  C   UNL     1       6.660  -2.546   0.751  1.00  0.00    -0.023 C 
HETATM   16  C   UNL     1       7.261  -3.745   1.433  1.00  0.00     0.052 C 
ENDBRANCH   1   3
BRANCH   1  17
HETATM   17  C   UNL     1       9.452  -0.129   0.665  1.00  0.00     0.113 C 
BRANCH  17  18
HETATM   18  C   UNL     1      10.702   0.081  -0.204  1.00  0.00     0.137 C 
BRANCH  18  19
HETATM   19  N   UNL     1      10.562  -0.208  -1.624  1.00  0.00    -0.356 N 
HETATM   20  C   UNL     1       9.505   0.179  -2.414  1.00  0.00     0.251 C 
HETATM   21  O   UNL     1       8.460   0.648  -1.962  1.00  0.00    -0.268 OA
HETATM   22  H   UNL     1      11.345  -0.682  -2.061  1.00  0.00     0.162 HD
BRANCH  20  23
HETATM   23  C   UNL     1       9.658  -0.093  -3.871  1.00  0.00     0.032 A 
HETATM   24  C   UNL     1       8.527  -0.435  -4.617  1.00  0.00     0.020 A 
HETATM   25  C   UNL     1       8.657  -0.739  -5.976  1.00  0.00     0.038 A 
HETATM   26  C   UNL     1       9.905  -0.696  -6.604  1.00  0.00     0.068 A 
HETATM   27  C   UNL     1      11.028  -0.324  -5.866  1.00  0.00     0.038 A 
HETATM   28  C   UNL     1      10.905  -0.019  -4.504  1.00  0.00     0.020 A 
BRANCH  26  29
HETATM   29  O   UNL     1       9.890  -1.031  -7.928  1.00  0.00    -0.356 OA
HETATM   30  C   UNL     1      11.144  -1.081  -8.600  1.00  0.00     0.210 C 
ENDBRANCH  26  29
ENDBRANCH  20  23
ENDBRANCH  18  19
ENDBRANCH  17  18
ENDBRANCH   1  17
TORSDOF 6
