REMARK  5 active torsions:
REMARK  status: ('A' for Active; 'I' for Inactive)
REMARK    1  A    between atoms: N_2  and  C_4 
REMARK    2  A    between atoms: C_4  and  C_5 
REMARK    3  A    between atoms: C_5  and  N_6 
REMARK    4  A    between atoms: C_11  and  C_12 
REMARK    5  A    between atoms: C_14  and  O_15 
ROOT
HETATM    1  N   UNL     1       3.065  -3.673  -0.958  1.00  0.00    -0.332 N 
HETATM    2  C   UNL     1       2.584  -4.789  -0.276  1.00  0.00     0.279 C 
HETATM    3  O   UNL     1       1.975  -4.775   0.777  1.00  0.00    -0.265 OA
HETATM    4  C   UNL     1       2.936  -5.972  -1.079  1.00  0.00     0.156 A 
HETATM    5  C   UNL     1       3.479  -5.510  -2.204  1.00  0.00     0.060 A 
HETATM    6  C   UNL     1       3.535  -4.035  -2.297  1.00  0.00     0.161 C 
HETATM    7  O   UNL     1       2.727  -7.273  -0.724  1.00  0.00    -0.303 OA
HETATM    8  C   UNL     1       3.102  -8.217  -1.659  1.00  0.00     0.090 A 
HETATM    9  C   UNL     1       3.716  -7.882  -2.879  1.00  0.00     0.051 A 
HETATM   10  C   UNL     1       3.978  -6.459  -3.189  1.00  0.00     0.196 A 
HETATM   11  O   UNL     1       4.584  -6.088  -4.182  1.00  0.00    -0.287 OA
HETATM   12  C   UNL     1       2.846  -9.553  -1.349  1.00  0.00     0.041 A 
HETATM   13  C   UNL     1       3.201 -10.549  -2.260  1.00  0.00     0.045 A 
HETATM   14  C   UNL     1       3.809 -10.204  -3.466  1.00  0.00     0.117 A 
HETATM   15  F   UNL     1       4.142 -11.169  -4.332  1.00  0.00    -0.206 F 
HETATM   16  C   UNL     1       4.074  -8.878  -3.788  1.00  0.00     0.060 A 
ENDROOT
BRANCH   6  17
HETATM   17  C   UNL     1       2.673  -3.447  -3.399  1.00  0.00    -0.028 A 
HETATM   18  C   UNL     1       3.277  -2.686  -4.415  1.00  0.00     0.046 A 
HETATM   19  C   UNL     1       2.494  -2.101  -5.406  1.00  0.00     0.066 A 
HETATM   20  C   UNL     1       1.115  -2.259  -5.415  1.00  0.00     0.036 A 
HETATM   21  C   UNL     1       0.505  -3.033  -4.432  1.00  0.00     0.003 A 
HETATM   22  C   UNL     1       1.277  -3.626  -3.432  1.00  0.00     0.010 A 
BRANCH  19  23
HETATM   23  O   UNL     1       3.052  -1.348  -6.395  1.00  0.00    -0.361 OA
HETATM   24  H   UNL     1       4.000  -1.553  -6.455  1.00  0.00     0.217 HD
ENDBRANCH  19  23
ENDBRANCH   6  17
BRANCH   1  25
HETATM   25  C   UNL     1       2.675  -2.316  -0.602  1.00  0.00     0.155 C 
BRANCH  25  26
HETATM   26  C   UNL     1       3.047  -1.904   0.836  1.00  0.00     0.254 C 
BRANCH  26  27
HETATM   27  N   UNL     1       2.292  -0.656   1.277  1.00  0.00    -0.077 N 
HETATM   28  C   UNL     1       2.613   0.572   0.472  1.00  0.00     0.269 C 
HETATM   29  H   UNL     1       1.289  -0.856   1.153  1.00  0.00     0.279 HD
HETATM   30  C   UNL     1       2.478  -0.406   2.752  1.00  0.00     0.269 C 
ENDBRANCH  26  27
ENDBRANCH  25  26
ENDBRANCH   1  25
TORSDOF 5
