REMARK  9 active torsions:
REMARK  status: ('A' for Active; 'I' for Inactive)
REMARK    1  A    between atoms: O_2  and  C_3 
REMARK    2  A    between atoms: C_4  and  C_5 
REMARK    3  A    between atoms: C_9  and  C_10 
REMARK       I    between atoms: C_10  and  N_11 
REMARK    4  A    between atoms: N_11  and  C_12 
REMARK    5  A    between atoms: C_12  and  C_13 
REMARK    6  A    between atoms: C_13  and  C_14 
REMARK    7  A    between atoms: C_14  and  C_15 
REMARK    8  A    between atoms: C_15  and  O_16 
REMARK    9  A    between atoms: O_16  and  C_17 
ROOT
HETATM    1  C   UNL     1      -2.044   4.416   1.099  1.00  0.00     0.270 C 
HETATM    2  N   UNL     1      -1.685   5.734   1.212  1.00  0.00    -0.345 N 
HETATM    3  O   UNL     1      -1.285   3.559   0.659  1.00  0.00    -0.266 OA
HETATM    4  H   UNL     1      -2.311   6.391   1.651  1.00  0.00     0.163 HD
ENDROOT
BRANCH   1   5
HETATM    5  C   UNL     1      -3.384   4.113   1.523  1.00  0.00     0.120 A 
HETATM    6  N   UNL     1      -3.911   2.856   1.408  1.00  0.00    -0.272 N 
HETATM    7  N   UNL     1      -5.182   2.751   1.820  1.00  0.00    -0.174 NA
HETATM    8  H   UNL     1      -3.445   2.033   1.038  1.00  0.00     0.189 HD
HETATM    9  C   UNL     1      -5.507   3.982   2.240  1.00  0.00     0.092 A 
HETATM   10  C   UNL     1      -4.403   4.866   2.073  1.00  0.00     0.071 A 
BRANCH   9  11
HETATM   11  C   UNL     1      -6.837   4.322   2.749  1.00  0.00     0.028 A 
HETATM   12  C   UNL     1      -7.562   3.514   3.642  1.00  0.00     0.080 A 
HETATM   13  C   UNL     1      -8.857   3.879   4.035  1.00  0.00     0.037 A 
HETATM   14  C   UNL     1      -9.427   5.067   3.584  1.00  0.00     0.003 A 
HETATM   15  C   UNL     1      -8.712   5.892   2.722  1.00  0.00     0.001 A 
HETATM   16  C   UNL     1      -7.431   5.520   2.304  1.00  0.00     0.017 A 
BRANCH  12  17
HETATM   17  O   UNL     1      -7.120   2.325   4.162  1.00  0.00    -0.355 OA
HETATM   18  C   UNL     1      -5.996   2.486   5.024  1.00  0.00     0.210 C 
ENDBRANCH  12  17
ENDBRANCH   9  11
ENDBRANCH   1   5
BRANCH   2  19
HETATM   19  C   UNL     1      -0.377   6.197   0.829  1.00  0.00     0.217 C 
BRANCH  19  20
HETATM   20  C   UNL     1      -0.412   7.715   0.763  1.00  0.00    -0.085 C 
BRANCH  20  21
HETATM   21  C   UNL     1      -0.443   9.017   0.708  1.00  0.00    -0.078 C 
BRANCH  21  22
HETATM   22  C   UNL     1      -0.478  10.535   0.642  1.00  0.00     0.269 C 
BRANCH  22  23
HETATM   23  O   UNL     1       0.853  11.038   0.595  1.00  0.00    -0.339 OA
BRANCH  23  24
HETATM   24  C   UNL     1       0.985  12.400   0.521  1.00  0.00     0.072 A 
HETATM   25  C   UNL     1      -0.065  13.324   0.509  1.00  0.00     0.076 A 
HETATM   26  C   UNL     1       0.258  14.665   0.431  1.00  0.00     0.107 A 
HETATM   27  C   UNL     1       1.559  15.101   0.366  1.00  0.00     0.105 A 
HETATM   28  O   UNL     1      -0.635  15.691   0.409  1.00  0.00    -0.323 OA
HETATM   29  O   UNL     1       1.650  16.455   0.295  1.00  0.00    -0.323 OA
HETATM   30  C   UNL     1       2.616  14.219   0.376  1.00  0.00     0.042 A 
HETATM   31  C   UNL     1       0.256  16.824   0.322  1.00  0.00     0.352 A 
HETATM   32  C   UNL     1       2.318  12.854   0.454  1.00  0.00     0.040 A 
ENDBRANCH  23  24
ENDBRANCH  22  23
ENDBRANCH  21  22
ENDBRANCH  20  21
ENDBRANCH  19  20
ENDBRANCH   2  19
TORSDOF 9
