REMARK  5 active torsions:
REMARK  status: ('A' for Active; 'I' for Inactive)
REMARK    1  A    between atoms: C_4  and  C_5 
REMARK    2  A    between atoms: C_5  and  N_6 
REMARK    3  A    between atoms: C_7  and  C_8 
REMARK       I    between atoms: C_8  and  N_9 
REMARK    4  A    between atoms: N_9  and  N_10 
REMARK       I    between atoms: N_10  and  C_11 
REMARK    5  A    between atoms: C_11  and  C_12 
ROOT
HETATM    1  N   UNL     1       3.252  -1.412  -0.231  1.00  0.00    -0.337 N 
HETATM    2  C   UNL     1       4.612  -1.494   0.050  1.00  0.00     0.106 A 
HETATM    3  C   UNL     1       4.906  -2.850   0.119  1.00  0.00     0.049 A 
HETATM    4  C   UNL     1       3.735  -3.596  -0.165  1.00  0.00    -0.007 A 
HETATM    5  C   UNL     1       2.712  -2.680  -0.400  1.00  0.00     0.045 A 
HETATM    6  C   UNL     1       3.462  -4.975  -0.253  1.00  0.00     0.014 A 
HETATM    7  C   UNL     1       2.170  -5.402  -0.575  1.00  0.00     0.001 A 
HETATM    8  C   UNL     1       1.160  -4.476  -0.809  1.00  0.00     0.002 A 
HETATM    9  C   UNL     1       1.410  -3.103  -0.726  1.00  0.00     0.030 A 
ENDROOT
BRANCH   2  10
HETATM   10  C   UNL     1       5.513  -0.364   0.206  1.00  0.00     0.286 C 
HETATM   11  N   UNL     1       6.713  -0.655   0.824  1.00  0.00    -0.262 N 
HETATM   12  H   UNL     1       6.943  -1.563   1.218  1.00  0.00     0.190 HD
HETATM   13  O   UNL     1       5.273   0.777  -0.192  1.00  0.00    -0.264 OA
BRANCH  11  14
HETATM   14  N   UNL     1       7.685   0.345   0.933  1.00  0.00    -0.262 N 
HETATM   15  C   UNL     1       8.900   0.038   1.506  1.00  0.00     0.286 C 
HETATM   16  O   UNL     1       9.130  -1.075   1.981  1.00  0.00    -0.264 OA
HETATM   17  H   UNL     1       7.458   1.251   0.534  1.00  0.00     0.190 HD
BRANCH  15  18
HETATM   18  C   UNL     1       9.877   1.104   1.511  1.00  0.00     0.102 A 
HETATM   19  N   UNL     1      11.098   0.955   2.138  1.00  0.00    -0.361 N 
HETATM   20  H   UNL     1      11.379   0.113   2.626  1.00  0.00     0.165 HD
HETATM   21  C   UNL     1      11.845   2.093   2.001  1.00  0.00     0.088 A 
HETATM   22  C   UNL     1      11.109   2.994   1.268  1.00  0.00     0.019 A 
HETATM   23  C   UNL     1       9.872   2.376   0.960  1.00  0.00     0.036 A 
ENDBRANCH  15  18
ENDBRANCH  11  14
ENDBRANCH   2  10
BRANCH   1  24
HETATM   24  C   UNL     1       2.477  -0.175  -0.338  1.00  0.00     0.168 C 
BRANCH  24  25
HETATM   25  C   UNL     1       2.093   0.391   1.011  1.00  0.00    -0.040 A 
HETATM   26  C   UNL     1       2.416   1.718   1.332  1.00  0.00     0.009 A 
HETATM   27  C   UNL     1       2.028   2.270   2.555  1.00  0.00     0.001 A 
HETATM   28  C   UNL     1       1.310   1.504   3.471  1.00  0.00     0.000 A 
HETATM   29  C   UNL     1       0.981   0.186   3.166  1.00  0.00     0.001 A 
HETATM   30  C   UNL     1       1.365  -0.366   1.943  1.00  0.00     0.009 A 
ENDBRANCH  24  25
ENDBRANCH   1  24
TORSDOF 5
