REMARK  7 active torsions:
REMARK  status: ('A' for Active; 'I' for Inactive)
REMARK    1  A    between atoms: C_4  and  C_5 
REMARK    2  A    between atoms: C_5  and  O_6 
REMARK    3  A    between atoms: C_5  and  C_7 
REMARK    4  A    between atoms: C_9  and  C_10 
REMARK    5  A    between atoms: C_10  and  N_11 
REMARK       I    between atoms: N_11  and  C_12 
REMARK    6  A    between atoms: C_12  and  C_13 
REMARK       I    between atoms: C_13  and  N_14 
REMARK    7  A    between atoms: N_14  and  C_15 
ROOT
HETATM    1  N   UNL     1       1.826  -7.538  -0.726  1.00  0.00    -0.348 N 
HETATM    2  C   UNL     1       1.918  -8.895  -0.540  1.00  0.00     0.310 C 
HETATM    3  O   UNL     1       1.004  -9.702  -0.647  1.00  0.00    -0.262 OA
HETATM    4  H   UNL     1       2.646  -6.985  -0.487  1.00  0.00     0.163 HD
ENDROOT
BRANCH   2   5
HETATM    5  C   UNL     1       3.326  -9.380  -0.129  1.00  0.00     0.313 C 
HETATM    6  N   UNL     1       3.349 -10.738   0.109  1.00  0.00    -0.319 N 
HETATM    7  H   UNL     1       2.452 -11.200  -0.025  1.00  0.00     0.169 HD
HETATM    8  O   UNL     1       4.228  -8.560  -0.036  1.00  0.00    -0.262 OA
BRANCH   6   9
HETATM    9  C   UNL     1       4.429 -11.518   0.552  1.00  0.00     0.036 A 
HETATM   10  C   UNL     1       5.711 -11.013   0.765  1.00  0.00     0.039 A 
HETATM   11  C   UNL     1       6.734 -11.843   1.252  1.00  0.00    -0.028 A 
HETATM   12  C   UNL     1       6.480 -13.195   1.515  1.00  0.00     0.050 A 
HETATM   13  C   UNL     1       8.130 -11.317   1.408  1.00  0.00     0.050 C 
HETATM   14  N   UNL     1       7.520 -14.016   2.026  1.00  0.00    -0.317 N 
HETATM   15  C   UNL     1       5.209 -13.724   1.246  1.00  0.00    -0.028 A 
HETATM   16  C   UNL     1       8.712 -13.490   2.516  1.00  0.00     0.224 C 
HETATM   17  C   UNL     1       7.279 -15.443   2.215  1.00  0.00     0.132 C 
HETATM   18  O   UNL     1       9.616 -14.188   2.980  1.00  0.00    -0.273 OA
HETATM   19  C   UNL     1       8.805 -11.982   2.587  1.00  0.00     0.108 C 
HETATM   20  C   UNL     1       6.185 -16.001   1.321  1.00  0.00     0.025 C 
HETATM   21  C   UNL     1       4.916 -15.180   1.486  1.00  0.00     0.042 C 
HETATM   22  C   UNL     1       4.187 -12.876   0.787  1.00  0.00     0.039 A 
ENDBRANCH   6   9
ENDBRANCH   2   5
BRANCH   1  23
HETATM   23  C   UNL     1       0.556  -6.897  -0.936  1.00  0.00     0.169 C 
BRANCH  23  24
HETATM   24  C   UNL     1       0.791  -5.460  -1.261  1.00  0.00     0.001 A 
HETATM   25  S   UNL     1       0.680  -4.266  -0.038  1.00  0.00    -0.095 SA
HETATM   26  C   UNL     1       1.037  -2.995  -1.136  1.00  0.00     0.017 A 
HETATM   27  C   UNL     1       1.245  -3.488  -2.412  1.00  0.00     0.018 A 
HETATM   28  C   UNL     1       1.107  -4.903  -2.483  1.00  0.00     0.017 A 
BRANCH  26  29
HETATM   29  C   UNL     1       1.081  -1.573  -0.643  1.00  0.00     0.198 C 
BRANCH  29  30
HETATM   30  C   UNL     1       2.418  -1.171  -0.082  1.00  0.00     0.016 A 
HETATM   31  S   UNL     1       2.493  -0.337   1.418  1.00  0.00    -0.103 SA
HETATM   32  C   UNL     1       4.196  -0.219   1.345  1.00  0.00     0.050 A 
HETATM   33  C   UNL     1       4.707  -0.799   0.207  1.00  0.00     0.008 A 
HETATM   34  C   UNL     1       3.682  -1.344  -0.619  1.00  0.00     0.018 A 
ENDBRANCH  29  30
BRANCH  29  35
HETATM   35  O   UNL     1       0.841  -0.724  -1.767  1.00  0.00    -0.385 OA
HETATM   36  H   UNL     1       0.937   0.186  -1.438  1.00  0.00     0.210 HD
ENDBRANCH  29  35
ENDBRANCH  26  29
ENDBRANCH  23  24
ENDBRANCH   1  23
TORSDOF 7
