REMARK  6 active torsions:
REMARK  status: ('A' for Active; 'I' for Inactive)
REMARK    1  A    between atoms: C_2  and  N_3 
REMARK       I    between atoms: N_3  and  C_4 
REMARK    2  A    between atoms: C_4  and  C_5 
REMARK    3  A    between atoms: C_7  and  N_8 
REMARK       I    between atoms: N_8  and  C_9 
REMARK    4  A    between atoms: C_9  and  C_10 
REMARK    5  A    between atoms: C_10  and  C_11 
REMARK    6  A    between atoms: C_15  and  O_16 
ROOT
HETATM    1  N   UNL     1       5.038   3.223   0.162  1.00  0.00    -0.327 N 
HETATM    2  C   UNL     1       4.114   3.674   1.092  1.00  0.00     0.226 C 
HETATM    3  O   UNL     1       3.879   4.851   1.360  1.00  0.00    -0.273 OA
HETATM    4  H   UNL     1       5.231   2.229   0.149  1.00  0.00     0.169 HD
ENDROOT
BRANCH   1   5
HETATM    5  C   UNL     1       5.750   4.009  -0.769  1.00  0.00     0.035 A 
HETATM    6  C   UNL     1       5.450   5.350  -1.028  1.00  0.00     0.046 A 
HETATM    7  C   UNL     1       6.184   6.082  -1.972  1.00  0.00     0.034 A 
HETATM    8  C   UNL     1       7.216   5.449  -2.677  1.00  0.00     0.017 A 
HETATM    9  C   UNL     1       7.510   4.107  -2.437  1.00  0.00     0.003 A 
HETATM   10  C   UNL     1       6.777   3.390  -1.490  1.00  0.00     0.029 A 
BRANCH   7  11
HETATM   11  C   UNL     1       5.875   7.507  -2.296  1.00  0.00     0.251 C 
HETATM   12  N   UNL     1       5.099   8.205  -1.392  1.00  0.00    -0.357 N 
HETATM   13  H   UNL     1       4.901   7.810  -0.483  1.00  0.00     0.162 HD
HETATM   14  O   UNL     1       6.316   8.009  -3.325  1.00  0.00    -0.268 OA
BRANCH  12  15
HETATM   15  C   UNL     1       4.752   9.596  -1.597  1.00  0.00     0.118 C 
HETATM   16  C   UNL     1       5.766  10.522  -0.953  1.00  0.00     0.026 C 
ENDBRANCH  12  15
ENDBRANCH   7  11
ENDBRANCH   1   5
BRANCH   2  17
HETATM   17  C   UNL     1       3.379   2.554   1.809  1.00  0.00     0.144 C 
BRANCH  17  18
HETATM   18  C   UNL     1       2.473   1.783   0.907  1.00  0.00    -0.014 A 
HETATM   19  C   UNL     1       1.649   2.268  -0.161  1.00  0.00     0.006 A 
HETATM   20  C   UNL     1       1.008   1.154  -0.689  1.00  0.00     0.088 A 
HETATM   21  C   UNL     1       1.377   3.520  -0.744  1.00  0.00     0.017 A 
HETATM   22  C   UNL     1       0.126   1.194  -1.765  1.00  0.00     0.074 A 
HETATM   23  O   UNL     1       1.370   0.035  -0.007  1.00  0.00    -0.321 OA
HETATM   24  C   UNL     1      -0.110   2.442  -2.352  1.00  0.00     0.070 A 
HETATM   25  C   UNL     1       0.502   3.590  -1.841  1.00  0.00     0.038 A 
HETATM   26  C   UNL     1       2.244   0.420   0.955  1.00  0.00     0.151 A 
BRANCH  24  27
HETATM   27  O   UNL     1      -0.971   2.410  -3.418  1.00  0.00    -0.356 OA
HETATM   28  C   UNL     1      -1.088   3.602  -4.185  1.00  0.00     0.210 C 
ENDBRANCH  24  27
ENDBRANCH  17  18
ENDBRANCH   2  17
TORSDOF 6
