REMARK  7 active torsions:
REMARK  status: ('A' for Active; 'I' for Inactive)
REMARK    1  A    between atoms: C_4  and  C_5 
REMARK    2  A    between atoms: C_5  and  C_6 
REMARK    3  A    between atoms: C_6  and  C_7 
REMARK    4  A    between atoms: C_7  and  N_8 
REMARK    5  A    between atoms: C_12  and  O_13 
REMARK    6  A    between atoms: C_12  and  C_14 
REMARK    7  A    between atoms: C_19  and  C_20 
REMARK       I    between atoms: C_20  and  N_21 
ROOT
HETATM    1  C   UNL     1       4.872   7.744   1.955  1.00  0.00    -0.023 A 
HETATM    2  C   UNL     1       6.213   7.946   1.551  1.00  0.00     0.024 A 
HETATM    3  C   UNL     1       6.501   8.446   0.266  1.00  0.00     0.001 A 
HETATM    4  C   UNL     1       5.447   8.795  -0.564  1.00  0.00     0.086 A 
HETATM    5  O   UNL     1       5.911   9.215  -1.773  1.00  0.00    -0.304 OA
HETATM    6  C   UNL     1       7.280   9.132  -1.734  1.00  0.00     0.144 A 
HETATM    7  C   UNL     1       7.677   8.716  -0.475  1.00  0.00     0.057 A 
HETATM    8  C   UNL     1       4.114   8.720  -0.184  1.00  0.00     0.039 A 
HETATM    9  C   UNL     1       3.851   8.199   1.094  1.00  0.00     0.013 A 
ENDROOT
BRANCH   1  10
HETATM   10  C   UNL     1       4.551   7.074   3.302  1.00  0.00     0.088 C 
HETATM   11  C   UNL     1       5.586   6.026   3.753  1.00  0.00     0.071 C 
HETATM   12  C   UNL     1       5.635   4.836   2.811  1.00  0.00     0.238 C 
HETATM   13  N   UNL     1       4.279   4.181   2.674  1.00  0.00    -0.071 N 
HETATM   14  H   UNL     1       4.070   3.707   3.567  1.00  0.00     0.279 HD
HETATM   15  C   UNL     1       3.146   5.158   2.418  1.00  0.00     0.238 C 
HETATM   16  C   UNL     1       3.197   6.344   3.364  1.00  0.00     0.071 C 
BRANCH  13  17
HETATM   17  C   UNL     1       4.252   3.108   1.586  1.00  0.00     0.235 C 
BRANCH  17  18
HETATM   18  C   UNL     1       5.169   1.929   1.907  1.00  0.00     0.038 C 
BRANCH  18  19
HETATM   19  C   UNL     1       5.220   0.916   0.743  1.00  0.00     0.040 C 
HETATM   20  C   UNL     1       6.178  -0.229   1.072  1.00  0.00     0.017 C 
BRANCH  19  21
HETATM   21  C   UNL     1       3.874   0.378   0.386  1.00  0.00     0.057 A 
HETATM   22  O   UNL     1       2.989   0.200   1.407  1.00  0.00    -0.319 OA
HETATM   23  C   UNL     1       1.850  -0.315   0.864  1.00  0.00     0.049 A 
HETATM   24  C   UNL     1       0.751  -0.637   1.798  1.00  0.00     0.076 C 
HETATM   25  C   UNL     1       1.992  -0.443  -0.500  1.00  0.00     0.035 A 
HETATM   26  C   UNL     1       3.298   0.005  -0.810  1.00  0.00     0.035 A 
ENDBRANCH  19  21
ENDBRANCH  18  19
ENDBRANCH  17  18
ENDBRANCH  13  17
BRANCH  10  27
HETATM   27  O   UNL     1       4.520   8.085   4.308  1.00  0.00    -0.385 OA
HETATM   28  H   UNL     1       4.699   8.958   3.913  1.00  0.00     0.211 HD
ENDBRANCH  10  27
ENDBRANCH   1  10
BRANCH   6  29
HETATM   29  C   UNL     1       8.094   9.526  -2.871  1.00  0.00     0.277 C 
HETATM   30  N   UNL     1       7.629   9.319  -4.186  1.00  0.00    -0.345 N 
HETATM   31  C   UNL     1       8.449   9.834  -5.287  1.00  0.00     0.154 C 
HETATM   32  C   UNL     1       6.403   8.604  -4.540  1.00  0.00     0.128 C 
HETATM   33  C   UNL     1       7.721  10.858  -6.174  1.00  0.00     0.254 C 
HETATM   34  N   UNL     1       6.639  10.178  -7.007  1.00  0.00    -0.073 N 
HETATM   35  H   UNL     1       6.966   9.225  -7.212  1.00  0.00     0.279 HD
HETATM   36  C   UNL     1       6.506  10.835  -8.364  1.00  0.00     0.269 C 
HETATM   37  C   UNL     1       5.287  10.064  -6.345  1.00  0.00     0.236 C 
HETATM   38  C   UNL     1       5.301   9.589  -4.895  1.00  0.00     0.048 C 
HETATM   39  O   UNL     1       9.207  10.022  -2.693  1.00  0.00    -0.265 OA
ENDBRANCH   6  29
TORSDOF 7
