REMARK  8 active torsions:
REMARK  status: ('A' for Active; 'I' for Inactive)
REMARK    1  A    between atoms: C_4  and  S_5 
REMARK    2  A    between atoms: S_5  and  C_6 
REMARK    3  A    between atoms: C_6  and  C_7 
REMARK       I    between atoms: C_7  and  N_8 
REMARK    4  A    between atoms: N_8  and  C_9 
REMARK    5  A    between atoms: C_10  and  O_11 
REMARK    6  A    between atoms: C_22  and  C_23 
REMARK    7  A    between atoms: C_29  and  C_30 
REMARK       I    between atoms: C_30  and  N_31 
REMARK    8  A    between atoms: N_31  and  C_32 
ROOT
HETATM    1  C   UNL     1       0.990  -0.415   1.011  1.00  0.00     0.069 C 
HETATM    2  C   UNL     1       2.374  -0.334   0.409  1.00  0.00     0.019 A 
HETATM    3  N   UNL     1       2.913   0.939   0.339  1.00  0.00    -0.353 N 
HETATM    4  C   UNL     1       4.191   1.249  -0.087  1.00  0.00     0.088 A 
HETATM    5  C   UNL     1       5.001   0.257  -0.527  1.00  0.00     0.069 A 
HETATM    6  C   UNL     1       6.364   0.483  -0.894  1.00  0.00     0.099 C 
HETATM    7  N   UNL     1       7.482   0.613  -1.179  1.00  0.00    -0.192 NA
HETATM    8  C   UNL     1       4.507  -1.195  -0.567  1.00  0.00     0.106 A 
HETATM    9  C   UNL     1       3.093  -1.401  -0.018  1.00  0.00     0.046 A 
HETATM   10  H   UNL     1       2.483   1.650   0.934  1.00  0.00     0.166 HD
ENDROOT
BRANCH   4  11
HETATM   11  S   UNL     1       4.781   2.900   0.017  1.00  0.00    -0.102 SA
BRANCH  11  12
HETATM   12  C   UNL     1       3.481   3.804  -0.882  1.00  0.00     0.184 C 
BRANCH  12  13
HETATM   13  C   UNL     1       2.209   3.949  -0.058  1.00  0.00     0.231 C 
HETATM   14  N   UNL     1       0.992   4.065  -0.661  1.00  0.00    -0.324 N 
HETATM   15  H   UNL     1       0.305   4.527  -0.069  1.00  0.00     0.169 HD
HETATM   16  O   UNL     1       2.240   4.078   1.171  1.00  0.00    -0.272 OA
BRANCH  14  17
HETATM   17  C   UNL     1       0.484   3.648  -1.904  1.00  0.00     0.070 A 
HETATM   18  C   UNL     1      -0.699   4.280  -2.352  1.00  0.00     0.095 A 
HETATM   19  C   UNL     1      -1.290   3.883  -3.554  1.00  0.00     0.041 A 
HETATM   20  C   UNL     1      -0.723   2.849  -4.301  1.00  0.00     0.026 A 
HETATM   21  C   UNL     1       0.420   2.203  -3.837  1.00  0.00     0.036 A 
HETATM   22 CL   UNL     1       1.082   0.896  -4.739  1.00  0.00    -0.084 Cl
HETATM   23  C   UNL     1       1.021   2.589  -2.638  1.00  0.00     0.056 A 
BRANCH  18  24
HETATM   24  O   UNL     1      -1.183   5.271  -1.530  1.00  0.00    -0.354 OA
HETATM   25  C   UNL     1      -2.295   6.024  -2.001  1.00  0.00     0.210 C 
ENDBRANCH  18  24
ENDBRANCH  14  17
ENDBRANCH  12  13
ENDBRANCH  11  12
ENDBRANCH   4  11
BRANCH   8  26
HETATM   26  C   UNL     1       4.692  -1.799  -1.961  1.00  0.00    -0.044 A 
HETATM   27  C   UNL     1       5.818  -2.597  -2.232  1.00  0.00     0.008 A 
HETATM   28  C   UNL     1       6.018  -3.136  -3.504  1.00  0.00     0.001 A 
HETATM   29  C   UNL     1       5.100  -2.884  -4.519  1.00  0.00     0.000 A 
HETATM   30  C   UNL     1       3.985  -2.088  -4.268  1.00  0.00     0.001 A 
HETATM   31  C   UNL     1       3.783  -1.544  -2.998  1.00  0.00     0.008 A 
ENDBRANCH   8  26
BRANCH   9  32
HETATM   32  C   UNL     1       2.489  -2.783   0.017  1.00  0.00     0.255 C 
HETATM   33  N   UNL     1       3.392  -3.810   0.200  1.00  0.00    -0.323 N 
HETATM   34  H   UNL     1       4.376  -3.597   0.177  1.00  0.00     0.169 HD
HETATM   35  O   UNL     1       1.280  -2.926  -0.137  1.00  0.00    -0.268 OA
BRANCH  33  36
HETATM   36  C   UNL     1       3.104  -5.183   0.374  1.00  0.00     0.035 A 
HETATM   37  C   UNL     1       1.821  -5.695   0.574  1.00  0.00     0.029 A 
HETATM   38  C   UNL     1       1.627  -7.066   0.775  1.00  0.00     0.002 A 
HETATM   39  C   UNL     1       2.714  -7.937   0.772  1.00  0.00     0.000 A 
HETATM   40  C   UNL     1       3.997  -7.438   0.571  1.00  0.00     0.002 A 
HETATM   41  C   UNL     1       4.191  -6.068   0.378  1.00  0.00     0.029 A 
ENDBRANCH  33  36
ENDBRANCH   9  32
TORSDOF 8
