REMARK  8 active torsions:
REMARK  status: ('A' for Active; 'I' for Inactive)
REMARK    1  A    between atoms: C_5  and  C_6 
REMARK       I    between atoms: C_6  and  N_7 
REMARK    2  A    between atoms: N_7  and  C_8 
REMARK    3  A    between atoms: C_8  and  N_9 
REMARK    4  A    between atoms: C_8  and  C_25 
REMARK    5  A    between atoms: C_8  and  C_29 
REMARK    6  A    between atoms: N_9  and  C_10 
REMARK    7  A    between atoms: C_20  and  C_21 
REMARK    8  A    between atoms: C_21  and  O_22 
ROOT
HETATM    1  C   UNL     1       6.723   2.814  -0.715  1.00  0.00     0.307 C 
ENDROOT
BRANCH   1   2
HETATM    2  N   UNL     1       7.284   4.114  -1.133  1.00  0.00    -0.315 N 
HETATM    3  C   UNL     1       8.218   4.781  -0.386  1.00  0.00     0.254 C 
HETATM    4  O   UNL     1       8.699   4.320   0.636  1.00  0.00    -0.268 OA
HETATM    5  H   UNL     1       6.744   4.636  -1.806  1.00  0.00     0.165 HD
BRANCH   3   6
HETATM    6  C   UNL     1       8.595   6.126  -0.881  1.00  0.00     0.032 A 
HETATM    7  C   UNL     1       8.731   6.378  -2.252  1.00  0.00     0.017 A 
HETATM    8  C   UNL     1       9.094   7.652  -2.692  1.00  0.00     0.007 A 
HETATM    9  C   UNL     1       9.333   8.679  -1.770  1.00  0.00    -0.062 A 
HETATM   10  C   UNL     1       9.698  10.057  -2.241  1.00  0.00     0.048 C 
HETATM   11  C   UNL     1       9.187   8.419  -0.400  1.00  0.00     0.007 A 
HETATM   12  C   UNL     1       8.833   7.144   0.045  1.00  0.00     0.017 A 
ENDBRANCH   3   6
ENDBRANCH   1   2
BRANCH   1  13
HETATM   13  N   UNL     1       5.837   2.493  -1.916  1.00  0.00    -0.342 N 
HETATM   14  H   UNL     1       4.947   2.992  -1.795  1.00  0.00     0.163 HD
BRANCH  13  15
HETATM   15  C   UNL     1       6.273   2.382  -3.208  1.00  0.00     0.089 A 
HETATM   16  S   UNL     1       7.556   1.335  -3.659  1.00  0.00    -0.074 SA
HETATM   17  C   UNL     1       7.380   1.665  -5.303  1.00  0.00     0.018 A 
HETATM   18  C   UNL     1       6.354   2.550  -5.554  1.00  0.00    -0.023 A 
HETATM   19  C   UNL     1       8.237   1.010  -6.332  1.00  0.00     0.281 C 
HETATM   20  C   UNL     1       6.027   2.971  -6.964  1.00  0.00     0.068 C 
HETATM   21  C   UNL     1       5.711   2.999  -4.330  1.00  0.00     0.080 A 
HETATM   22  C   UNL     1       6.680   2.051  -8.013  1.00  0.00     0.239 C 
HETATM   23  N   UNL     1       8.129   1.722  -7.675  1.00  0.00    -0.070 N 
HETATM   24  H   UNL     1       8.447   1.043  -8.377  1.00  0.00     0.279 HD
HETATM   25  C   UNL     1       9.054   2.899  -7.785  1.00  0.00     0.270 C 
BRANCH  21  26
HETATM   26  C   UNL     1       4.619   3.989  -4.296  1.00  0.00     0.296 C 
HETATM   27  O   UNL     1       4.151   4.484  -5.314  1.00  0.00    -0.259 OA
BRANCH  26  28
HETATM   28  O   UNL     1       4.228   4.328  -3.032  1.00  0.00    -0.322 OA
HETATM   29  C   UNL     1       3.184   5.305  -2.978  1.00  0.00     0.213 C 
ENDBRANCH  26  28
ENDBRANCH  21  26
ENDBRANCH  13  15
ENDBRANCH   1  13
BRANCH   1  30
HETATM   30  C   UNL     1       7.739   1.701  -0.307  1.00  0.00     0.441 C 
HETATM   31  F   UNL     1       8.859   1.734  -1.077  1.00  0.00    -0.166 F 
HETATM   32  F   UNL     1       8.149   1.759   0.976  1.00  0.00    -0.166 F 
HETATM   33  F   UNL     1       7.198   0.464  -0.475  1.00  0.00    -0.166 F 
ENDBRANCH   1  30
BRANCH   1  34
HETATM   34  C   UNL     1       5.804   2.905   0.548  1.00  0.00     0.441 C 
HETATM   35  F   UNL     1       6.397   3.368   1.661  1.00  0.00    -0.166 F 
HETATM   36  F   UNL     1       4.776   3.765   0.272  1.00  0.00    -0.166 F 
HETATM   37  F   UNL     1       5.225   1.718   0.843  1.00  0.00    -0.166 F 
ENDBRANCH   1  34
TORSDOF 8
