REMARK  2 active torsions:
REMARK  status: ('A' for Active; 'I' for Inactive)
REMARK    1  A    between atoms: C_2  and  C_3 
REMARK    2  A    between atoms: C_6  and  C_7 
ROOT
HETATM    1  C   UNL     1       4.270   4.904   2.768  1.00  0.00     0.119 C 
HETATM    2  S   UNL     1       2.814   5.912   2.415  1.00  0.00    -0.141 SA
HETATM    3  C   UNL     1       3.498   7.559   2.086  1.00  0.00     0.136 C 
HETATM    4  C   UNL     1       4.508   8.142   3.058  1.00  0.00     0.031 C 
HETATM    5  C   UNL     1       3.994   7.664   0.672  1.00  0.00     0.236 C 
HETATM    6  O   UNL     1       3.626   8.539  -0.102  1.00  0.00    -0.272 OA
HETATM    7  N   UNL     1       5.015   6.832   0.132  1.00  0.00    -0.311 N 
HETATM    8  C   UNL     1       5.659   5.739   0.678  1.00  0.00     0.134 A 
HETATM    9  C   UNL     1       5.390   4.938   1.777  1.00  0.00     0.032 A 
HETATM   10  N   UNL     1       6.775   5.205   0.083  1.00  0.00    -0.262 N 
HETATM   11  H   UNL     1       7.253   5.525  -0.752  1.00  0.00     0.191 HD
HETATM   12  N   UNL     1       7.275   4.143   0.707  1.00  0.00    -0.178 NA
HETATM   13  C   UNL     1       6.430   3.936   1.718  1.00  0.00     0.062 A 
HETATM   14  C   UNL     1       6.658   2.766   2.613  1.00  0.00     0.073 C 
HETATM   15  H   UNL     1       5.289   7.138  -0.797  1.00  0.00     0.170 HD
ENDROOT
BRANCH   1  16
HETATM   16  C   UNL     1       4.775   5.026   4.203  1.00  0.00    -0.040 A 
HETATM   17  C   UNL     1       3.955   4.512   5.229  1.00  0.00     0.009 A 
HETATM   18  C   UNL     1       4.341   4.562   6.571  1.00  0.00     0.007 A 
HETATM   19  C   UNL     1       5.562   5.132   6.935  1.00  0.00    -0.059 A 
HETATM   20  C   UNL     1       6.391   5.642   5.932  1.00  0.00     0.007 A 
HETATM   21  C   UNL     1       6.003   5.592   4.587  1.00  0.00     0.009 A 
BRANCH  19  22
HETATM   22  C   UNL     1       5.989   5.164   8.381  1.00  0.00     0.034 C 
HETATM   23  C   UNL     1       6.622   3.851   8.815  1.00  0.00     0.010 C 
ENDBRANCH  19  22
ENDBRANCH   1  16
TORSDOF 2
