REMARK  5 active torsions:
REMARK  status: ('A' for Active; 'I' for Inactive)
REMARK    1  A    between atoms: C_2  and  O_3 
REMARK    2  A    between atoms: O_3  and  C_4 
REMARK    3  A    between atoms: C_10  and  N_11 
REMARK       I    between atoms: N_11  and  C_12 
REMARK       I    between atoms: C_12  and  N_13 
REMARK    4  A    between atoms: N_13  and  C_14 
REMARK    5  A    between atoms: C_14  and  C_15 
ROOT
HETATM    1  N   UNL     1       4.289   3.238  -0.813  1.00  0.00    -0.306 N 
HETATM    2  C   UNL     1       5.522   3.826  -0.861  1.00  0.00     0.321 C 
HETATM    3  N   UNL     1       6.190   3.931   0.322  1.00  0.00    -0.337 N 
HETATM    4  O   UNL     1       6.078   4.279  -1.857  1.00  0.00    -0.247 OA
HETATM    5  H   UNL     1       4.076   2.681   0.014  1.00  0.00     0.171 HD
HETATM    6  H   UNL     1       7.085   4.389   0.214  1.00  0.00     0.164 HD
ENDROOT
BRANCH   1   7
HETATM    7  C   UNL     1       3.370   3.065  -1.877  1.00  0.00     0.071 A 
HETATM    8  C   UNL     1       2.223   2.281  -1.638  1.00  0.00     0.117 A 
HETATM    9  C   UNL     1       1.344   1.980  -2.691  1.00  0.00     0.069 A 
HETATM   10 CL   UNL     1       0.019   0.886  -2.502  1.00  0.00    -0.081 Cl
HETATM   11  C   UNL     1       1.547   2.540  -3.953  1.00  0.00     0.027 A 
HETATM   12  C   UNL     1       2.637   3.378  -4.173  1.00  0.00     0.004 A 
HETATM   13  C   UNL     1       3.547   3.632  -3.143  1.00  0.00     0.032 A 
BRANCH   8  14
HETATM   14  O   UNL     1       2.050   1.763  -0.374  1.00  0.00    -0.343 OA
BRANCH  14  15
HETATM   15  C   UNL     1       0.960   2.381   0.337  1.00  0.00     0.121 C 
HETATM   16  C   UNL     1       1.470   3.551   1.175  1.00  0.00     0.040 C 
HETATM   17  C   UNL     1       0.355   1.313   1.244  1.00  0.00     0.040 C 
ENDBRANCH  14  15
ENDBRANCH   8  14
ENDBRANCH   1   7
BRANCH   3  18
HETATM   18  C   UNL     1       5.703   3.681   1.663  1.00  0.00     0.183 C 
BRANCH  18  19
HETATM   19  C   UNL     1       5.636   2.207   1.981  1.00  0.00     0.053 A 
HETATM   20  N   UNL     1       4.488   1.567   1.641  1.00  0.00    -0.264 NA
HETATM   21  C   UNL     1       4.419   0.235   1.859  1.00  0.00     0.118 A 
HETATM   22  C   UNL     1       5.446  -0.502   2.411  1.00  0.00     0.043 A 
HETATM   23  C   UNL     1       6.611   0.174   2.746  1.00  0.00     0.037 A 
HETATM   24 CL   UNL     1       7.930  -0.691   3.433  1.00  0.00    -0.084 Cl
HETATM   25  C   UNL     1       6.725   1.542   2.527  1.00  0.00     0.052 A 
ENDBRANCH  18  19
ENDBRANCH   3  18
TORSDOF 5
