REMARK  6 active torsions:
REMARK  status: ('A' for Active; 'I' for Inactive)
REMARK    1  A    between atoms: C_3  and  C_4 
REMARK    2  A    between atoms: C_9  and  N_10 
REMARK       I    between atoms: N_10  and  C_11 
REMARK       I    between atoms: C_11  and  N_12 
REMARK    3  A    between atoms: N_12  and  C_13 
REMARK    4  A    between atoms: C_13  and  C_14 
REMARK    5  A    between atoms: C_14  and  C_15 
REMARK    6  A    between atoms: N_17  and  C_18 
ROOT
HETATM    1  N   UNL     1       5.201  -2.446   0.068  1.00  0.00    -0.309 N 
HETATM    2  C   UNL     1       4.724  -3.723   0.003  1.00  0.00     0.320 C 
HETATM    3  N   UNL     1       3.382  -3.882   0.163  1.00  0.00    -0.343 N 
HETATM    4  O   UNL     1       5.382  -4.739  -0.202  1.00  0.00    -0.247 OA
HETATM    5  H   UNL     1       4.535  -1.725   0.278  1.00  0.00     0.170 HD
HETATM    6  H   UNL     1       3.123  -4.856   0.052  1.00  0.00     0.164 HD
ENDROOT
BRANCH   3   7
HETATM    7  C   UNL     1       2.299  -2.934   0.391  1.00  0.00     0.129 C 
BRANCH   7   8
HETATM    8  C   UNL     1       1.465  -3.297   1.625  1.00  0.00     0.061 C 
BRANCH   8   9
HETATM    9  C   UNL     1       2.186  -3.082   2.911  1.00  0.00    -0.020 A 
HETATM   10  C   UNL     1       3.127  -3.895   3.510  1.00  0.00     0.127 A 
HETATM   11  N   UNL     1       3.499  -3.305   4.700  1.00  0.00    -0.245 N 
HETATM   12  N   UNL     1       2.838  -2.130   4.881  1.00  0.00    -0.180 NA
HETATM   13  C   UNL     1       2.053  -2.009   3.813  1.00  0.00     0.148 A 
BRANCH  11  14
HETATM   14  C   UNL     1       4.421  -3.788   5.671  1.00  0.00     0.058 A 
HETATM   15  C   UNL     1       5.122  -4.986   5.475  1.00  0.00     0.031 A 
HETATM   16  C   UNL     1       6.012  -5.443   6.452  1.00  0.00     0.002 A 
HETATM   17  C   UNL     1       6.208  -4.713   7.622  1.00  0.00     0.000 A 
HETATM   18  C   UNL     1       5.517  -3.520   7.822  1.00  0.00     0.002 A 
HETATM   19  C   UNL     1       4.627  -3.056   6.850  1.00  0.00     0.031 A 
ENDBRANCH  11  14
ENDBRANCH   8   9
ENDBRANCH   7   8
ENDBRANCH   3   7
BRANCH   1  20
HETATM   20  C   UNL     1       6.529  -2.008  -0.118  1.00  0.00     0.036 A 
HETATM   21  C   UNL     1       7.607  -2.857  -0.356  1.00  0.00     0.030 A 
HETATM   22  C   UNL     1       8.895  -2.338  -0.533  1.00  0.00     0.018 A 
HETATM   23  C   UNL     1       9.124  -0.956  -0.490  1.00  0.00     0.015 A 
HETATM   24  C   UNL     1       8.045  -0.081  -0.262  1.00  0.00    -0.046 A 
HETATM   25  C   UNL     1       8.211   1.413  -0.207  1.00  0.00     0.049 C 
HETATM   26  C   UNL     1       6.760  -0.626  -0.064  1.00  0.00     0.037 A 
BRANCH  23  27
HETATM   27  C   UNL     1      10.518  -0.449  -0.670  1.00  0.00     0.156 C 
HETATM   28  C   UNL     1      11.438  -1.201  -1.598  1.00  0.00     0.097 C 
HETATM   29  O   UNL     1      10.908   0.541  -0.058  1.00  0.00    -0.293 OA
ENDBRANCH  23  27
ENDBRANCH   1  20
TORSDOF 6
