REMARK  5 active torsions:
REMARK  status: ('A' for Active; 'I' for Inactive)
REMARK    1  A    between atoms: C_4  and  N_5 
REMARK       I    between atoms: C_6  and  N_7 
REMARK       I    between atoms: C_6  and  N_14 
REMARK       I    between atoms: N_7  and  C_8 
REMARK    2  A    between atoms: C_8  and  C_9 
REMARK    3  A    between atoms: N_14  and  C_15 
REMARK    4  A    between atoms: C_15  and  C_16 
REMARK    5  A    between atoms: C_16  and  C_17 
ROOT
HETATM    1  N   UNL     1       5.331   2.207   0.118  1.00  0.00     0.130 NA
HETATM    2  C   UNL     1       6.590   2.392  -0.091  1.00  0.00     0.718 C 
HETATM    3  N   UNL     1       7.075   3.688  -0.097  1.00  0.00    -0.157 N 
HETATM    4  C   UNL     1       6.392   4.885   0.127  1.00  0.00     0.243 C 
HETATM    5  O   UNL     1       5.222   4.982   0.484  1.00  0.00    -0.272 OA
HETATM    6  N   UNL     1       7.510   1.400  -0.332  1.00  0.00    -0.223 N 
HETATM    7  H   UNL     1       8.042   3.766  -0.349  1.00  0.00     0.187 HD
HETATM    8  H   UNL     1       7.112   0.490  -0.083  1.00  0.00     0.177 HD
ENDROOT
BRANCH   1   9
HETATM    9  C   UNL     1       4.754   0.943   0.120  1.00  0.00     0.764 A 
HETATM   10  N   UNL     1       5.478  -0.107   0.562  1.00  0.00    -0.065 NA
HETATM   11  C   UNL     1       4.856  -1.303   0.575  1.00  0.00     0.051 A 
HETATM   12  C   UNL     1       5.637  -2.478   1.080  1.00  0.00     0.071 C 
HETATM   13  C   UNL     1       3.554  -1.466   0.146  1.00  0.00     0.054 A 
HETATM   14  C   UNL     1       2.901  -0.333  -0.298  1.00  0.00     0.051 A 
HETATM   15  N   UNL     1       3.488   0.878  -0.314  1.00  0.00    -0.065 NA
HETATM   16  C   UNL     1       1.487  -0.415  -0.787  1.00  0.00     0.071 C 
ENDBRANCH   1   9
BRANCH   6  17
HETATM   17  C   UNL     1       8.949   1.472  -0.158  1.00  0.00     0.142 C 
BRANCH  17  18
HETATM   18  C   UNL     1       9.570   0.077  -0.292  1.00  0.00     0.061 C 
BRANCH  18  19
HETATM   19  C   UNL     1      11.063   0.121  -0.338  1.00  0.00    -0.029 A 
HETATM   20  C   UNL     1      11.877   0.193  -1.514  1.00  0.00    -0.002 A 
HETATM   21  C   UNL     1      13.209   0.204  -1.102  1.00  0.00     0.042 A 
HETATM   22  C   UNL     1      11.601   0.245  -2.897  1.00  0.00     0.014 A 
HETATM   23  C   UNL     1      14.281   0.264  -2.001  1.00  0.00     0.030 A 
HETATM   24  N   UNL     1      13.208   0.143   0.272  1.00  0.00    -0.365 N 
HETATM   25  C   UNL     1      13.980   0.312  -3.365  1.00  0.00     0.002 A 
HETATM   26  C   UNL     1      12.660   0.304  -3.810  1.00  0.00     0.001 A 
HETATM   27  H   UNL     1      14.040   0.130   0.845  1.00  0.00     0.165 HD
HETATM   28  C   UNL     1      11.923   0.095   0.743  1.00  0.00     0.096 A 
ENDBRANCH  18  19
ENDBRANCH  17  18
ENDBRANCH   6  17
BRANCH   4  29
HETATM   29  C   UNL     1       7.280   6.142  -0.044  1.00  0.00     0.031 C 
HETATM   30  C   UNL     1       7.901   6.184  -1.449  1.00  0.00     0.025 C 
HETATM   31  C   UNL     1       6.418   7.405   0.140  1.00  0.00     0.025 C 
HETATM   32  C   UNL     1       8.383   6.142   1.025  1.00  0.00     0.025 C 
ENDBRANCH   4  29
TORSDOF 5
