REMARK  5 active torsions:
REMARK  status: ('A' for Active; 'I' for Inactive)
REMARK    1  A    between atoms: C_9  and  C_10 
REMARK       I    between atoms: C_10  and  N_11 
REMARK    2  A    between atoms: N_11  and  C_12 
REMARK    3  A    between atoms: C_12  and  C_13 
REMARK    4  A    between atoms: C_16  and  N_17 
REMARK       I    between atoms: N_17  and  C_18 
REMARK    5  A    between atoms: C_18  and  O_19 
ROOT
HETATM    1  C   UNL     1       5.468   3.339   0.186  1.00  0.00     0.273 C 
HETATM    2  N   UNL     1       6.348   4.396   0.117  1.00  0.00    -0.351 N 
HETATM    3  O   UNL     1       5.834   2.168   0.251  1.00  0.00    -0.266 OA
HETATM    4  H   UNL     1       5.935   5.323   0.177  1.00  0.00     0.163 HD
ENDROOT
BRANCH   2   5
HETATM    5  C   UNL     1       7.762   4.200   0.274  1.00  0.00     0.161 C 
BRANCH   5   6
HETATM    6  C   UNL     1       8.529   5.465   0.008  1.00  0.00    -0.040 A 
HETATM    7  C   UNL     1       8.896   6.314   1.058  1.00  0.00     0.011 A 
HETATM    8  C   UNL     1       9.624   7.487   0.814  1.00  0.00     0.030 A 
HETATM    9  C   UNL     1       9.992   7.838  -0.485  1.00  0.00     0.036 A 
HETATM   10  C   UNL     1       9.599   7.000  -1.538  1.00  0.00     0.030 A 
HETATM   11  C   UNL     1       8.873   5.829  -1.297  1.00  0.00     0.011 A 
BRANCH   9  12
HETATM   12  N   UNL     1      10.736   8.978  -0.836  1.00  0.00    -0.303 N 
HETATM   13  C   UNL     1      11.312   9.974  -0.093  1.00  0.00     0.364 C 
HETATM   14  O   UNL     1      11.930  10.877  -0.649  1.00  0.00    -0.238 OA
HETATM   15  H   UNL     1      10.919   9.117  -1.821  1.00  0.00     0.171 HD
BRANCH  13  16
HETATM   16  O   UNL     1      11.156   9.876   1.250  1.00  0.00    -0.309 OA
HETATM   17  C   UNL     1      11.781  10.924   1.992  1.00  0.00     0.215 C 
ENDBRANCH  13  16
ENDBRANCH   9  12
ENDBRANCH   5   6
ENDBRANCH   2   5
BRANCH   1  18
HETATM   18  C   UNL     1       4.055   3.750   0.194  1.00  0.00     0.157 A 
HETATM   19  C   UNL     1       2.911   2.899   0.248  1.00  0.00     0.029 A 
HETATM   20  C   UNL     1       2.679   1.510   0.301  1.00  0.00     0.023 A 
HETATM   21  C   UNL     1       1.820   3.760   0.244  1.00  0.00     0.063 A 
HETATM   22  C   UNL     1       1.360   1.028   0.348  1.00  0.00    -0.061 A 
HETATM   23  C   UNL     1       1.092  -0.448   0.409  1.00  0.00     0.048 C 
HETATM   24  C   UNL     1       0.289   1.931   0.343  1.00  0.00     0.009 A 
HETATM   25  C   UNL     1       0.496   3.315   0.290  1.00  0.00     0.032 A 
HETATM   26  N   UNL     1       2.354   5.017   0.189  1.00  0.00    -0.277 N 
HETATM   27  H   UNL     1       1.849   5.896   0.169  1.00  0.00     0.189 HD
HETATM   28  N   UNL     1       3.698   5.053   0.164  1.00  0.00    -0.168 NA
ENDBRANCH   1  18
TORSDOF 5
