REMARK  6 active torsions:
REMARK  status: ('A' for Active; 'I' for Inactive)
REMARK    1  A    between atoms: C_8  and  N_9 
REMARK       I    between atoms: N_9  and  C_10 
REMARK    2  A    between atoms: C_10  and  C_11 
REMARK    3  A    between atoms: C_11  and  N_12 
REMARK    4  A    between atoms: N_12  and  C_13 
REMARK    5  A    between atoms: C_13  and  C_14 
REMARK    6  A    between atoms: C_15  and  C_16 
ROOT
HETATM    1  N   UNL     1       0.513  -0.495  -0.445  1.00  0.00     0.100 N 
HETATM    2  H   UNL     1       0.649  -0.560  -1.459  1.00  0.00     0.317 HD
ENDROOT
BRANCH   1   3
HETATM    3  C   UNL     1       0.450  -1.880   0.062  1.00  0.00     0.372 C 
BRANCH   3   4
HETATM    4  C   UNL     1      -0.572  -2.741  -0.699  1.00  0.00     0.250 C 
HETATM    5  N   UNL     1      -1.085  -3.748   0.095  1.00  0.00    -0.322 N 
HETATM    6  H   UNL     1      -0.717  -3.832   1.034  1.00  0.00     0.169 HD
HETATM    7  O   UNL     1      -0.841  -2.518  -1.875  1.00  0.00    -0.271 OA
BRANCH   5   8
HETATM    8  C   UNL     1      -2.043  -4.689  -0.245  1.00  0.00     0.085 A 
HETATM    9  C   UNL     1      -2.423  -5.678   0.645  1.00  0.00     0.052 A 
HETATM   10  C   UNL     1      -1.991  -6.007   2.024  1.00  0.00     0.072 C 
HETATM   11  N   UNL     1      -3.366  -6.422  -0.003  1.00  0.00    -0.280 N 
HETATM   12  H   UNL     1      -3.865  -7.238   0.338  1.00  0.00     0.189 HD
HETATM   13  N   UNL     1      -3.640  -5.991  -1.235  1.00  0.00    -0.177 NA
HETATM   14  C   UNL     1      -2.837  -4.929  -1.405  1.00  0.00     0.079 A 
HETATM   15  C   UNL     1      -2.910  -4.204  -2.698  1.00  0.00     0.075 C 
ENDBRANCH   5   8
ENDBRANCH   3   4
ENDBRANCH   1   3
BRANCH   1  16
HETATM   16  C   UNL     1      -0.710   0.280  -0.208  1.00  0.00     0.250 C 
HETATM   17  C   UNL     1      -0.660   1.602  -0.984  1.00  0.00     0.048 C 
BRANCH  16  18
HETATM   18  C   UNL     1      -1.015   0.535   1.265  1.00  0.00    -0.011 A 
HETATM   19  C   UNL     1      -0.056   0.895   2.244  1.00  0.00     0.056 A 
HETATM   20  C   UNL     1      -0.492   1.090   3.575  1.00  0.00     0.017 A 
HETATM   21  C   UNL     1      -1.834   0.961   3.934  1.00  0.00     0.001 A 
HETATM   22  C   UNL     1      -2.773   0.627   2.971  1.00  0.00     0.001 A 
HETATM   23  C   UNL     1      -2.369   0.417   1.654  1.00  0.00     0.010 A 
BRANCH  19  24
HETATM   24  C   UNL     1       1.434   1.034   1.975  1.00  0.00     0.418 C 
HETATM   25  F   UNL     1       1.757   1.713   0.844  1.00  0.00    -0.166 F 
HETATM   26  F   UNL     1       2.072   1.722   2.975  1.00  0.00    -0.166 F 
HETATM   27  F   UNL     1       2.079  -0.167   1.926  1.00  0.00    -0.166 F 
ENDBRANCH  19  24
ENDBRANCH  16  18
ENDBRANCH   1  16
TORSDOF 6
