REMARK  8 active torsions:
REMARK  status: ('A' for Active; 'I' for Inactive)
REMARK    1  A    between atoms: C_7  and  C_8 
REMARK    2  A    between atoms: C_11  and  N_12 
REMARK       I    between atoms: N_12  and  C_13 
REMARK    3  A    between atoms: C_13  and  C_14 
REMARK    4  A    between atoms: C_14  and  N_15 
REMARK    5  A    between atoms: N_15  and  C_18 
REMARK    6  A    between atoms: C_18  and  C_19 
REMARK    7  A    between atoms: C_19  and  C_20 
REMARK    8  A    between atoms: C_20  and  O_21 
ROOT
HETATM    1  C   UNL     1       8.334  -1.870  -0.295  1.00  0.00    -0.000 A 
HETATM    2  C   UNL     1       9.563  -1.297  -0.648  1.00  0.00     0.016 A 
HETATM    3  C   UNL     1      10.733  -2.068  -0.710  1.00  0.00     0.030 A 
HETATM    4  C   UNL     1      10.704  -3.432  -0.422  1.00  0.00     0.034 A 
HETATM    5  C   UNL     1       9.487  -4.009  -0.044  1.00  0.00     0.030 A 
HETATM    6  C   UNL     1       8.318  -3.239   0.011  1.00  0.00     0.016 A 
ENDROOT
BRANCH   4   7
HETATM    7  N   UNL     1      11.827  -4.287  -0.517  1.00  0.00    -0.326 N 
HETATM    8  C   UNL     1      13.085  -3.940  -0.958  1.00  0.00     0.247 C 
HETATM    9  O   UNL     1      13.484  -2.825  -1.295  1.00  0.00    -0.271 OA
HETATM   10  H   UNL     1      11.642  -5.253  -0.269  1.00  0.00     0.169 HD
BRANCH   8  11
HETATM   11  C   UNL     1      14.071  -5.105  -1.071  1.00  0.00     0.334 C 
BRANCH  11  12
HETATM   12  N   UNL     1      15.282  -4.651  -1.852  1.00  0.00    -0.067 N 
HETATM   13  H   UNL     1      14.957  -4.307  -2.768  1.00  0.00     0.277 HD
HETATM   14  H   UNL     1      15.624  -3.792  -1.389  1.00  0.00     0.277 HD
BRANCH  12  15
HETATM   15  C   UNL     1      16.376  -5.647  -1.998  1.00  0.00     0.235 C 
BRANCH  15  16
HETATM   16  C   UNL     1      17.505  -5.020  -2.807  1.00  0.00     0.053 C 
BRANCH  16  17
HETATM   17  C   UNL     1      18.659  -5.994  -2.995  1.00  0.00     0.165 C 
BRANCH  17  18
HETATM   18  O   UNL     1      19.064  -6.462  -1.720  1.00  0.00    -0.401 OA
HETATM   19  H   UNL     1      19.907  -6.942  -1.841  1.00  0.00     0.209 HD
ENDBRANCH  17  18
ENDBRANCH  16  17
ENDBRANCH  15  16
ENDBRANCH  12  15
ENDBRANCH  11  12
ENDBRANCH   8  11
ENDBRANCH   4   7
BRANCH   1  20
HETATM   20  C   UNL     1       7.066  -1.116  -0.288  1.00  0.00     0.109 A 
HETATM   21  N   UNL     1       5.883  -1.682  -0.425  1.00  0.00    -0.240 NA
HETATM   22  C   UNL     1       4.886  -0.721  -0.441  1.00  0.00     0.075 A 
HETATM   23  C   UNL     1       5.321   0.593  -0.274  1.00  0.00     0.036 A 
HETATM   24  C   UNL     1       3.509  -0.960  -0.616  1.00  0.00     0.033 A 
HETATM   25  C   UNL     1       4.430   1.680  -0.276  1.00  0.00     0.028 A 
HETATM   26  S   UNL     1       7.030   0.593  -0.089  1.00  0.00    -0.067 SA
HETATM   27  C   UNL     1       3.062   1.427  -0.460  1.00  0.00    -0.061 A 
HETATM   28  C   UNL     1       2.076   2.560  -0.492  1.00  0.00     0.048 C 
HETATM   29  C   UNL     1       2.612   0.115  -0.629  1.00  0.00     0.009 A 
ENDBRANCH   1  20
TORSDOF 8
