REMARK  10 active torsions:
REMARK  status: ('A' for Active; 'I' for Inactive)
REMARK    1  A    between atoms: C_1  and  C_17 
REMARK    2  A    between atoms: C_4  and  C_5 
REMARK    3  A    between atoms: C_5  and  O_18 
REMARK    4  A    between atoms: C_6  and  C_11 
REMARK    5  A    between atoms: C_6  and  C_14 
REMARK    6  A    between atoms: C_6  and  N_15 
REMARK    7  A    between atoms: C_8  and  O_20 
REMARK    8  A    between atoms: C_11  and  O_34 
REMARK    9  A    between atoms: C_13  and  C_14 
REMARK       I    between atoms: N_15  and  C_16 
REMARK   10  A    between atoms: C_16  and  C_17 
ROOT
HETATM    1  C           1      -0.245  -0.808   0.639  0.00  0.00     0.056 C 
HETATM    2  C           1      -1.408  -1.850   0.796  0.00  0.00    -0.030 C 
HETATM    3  C           1      -2.660  -1.299   0.078  0.00  0.00     0.016 C 
HETATM    4  C           1      -1.683  -4.530   0.612  0.00  0.00     0.008 C 
HETATM    5  C           1      -0.928  -3.217   0.206  0.00  0.00     0.012 C 
HETATM    6  C           1      -1.933  -4.509   2.134  0.00  0.00     0.128 C 
HETATM    7  C           1      -1.714  -2.020   2.304  0.00  0.00     0.013 C 
HETATM    8  C           1       2.005   0.614  -3.261  0.00  0.00     0.017 A 
HETATM    9  C           1      -0.760  -5.745   0.313  0.00  0.00     0.020 C 
HETATM   10  C           1      -2.598  -3.228   2.620  0.00  0.00     0.033 C 
HETATM   11  C           1      -0.644  -3.105  -1.309  0.00  0.00     0.054 C 
HETATM   12  C           1       0.124  -1.855  -1.627  0.00  0.00     0.010 A 
HETATM   13  C           1       0.292  -0.847  -0.768  0.00  0.00     0.054 A 
HETATM   14  N           1       0.955   0.092  -1.286  0.00  0.00    -0.244 NA
HETATM   15  C           1       1.275  -0.211  -2.475  0.00  0.00     0.110 A 
HETATM   16  C           1       2.452   1.802  -2.798  0.00  0.00     0.130 A 
HETATM   17  N           1       3.134   2.649  -3.447  0.00  0.00    -0.272 NA
HETATM   18  C           1       3.438   2.370  -4.642  0.00  0.00     0.116 A 
HETATM   19  C           1       3.072   1.228  -5.240  0.00  0.00     0.020 A 
HETATM   20  C           1       2.349   0.343  -4.537  0.00  0.00     0.017 A 
HETATM   21  S           1       0.766  -1.527  -2.902  0.00  0.00    -0.072 SA
ENDROOT
BRANCH   1  22
HETATM   22  C           1      -0.580   0.637   1.072  0.00  0.00     0.114 C 
BRANCH  22  23
HETATM   23  C           1       0.605   1.554   1.347  0.00  0.00     0.218 C 
HETATM   24  N           1       0.250   2.866   1.510  0.00  0.00    -0.354 N 
HETATM   25  H           1      -0.732   3.109   1.378  0.00  0.00     0.162 HD
HETATM   26  O           1       1.742   1.159   1.427  0.00  0.00    -0.274 OA
BRANCH  24  27
HETATM   27  C           1       1.203   3.961   1.735  0.00  0.00     0.108 C 
BRANCH  27  28
HETATM   28  C           1       2.163   3.701   2.901  0.00  0.00     0.189 C 
BRANCH  28  29
HETATM   29  O           1       2.676   4.928   3.380  0.00  0.00    -0.399 OA
HETATM   30  H           1       3.357   4.755   4.034  0.00  0.00     0.209 HD
ENDBRANCH  28  29
ENDBRANCH  27  28
BRANCH  27  31
HETATM   31  C           1       1.947   4.355   0.446  0.00  0.00     0.031 C 
BRANCH  31  32
HETATM   32  C           1       1.111   5.003  -0.679  0.00  0.00    -0.021 C 
HETATM   33  C           1       0.672   6.434  -0.321  0.00  0.00     0.009 C 
HETATM   34  C           1      -0.104   4.173  -1.124  0.00  0.00     0.009 C 
ENDBRANCH  31  32
ENDBRANCH  27  31
ENDBRANCH  24  27
ENDBRANCH  22  23
ENDBRANCH   1  22
BRANCH   4  35
HETATM   35  C           1      -2.999  -4.758  -0.159  0.00  0.00     0.176 C 
BRANCH  35  36
HETATM   36  O           1      -3.520  -6.056   0.063  0.00  0.00    -0.400 OA
HETATM   37  H           1      -3.571  -6.232   1.004  0.00  0.00     0.209 HD
ENDBRANCH  35  36
ENDBRANCH   4  35
BRANCH   6  38
HETATM   38  O           1      -2.734  -5.596   2.533  0.00  0.00    -0.395 OA
HETATM   39  H           1      -2.683  -5.711   3.483  0.00  0.00     0.210 HD
ENDBRANCH   6  38
TORSDOF 10
