REMARK  8 active torsions:
REMARK  status: ('A' for Active; 'I' for Inactive)
REMARK    1  A    between atoms: C_2  and  C_3 
REMARK    2  A    between atoms: C_3  and  C_4 
REMARK       I    between atoms: C_4  and  N_5 
REMARK    3  A    between atoms: N_8  and  C_9 
REMARK    4  A    between atoms: C_13  and  N_14 
REMARK    5  A    between atoms: N_14  and  C_15 
REMARK    6  A    between atoms: C_15  and  N_16 
REMARK       I    between atoms: N_16  and  C_17 
REMARK    7  A    between atoms: C_17  and  C_18 
REMARK    8  A    between atoms: C_19  and  O_20 
ROOT
HETATM    1  C   UNL     1       8.441   3.326   1.244  1.00  0.00     0.052 A 
HETATM    2  C   UNL     1       8.462   4.742   1.289  1.00  0.00     0.062 A 
HETATM    3 CL   UNL     1       7.982   5.715  -0.069  1.00  0.00    -0.082 Cl
HETATM    4  C   UNL     1       8.973   5.441   2.398  1.00  0.00     0.055 A 
HETATM    5  C   UNL     1       9.547   4.745   3.458  1.00  0.00     0.036 A 
HETATM    6  C   UNL     1       9.489   3.355   3.459  1.00  0.00     0.032 A 
HETATM    7  C   UNL     1       8.938   2.662   2.377  1.00  0.00     0.033 A 
ENDROOT
BRANCH   5   8
HETATM    8  N   UNL     1      10.135   5.471   4.512  1.00  0.00    -0.333 N 
HETATM    9  H   UNL     1       9.811   6.429   4.652  1.00  0.00     0.168 HD
BRANCH   8  10
HETATM   10  C   UNL     1      11.269   5.159   5.227  1.00  0.00     0.179 C 
HETATM   11  S   UNL     1      12.446   4.022   4.863  1.00  0.00    -0.040 SA
BRANCH  10  12
HETATM   12  N   UNL     1      11.462   5.887   6.380  1.00  0.00    -0.299 N 
HETATM   13  C   UNL     1      10.589   6.747   7.026  1.00  0.00     0.260 C 
HETATM   14  O   UNL     1       9.691   7.346   6.439  1.00  0.00    -0.267 OA
HETATM   15  H   UNL     1      12.262   5.568   6.915  1.00  0.00     0.171 HD
BRANCH  13  16
HETATM   16  C   UNL     1      10.823   6.958   8.495  1.00  0.00     0.065 A 
HETATM   17  C   UNL     1      11.813   6.290   9.244  1.00  0.00     0.084 A 
HETATM   18  C   UNL     1      11.948   6.546  10.615  1.00  0.00     0.038 A 
HETATM   19  C   UNL     1      11.076   7.423  11.257  1.00  0.00     0.003 A 
HETATM   20  C   UNL     1      10.077   8.066  10.532  1.00  0.00     0.001 A 
HETATM   21  C   UNL     1       9.953   7.839   9.160  1.00  0.00     0.020 A 
BRANCH  17  22
HETATM   22  O   UNL     1      12.695   5.450   8.610  1.00  0.00    -0.355 OA
HETATM   23  C   UNL     1      12.797   4.162   9.225  1.00  0.00     0.210 C 
ENDBRANCH  17  22
ENDBRANCH  13  16
ENDBRANCH  10  12
ENDBRANCH   8  10
ENDBRANCH   5   8
BRANCH   1  24
HETATM   24  N   UNL     1       8.021   2.610   0.113  1.00  0.00    -0.376 N 
HETATM   25  C   UNL     1       6.586   2.700  -0.229  1.00  0.00     0.143 C 
HETATM   26  C   UNL     1       6.385   2.304  -1.708  1.00  0.00     0.145 C 
HETATM   27  N   UNL     1       6.995   1.007  -2.052  1.00  0.00    -0.349 N 
HETATM   28  C   UNL     1       6.652   0.271  -3.184  1.00  0.00     0.219 C 
HETATM   29  C   UNL     1       8.351   0.792  -1.530  1.00  0.00     0.145 C 
HETATM   30  O   UNL     1       7.308  -0.709  -3.543  1.00  0.00    -0.273 OA
HETATM   31  C   UNL     1       8.535   1.236  -0.073  1.00  0.00     0.143 C 
BRANCH  28  32
HETATM   32  C   UNL     1       5.427   0.728  -3.961  1.00  0.00     0.103 C 
BRANCH  32  33
HETATM   33  C   UNL     1       5.207  -0.112  -5.220  1.00  0.00     0.005 C 
HETATM   34  C   UNL     1       4.065   0.429  -6.064  1.00  0.00     0.005 C 
ENDBRANCH  32  33
ENDBRANCH  28  32
ENDBRANCH   1  24
TORSDOF 8
