REMARK  8 active torsions:
REMARK  status: ('A' for Active; 'I' for Inactive)
REMARK    1  A    between atoms: C_2  and  O_3 
REMARK    2  A    between atoms: O_3  and  C_4 
REMARK    3  A    between atoms: C_7  and  N_8 
REMARK       I    between atoms: N_8  and  C_9 
REMARK       I    between atoms: C_9  and  N_10 
REMARK    4  A    between atoms: N_10  and  C_11 
REMARK    5  A    between atoms: C_12  and  N_13 
REMARK    6  A    between atoms: C_29  and  C_30 
REMARK       I    between atoms: C_30  and  N_31 
REMARK    7  A    between atoms: N_31  and  C_32 
REMARK    8  A    between atoms: C_32  and  C_33 
ROOT
HETATM    1  C   UNL     1       6.768  -1.440  -1.931  1.00  0.00     0.043 A 
HETATM    2  C   UNL     1       6.606  -2.795  -1.559  1.00  0.00     0.052 A 
HETATM    3  C   UNL     1       5.824  -3.009  -0.405  1.00  0.00     0.032 A 
HETATM    4  C   UNL     1       5.200  -1.964   0.301  1.00  0.00     0.019 A 
HETATM    5  C   UNL     1       5.344  -0.647  -0.120  1.00  0.00     0.033 A 
HETATM    6  C   UNL     1       6.153  -0.389  -1.219  1.00  0.00     0.043 A 
ENDROOT
BRANCH   1   7
HETATM    7  N   UNL     1       7.565  -1.028  -3.036  1.00  0.00    -0.213 NA
HETATM    8  C   UNL     1       6.858  -0.421  -4.067  1.00  0.00     0.281 C 
HETATM    9  N   UNL     1       7.620   0.516  -4.754  1.00  0.00    -0.215 NA
HETATM   10  O   UNL     1       5.662  -0.637  -4.258  1.00  0.00    -0.260 OA
HETATM   11  H   UNL     1       8.365   0.872  -4.170  1.00  0.00     0.138 HD
HETATM   12  H   UNL     1       8.199  -1.743  -3.369  1.00  0.00     0.138 HD
BRANCH   9  13
HETATM   13  C   UNL     1       6.883   1.492  -5.475  1.00  0.00     0.016 C 
HETATM   14  C   UNL     1       6.959   2.823  -5.061  1.00  0.00     0.026 C 
HETATM   15  C   UNL     1       5.930   3.701  -5.406  1.00  0.00     0.038 C 
HETATM   16  C   UNL     1       4.863   3.238  -6.175  1.00  0.00     0.068 C 
HETATM   17  C   UNL     1       4.893   1.973  -6.757  1.00  0.00     0.038 C 
HETATM   18  C   UNL     1       5.911   1.095  -6.403  1.00  0.00     0.026 C 
BRANCH  16  19
HETATM   19  O   UNL     1       3.735   4.015  -6.246  1.00  0.00    -0.352 OA
BRANCH  19  20
HETATM   20  C   UNL     1       2.674   3.371  -5.513  1.00  0.00     0.171 C 
HETATM   21  C   UNL     1       1.737   4.429  -4.966  1.00  0.00     0.034 C 
ENDBRANCH  19  20
ENDBRANCH  16  19
ENDBRANCH   9  13
ENDBRANCH   1   7
BRANCH   2  22
HETATM   22  N   UNL     1       7.143  -3.861  -2.290  1.00  0.00    -0.378 N 
HETATM   23  C   UNL     1       7.431  -5.154  -1.641  1.00  0.00     0.133 C 
HETATM   24  C   UNL     1       6.538  -6.309  -2.155  1.00  0.00     0.054 C 
HETATM   25  C   UNL     1       6.666  -6.403  -3.672  1.00  0.00     0.020 C 
HETATM   26  C   UNL     1       5.076  -6.162  -1.767  1.00  0.00     0.020 A 
HETATM   27  C   UNL     1       6.133  -5.100  -4.243  1.00  0.00     0.023 C 
HETATM   28  C   UNL     1       4.648  -4.938  -3.903  1.00  0.00     0.138 C 
HETATM   29  C   UNL     1       6.960  -3.904  -3.753  1.00  0.00     0.129 C 
HETATM   30  N   UNL     1       4.210  -5.463  -2.612  1.00  0.00    -0.317 N 
HETATM   31  C   UNL     1       2.850  -5.296  -2.323  1.00  0.00     0.247 A 
HETATM   32  O   UNL     1       2.042  -4.726  -3.052  1.00  0.00    -0.268 OA
HETATM   33  C   UNL     1       2.372  -5.887  -1.049  1.00  0.00     0.074 A 
HETATM   34  C   UNL     1       3.216  -6.566  -0.266  1.00  0.00     0.007 A 
HETATM   35  C   UNL     1       4.599  -6.716  -0.637  1.00  0.00     0.026 A 
ENDBRANCH   2  22
BRANCH   5  36
HETATM   36  C   UNL     1       4.671   0.454   0.626  1.00  0.00     0.251 C 
HETATM   37  N   UNL     1       4.452   1.619  -0.077  1.00  0.00    -0.353 N 
HETATM   38  H   UNL     1       4.503   1.604  -1.087  1.00  0.00     0.163 HD
HETATM   39  O   UNL     1       4.339   0.294   1.796  1.00  0.00    -0.268 OA
BRANCH  37  40
HETATM   40  C   UNL     1       3.791   2.756   0.522  1.00  0.00     0.161 C 
BRANCH  40  41
HETATM   41  C   UNL     1       4.212   4.037  -0.155  1.00  0.00    -0.041 A 
HETATM   42  C   UNL     1       3.287   4.824  -0.854  1.00  0.00     0.009 A 
HETATM   43  C   UNL     1       3.688   6.015  -1.464  1.00  0.00     0.001 A 
HETATM   44  C   UNL     1       5.016   6.430  -1.385  1.00  0.00     0.000 A 
HETATM   45  C   UNL     1       5.946   5.655  -0.695  1.00  0.00     0.001 A 
HETATM   46  C   UNL     1       5.547   4.466  -0.083  1.00  0.00     0.009 A 
ENDBRANCH  40  41
ENDBRANCH  37  40
ENDBRANCH   5  36
TORSDOF 8
