REMARK  8 active torsions:
REMARK  status: ('A' for Active; 'I' for Inactive)
REMARK    1  A    between atoms: C_7  and  N_8 
REMARK    2  A    between atoms: N_8  and  C_9 
REMARK    3  A    between atoms: C_9  and  C_10 
REMARK    4  A    between atoms: C_10  and  C_11 
REMARK    5  A    between atoms: C_11  and  O_12 
REMARK    6  A    between atoms: C_14  and  N_15 
REMARK    7  A    between atoms: N_15  and  C_16 
REMARK    8  A    between atoms: C_16  and  C_17 
ROOT
HETATM    1  C   UNL     1      -2.530   0.165  -0.693  1.00  0.00     0.001 A 
HETATM    2  C   UNL     1      -1.477   1.069  -0.534  1.00  0.00     0.017 A 
HETATM    3  C   UNL     1      -0.179   0.623  -0.194  1.00  0.00     0.032 A 
HETATM    4  C   UNL     1       0.031  -0.763  -0.070  1.00  0.00     0.062 A 
HETATM    5  N   UNL     1       1.260  -1.218   0.199  1.00  0.00    -0.189 N 
HETATM    6  H   UNL     1       1.431  -2.207   0.314  1.00  0.00     0.184 HD
HETATM    7  C   UNL     1       2.295  -0.394   0.360  1.00  0.00     0.702 A 
HETATM    8  N   UNL     1       2.165   0.942   0.277  1.00  0.00    -0.052 NA
HETATM    9  C   UNL     1       0.946   1.443   0.011  1.00  0.00     0.135 A 
HETATM   10  C   UNL     1      -1.032  -1.666  -0.228  1.00  0.00     0.031 A 
HETATM   11  C   UNL     1      -2.310  -1.199  -0.531  1.00  0.00     0.002 A 
ENDROOT
BRANCH   9  12
HETATM   12  N   UNL     1       0.898   2.837  -0.050  1.00  0.00    -0.272 NA
HETATM   13  H   UNL     1       1.873   3.141  -0.020  1.00  0.00     0.129 HD
BRANCH  12  14
HETATM   14  C   UNL     1       0.197   3.455   1.082  1.00  0.00     0.132 C 
BRANCH  14  15
HETATM   15  C   UNL     1       0.798   4.815   1.351  1.00  0.00    -0.045 A 
HETATM   16  C   UNL     1       0.352   5.945   0.646  1.00  0.00     0.011 A 
HETATM   17  C   UNL     1       0.928   7.195   0.882  1.00  0.00     0.043 A 
HETATM   18  C   UNL     1       1.955   7.314   1.810  1.00  0.00     0.116 A 
HETATM   19  F   UNL     1       2.509   8.512   2.033  1.00  0.00    -0.206 F 
HETATM   20  C   UNL     1       2.420   6.206   2.508  1.00  0.00     0.043 A 
HETATM   21  C   UNL     1       1.846   4.955   2.278  1.00  0.00     0.011 A 
ENDBRANCH  14  15
ENDBRANCH  12  14
ENDBRANCH   9  12
BRANCH   7  22
HETATM   22  N   UNL     1       3.507  -0.968   0.667  1.00  0.00    -0.224 N 
HETATM   23  H   UNL     1       3.702  -1.915   0.366  1.00  0.00     0.177 HD
BRANCH  22  24
HETATM   24  C   UNL     1       4.694  -0.129   0.829  1.00  0.00     0.140 C 
BRANCH  24  25
HETATM   25  C   UNL     1       5.569  -0.134  -0.421  1.00  0.00     0.046 C 
BRANCH  25  26
HETATM   26  C   UNL     1       5.036   0.752  -1.537  1.00  0.00     0.165 C 
BRANCH  26  27
HETATM   27  O   UNL     1       5.873   0.627  -2.676  1.00  0.00    -0.401 OA
HETATM   28  H   UNL     1       6.713   1.085  -2.489  1.00  0.00     0.209 HD
ENDBRANCH  26  27
ENDBRANCH  25  26
ENDBRANCH  24  25
ENDBRANCH  22  24
ENDBRANCH   7  22
TORSDOF 8
