REMARK  4 active torsions:
REMARK  status: ('A' for Active; 'I' for Inactive)
REMARK    1  A    between atoms: C_4  and  C_5 
REMARK    2  A    between atoms: C_5  and  N_6 
REMARK    3  A    between atoms: C_9  and  C_10 
REMARK    4  A    between atoms: C_22  and  C_23 
ROOT
HETATM    1  N   UNL     1       3.276  -1.167  -0.283  1.00  0.00    -0.314 N 
HETATM    2  N   UNL     1       4.632  -1.351  -0.083  1.00  0.00    -0.203 NA
HETATM    3  C   UNL     1       4.920  -2.709  -0.224  1.00  0.00     0.041 C 
HETATM    4  C   UNL     1       6.098  -3.347  -0.293  1.00  0.00     0.044 C 
HETATM    5  C   UNL     1       3.601  -3.384  -0.326  1.00  0.00     0.015 C 
HETATM    6  C   UNL     1       2.670  -2.406  -0.348  1.00  0.00     0.119 C 
HETATM    7  H   UNL     1       5.247  -0.705  -0.588  1.00  0.00     0.153 HD
ENDROOT
BRANCH   4   8
HETATM    8  C   UNL     1       7.418  -2.783  -0.170  1.00  0.00     0.046 A 
HETATM    9  C   UNL     1       7.771  -1.349  -0.184  1.00  0.00     0.257 A 
HETATM   10  O   UNL     1       7.155  -0.329  -0.374  1.00  0.00    -0.267 OA
HETATM   11  N   UNL     1       9.272  -1.239   0.016  1.00  0.00    -0.322 N 
HETATM   12  C   UNL     1       9.688  -2.443   0.078  1.00  0.00     0.046 A 
HETATM   13  H   UNL     1       9.778  -0.363   0.052  1.00  0.00     0.169 HD
HETATM   14  C   UNL     1       8.588  -3.438  -0.041  1.00  0.00     0.008 A 
HETATM   15  C   UNL     1      11.070  -2.915   0.241  1.00  0.00     0.032 A 
HETATM   16  C   UNL     1       8.910  -4.839   0.008  1.00  0.00     0.038 A 
HETATM   17  C   UNL     1      10.193  -5.215   0.151  1.00  0.00     0.035 A 
HETATM   18  C   UNL     1      11.270  -4.244   0.269  1.00  0.00     0.026 A 
HETATM   19 CL   UNL     1      10.611  -6.886   0.199  1.00  0.00    -0.084 Cl
ENDBRANCH   4   8
BRANCH   5  20
HETATM   20  C   UNL     1       3.271  -4.806  -0.337  1.00  0.00    -0.005 A 
HETATM   21  C   UNL     1       3.679  -5.645   0.697  1.00  0.00     0.128 A 
HETATM   22  N   UNL     1       3.438  -6.976   0.741  1.00  0.00    -0.272 NA
HETATM   23  C   UNL     1       2.719  -7.494  -0.278  1.00  0.00     0.116 A 
HETATM   24  C   UNL     1       2.248  -6.746  -1.344  1.00  0.00     0.020 A 
HETATM   25  C   UNL     1       2.534  -5.382  -1.374  1.00  0.00     0.015 A 
ENDBRANCH   5  20
BRANCH   1  26
HETATM   26  C   UNL     1       2.621   0.097   0.040  1.00  0.00     0.181 C 
BRANCH  26  27
HETATM   27  C   UNL     1       2.944   1.152  -0.996  1.00  0.00    -0.039 A 
HETATM   28  C   UNL     1       2.654   0.930  -2.353  1.00  0.00     0.009 A 
HETATM   29  C   UNL     1       2.911   1.916  -3.306  1.00  0.00     0.001 A 
HETATM   30  C   UNL     1       3.454   3.138  -2.914  1.00  0.00     0.000 A 
HETATM   31  C   UNL     1       3.743   3.373  -1.571  1.00  0.00     0.001 A 
HETATM   32  C   UNL     1       3.489   2.386  -0.616  1.00  0.00     0.009 A 
ENDBRANCH  26  27
ENDBRANCH   1  26
TORSDOF 4
