REMARK  6 active torsions:
REMARK  status: ('A' for Active; 'I' for Inactive)
REMARK    1  A    between atoms: C_4  and  C_5 
REMARK    2  A    between atoms: C_5  and  N_6 
REMARK       I    between atoms: N_6  and  C_7 
REMARK    3  A    between atoms: C_7  and  C_8 
REMARK    4  A    between atoms: C_12  and  C_13 
REMARK    5  A    between atoms: C_13  and  O_14 
REMARK    6  A    between atoms: O_14  and  C_15 
ROOT
HETATM    1  C   UNL     1       6.260  -5.306  -0.365  1.00  0.00     0.146 A 
HETATM    2  N   UNL     1       7.220  -4.388  -0.599  1.00  0.00    -0.169 NA
HETATM    3  N   UNL     1       8.358  -5.104  -0.640  1.00  0.00    -0.279 N 
HETATM    4  H   UNL     1       9.226  -4.619  -0.845  1.00  0.00     0.189 HD
HETATM    5  C   UNL     1       8.183  -6.434  -0.382  1.00  0.00     0.054 A 
HETATM    6  C   UNL     1       6.825  -6.601  -0.228  1.00  0.00     0.068 A 
ENDROOT
BRANCH   1   7
HETATM    7  C   UNL     1       4.833  -4.965  -0.265  1.00  0.00     0.272 C 
HETATM    8  N   UNL     1       4.564  -3.623  -0.338  1.00  0.00    -0.350 N 
HETATM    9  H   UNL     1       5.337  -2.976  -0.474  1.00  0.00     0.163 HD
HETATM   10  O   UNL     1       3.957  -5.816  -0.122  1.00  0.00    -0.266 OA
BRANCH   8  11
HETATM   11  C   UNL     1       3.219  -3.110  -0.300  1.00  0.00     0.182 C 
BRANCH  11  12
HETATM   12  C   UNL     1       3.157  -1.603  -0.183  1.00  0.00     0.052 A 
HETATM   13  N   UNL     1       4.320  -0.899  -0.249  1.00  0.00    -0.257 NA
HETATM   14  C   UNL     1       4.253   0.450  -0.143  1.00  0.00     0.031 A 
HETATM   15  C   UNL     1       5.545   1.209  -0.203  1.00  0.00     0.070 C 
HETATM   16  C   UNL     1       3.052   1.131   0.022  1.00  0.00     0.027 A 
HETATM   17  C   UNL     1       1.870   0.402   0.080  1.00  0.00     0.004 A 
HETATM   18  C   UNL     1       1.920  -0.983  -0.025  1.00  0.00     0.029 A 
ENDBRANCH  11  12
ENDBRANCH   8  11
ENDBRANCH   1   7
BRANCH   5  19
HETATM   19  C   UNL     1       9.313  -7.392  -0.314  1.00  0.00     0.234 C 
BRANCH  19  20
HETATM   20  O   UNL     1       9.814  -7.520  -1.641  1.00  0.00    -0.345 OA
BRANCH  20  21
HETATM   21  C   UNL     1      10.711  -8.532  -1.860  1.00  0.00     0.072 A 
HETATM   22  C   UNL     1      10.945  -8.823  -3.209  1.00  0.00     0.076 A 
HETATM   23  C   UNL     1      11.831  -9.834  -3.513  1.00  0.00     0.107 A 
HETATM   24  C   UNL     1      12.484 -10.542  -2.532  1.00  0.00     0.105 A 
HETATM   25  O   UNL     1      12.166 -10.253  -4.763  1.00  0.00    -0.323 OA
HETATM   26  O   UNL     1      13.310 -11.494  -3.040  1.00  0.00    -0.323 OA
HETATM   27  C   UNL     1      12.287 -10.274  -1.196  1.00  0.00     0.042 A 
HETATM   28  C   UNL     1      13.097 -11.311  -4.455  1.00  0.00     0.352 A 
HETATM   29  C   UNL     1      11.390  -9.253  -0.858  1.00  0.00     0.039 A 
ENDBRANCH  20  21
ENDBRANCH  19  20
ENDBRANCH   5  19
TORSDOF 6
