REMARK  11 active torsions:
REMARK  status: ('A' for Active; 'I' for Inactive)
REMARK    1  A    between atoms: C_2  and  O_3 
REMARK    2  A    between atoms: O_3  and  C_4 
REMARK    3  A    between atoms: C_5  and  O_6 
REMARK    4  A    between atoms: O_6  and  C_7 
REMARK    5  A    between atoms: C_7  and  C_8 
REMARK       I    between atoms: C_8  and  N_9 
REMARK    6  A    between atoms: N_9  and  C_10 
REMARK    7  A    between atoms: C_11  and  O_12 
REMARK    8  A    between atoms: C_21  and  C_22 
REMARK    9  A    between atoms: C_27  and  C_28 
REMARK   10  A    between atoms: C_34  and  C_35 
REMARK   11  A    between atoms: C_35  and  C_36 
ROOT
HETATM    1  C   UNL     1       4.571   1.497  -2.052  1.00  0.00     0.102 A 
HETATM    2  C   UNL     1       5.013   2.711  -1.516  1.00  0.00     0.102 A 
HETATM    3  C   UNL     1       6.335   2.858  -1.095  1.00  0.00     0.040 A 
HETATM    4  C   UNL     1       7.237   1.808  -1.244  1.00  0.00     0.012 A 
HETATM    5  C   UNL     1       6.824   0.592  -1.806  1.00  0.00    -0.028 A 
HETATM    6  C   UNL     1       5.491   0.461  -2.239  1.00  0.00     0.049 A 
ENDROOT
BRANCH   5   7
HETATM    7  C   UNL     1       7.810  -0.557  -1.920  1.00  0.00     0.157 C 
HETATM    8  N   UNL     1       8.264  -0.653  -3.295  1.00  0.00    -0.354 N 
HETATM    9  C   UNL     1       8.734  -1.802  -3.842  1.00  0.00     0.173 C 
HETATM   10  H   UNL     1       8.510   0.202  -3.780  1.00  0.00     0.163 HD
HETATM   11  S   UNL     1       9.579  -1.797  -5.270  1.00  0.00    -0.041 SA
HETATM   12  N   UNL     1       8.443  -2.956  -3.184  1.00  0.00    -0.332 N 
HETATM   13  C   UNL     1       7.674  -3.030  -2.044  1.00  0.00     0.057 C 
HETATM   14  H   UNL     1       8.717  -3.821  -3.641  1.00  0.00     0.168 HD
HETATM   15  C   UNL     1       7.327  -1.893  -1.411  1.00  0.00     0.047 C 
BRANCH  13  16
HETATM   16  C   UNL     1       7.327  -4.391  -1.608  1.00  0.00    -0.009 A 
HETATM   17  C   UNL     1       6.092  -4.954  -1.953  1.00  0.00     0.014 A 
HETATM   18  C   UNL     1       5.787  -6.264  -1.581  1.00  0.00     0.001 A 
HETATM   19  C   UNL     1       6.715  -7.021  -0.869  1.00  0.00     0.000 A 
HETATM   20  C   UNL     1       7.948  -6.469  -0.524  1.00  0.00     0.001 A 
HETATM   21  C   UNL     1       8.255  -5.158  -0.892  1.00  0.00     0.014 A 
ENDBRANCH  13  16
BRANCH  15  22
HETATM   22  C   UNL     1       6.433  -1.917  -0.217  1.00  0.00     0.193 C 
HETATM   23  O   UNL     1       5.327  -2.446  -0.264  1.00  0.00    -0.287 OA
BRANCH  22  24
HETATM   24  C   UNL     1       6.835  -1.149   0.991  1.00  0.00     0.015 A 
HETATM   25  C   UNL     1       5.826  -0.530   1.741  1.00  0.00     0.015 A 
HETATM   26  C   UNL     1       6.155   0.243   2.855  1.00  0.00     0.001 A 
HETATM   27  C   UNL     1       7.489   0.391   3.229  1.00  0.00     0.000 A 
HETATM   28  C   UNL     1       8.496  -0.242   2.498  1.00  0.00     0.001 A 
HETATM   29  C   UNL     1       8.172  -1.019   1.383  1.00  0.00     0.015 A 
ENDBRANCH  22  24
ENDBRANCH  15  22
ENDBRANCH   5   7
BRANCH   1  30
HETATM   30  O   UNL     1       3.252   1.393  -2.405  1.00  0.00    -0.349 OA
BRANCH  30  31
HETATM   31  C   UNL     1       2.622   0.148  -2.079  1.00  0.00     0.171 C 
HETATM   32  C   UNL     1       2.303  -0.613  -3.353  1.00  0.00     0.034 C 
ENDBRANCH  30  31
ENDBRANCH   1  30
BRANCH   2  33
HETATM   33  O   UNL     1       4.179   3.770  -1.272  1.00  0.00    -0.339 OA
BRANCH  33  34
HETATM   34  C   UNL     1       3.643   4.348  -2.471  1.00  0.00     0.278 C 
BRANCH  34  35
HETATM   35  C   UNL     1       4.056   5.823  -2.606  1.00  0.00     0.246 C 
HETATM   36  N   UNL     1       4.813   6.255  -1.527  1.00  0.00    -0.323 N 
HETATM   37  H   UNL     1       5.144   5.501  -0.938  1.00  0.00     0.169 HD
HETATM   38  O   UNL     1       3.783   6.457  -3.621  1.00  0.00    -0.271 OA
BRANCH  36  39
HETATM   39  C   UNL     1       5.421   7.515  -1.358  1.00  0.00     0.068 A 
HETATM   40  C   UNL     1       4.859   8.738  -1.768  1.00  0.00     0.095 A 
HETATM   41  C   UNL     1       5.599   9.917  -1.595  1.00  0.00     0.039 A 
HETATM   42  C   UNL     1       6.857   9.890  -0.984  1.00  0.00     0.003 A 
HETATM   43  C   UNL     1       7.379   8.690  -0.519  1.00  0.00     0.002 A 
HETATM   44  C   UNL     1       6.659   7.510  -0.695  1.00  0.00     0.032 A 
BRANCH  40  45
HETATM   45  O   UNL     1       3.565   8.714  -2.213  1.00  0.00    -0.354 OA
HETATM   46  C   UNL     1       2.982   9.935  -2.643  1.00  0.00     0.210 C 
ENDBRANCH  40  45
ENDBRANCH  36  39
ENDBRANCH  34  35
ENDBRANCH  33  34
ENDBRANCH   2  33
TORSDOF 11
