REMARK  5 active torsions:
REMARK  status: ('A' for Active; 'I' for Inactive)
REMARK       I    between atoms: N_2  and  C_3 
REMARK    1  A    between atoms: C_3  and  C_4 
REMARK    2  A    between atoms: C_6  and  N_7 
REMARK    3  A    between atoms: N_7  and  C_8 
REMARK    4  A    between atoms: C_8  and  C_9 
REMARK    5  A    between atoms: C_19  and  O_20 
ROOT
HETATM    1  C   UNL     1       2.315  -0.615   2.445  1.00  0.00     0.033 A 
HETATM    2  C   UNL     1       2.127  -1.958   2.793  1.00  0.00     0.043 A 
HETATM    3  C   UNL     1       1.397  -2.318   3.933  1.00  0.00     0.043 A 
HETATM    4  C   UNL     1       0.809  -1.291   4.710  1.00  0.00     0.089 A 
HETATM    5  C   UNL     1       1.013   0.052   4.377  1.00  0.00     0.039 A 
HETATM    6  C   UNL     1       1.770   0.387   3.252  1.00  0.00     0.020 A 
ENDROOT
BRANCH   3   7
HETATM    7  N   UNL     1       1.124  -3.663   4.262  1.00  0.00    -0.286 NA
HETATM    8  H   UNL     1       0.760  -3.683   5.216  1.00  0.00     0.128 HD
BRANCH   7   9
HETATM    9  C   UNL     1       2.157  -4.679   4.043  1.00  0.00     0.132 C 
BRANCH   9  10
HETATM   10  C   UNL     1       2.063  -5.303   2.661  1.00  0.00    -0.034 A 
HETATM   11  C   UNL     1       3.187  -5.456   1.793  1.00  0.00    -0.018 A 
HETATM   12  C   UNL     1       2.983  -6.049   0.518  1.00  0.00    -0.025 A 
HETATM   13  C   UNL     1       4.506  -5.041   2.104  1.00  0.00     0.013 A 
HETATM   14  C   UNL     1       4.056  -6.195  -0.377  1.00  0.00     0.012 A 
HETATM   15  C   UNL     1       1.707  -6.490   0.141  1.00  0.00     0.012 A 
HETATM   16  C   UNL     1       5.338  -5.767  -0.040  1.00  0.00     0.001 A 
HETATM   17  C   UNL     1       5.563  -5.191   1.201  1.00  0.00     0.001 A 
HETATM   18  C   UNL     1       0.622  -6.355   0.998  1.00  0.00     0.002 A 
HETATM   19  C   UNL     1       0.799  -5.769   2.245  1.00  0.00     0.009 A 
ENDBRANCH   9  10
ENDBRANCH   7   9
ENDBRANCH   3   7
BRANCH   4  20
HETATM   20  O   UNL     1       0.091  -1.727   5.801  1.00  0.00    -0.354 OA
HETATM   21  C   UNL     1      -0.665  -0.749   6.505  1.00  0.00     0.210 C 
ENDBRANCH   4  20
BRANCH   1  22
HETATM   22  C   UNL     1       3.107  -0.217   1.247  1.00  0.00     0.251 C 
HETATM   23  N   UNL     1       3.193  -1.140   0.225  1.00  0.00    -0.361 N 
HETATM   24  C   UNL     1       3.890  -0.825  -0.996  1.00  0.00     0.149 C 
HETATM   25  H   UNL     1       2.587  -1.950   0.227  1.00  0.00     0.162 HD
HETATM   26  O   UNL     1       3.625   0.893   1.196  1.00  0.00    -0.268 OA
ENDBRANCH   1  22
TORSDOF 5
