REMARK  4 active torsions:
REMARK  status: ('A' for Active; 'I' for Inactive)
REMARK    1  A    between atoms: O_2  and  C_3 
REMARK    2  A    between atoms: C_8  and  C_9 
REMARK    3  A    between atoms: N_11  and  C_12 
REMARK    4  A    between atoms: C_12  and  C_13 
ROOT
HETATM    1  C   UNL     1      12.073   3.368   0.225  1.00  0.00     0.069 A 
HETATM    2  C   UNL     1      11.929   4.568   0.918  1.00  0.00     0.056 A 
HETATM    3  C   UNL     1      10.659   4.993   1.315  1.00  0.00     0.063 A 
HETATM    4  C   UNL     1       9.515   4.244   1.033  1.00  0.00     0.074 A 
HETATM    5  N   UNL     1       8.224   4.660   1.406  1.00  0.00    -0.234 NA
HETATM    6  C   UNL     1       8.107   5.777   2.050  1.00  0.00     0.113 A 
HETATM    7  N   UNL     1       9.184   6.556   2.384  1.00  0.00    -0.310 N 
HETATM    8  C   UNL     1      10.476   6.259   2.038  1.00  0.00     0.259 A 
HETATM    9  O   UNL     1      11.407   7.009   2.299  1.00  0.00    -0.267 OA
HETATM   10  C   UNL     1       9.669   3.043   0.341  1.00  0.00     0.035 A 
HETATM   11  C   UNL     1      10.939   2.604  -0.062  1.00  0.00     0.039 A 
HETATM   12  H   UNL     1       9.067   7.441   2.862  1.00  0.00     0.170 HD
ENDROOT
BRANCH   6  13
HETATM   13  C   UNL     1       6.727   6.278   2.456  1.00  0.00     0.082 C 
HETATM   14  C   UNL     1       6.466   7.673   1.916  1.00  0.00     0.139 C 
HETATM   15  N   UNL     1       6.962   8.524   2.971  1.00  0.00    -0.347 N 
HETATM   16  C   UNL     1       6.924   7.893   4.205  1.00  0.00     0.220 C 
HETATM   17  O   UNL     1       7.144   8.401   5.291  1.00  0.00    -0.273 OA
HETATM   18  C   UNL     1       6.593   6.436   3.972  1.00  0.00     0.117 C 
BRANCH  15  19
HETATM   19  C   UNL     1       7.149   9.953   2.803  1.00  0.00     0.164 C 
BRANCH  19  20
HETATM   20  C   UNL     1       5.858  10.728   2.821  1.00  0.00    -0.040 A 
HETATM   21  C   UNL     1       5.328  11.184   4.037  1.00  0.00     0.009 A 
HETATM   22  C   UNL     1       4.147  11.927   4.061  1.00  0.00     0.001 A 
HETATM   23  C   UNL     1       3.478  12.210   2.872  1.00  0.00     0.000 A 
HETATM   24  C   UNL     1       3.985  11.747   1.660  1.00  0.00     0.001 A 
HETATM   25  C   UNL     1       5.169  11.008   1.632  1.00  0.00     0.009 A 
ENDBRANCH  19  20
ENDBRANCH  15  19
ENDBRANCH   6  13
BRANCH   1  26
HETATM   26  O   UNL     1      13.360   3.058  -0.114  1.00  0.00    -0.356 OA
HETATM   27  C   UNL     1      13.571   1.840  -0.816  1.00  0.00     0.210 C 
ENDBRANCH   1  26
TORSDOF 4
