REMARK  3 active torsions:
REMARK  status: ('A' for Active; 'I' for Inactive)
REMARK    1  A    between atoms: O_2  and  C_3 
REMARK    2  A    between atoms: C_5  and  C_26 
REMARK    3  A    between atoms: C_11  and  C_15 
ROOT
HETATM    1  C   UNL     1      -3.168   7.403   0.950  1.00  0.00     0.096 A 
HETATM    2  C   UNL     1      -4.421   7.774   0.446  1.00  0.00     0.051 A 
HETATM    3  C   UNL     1      -5.105   6.947  -0.465  1.00  0.00    -0.019 A 
HETATM    4  C   UNL     1      -4.520   5.740  -0.863  1.00  0.00     0.031 A 
HETATM    5  C   UNL     1      -3.268   5.384  -0.357  1.00  0.00     0.062 A 
HETATM    6  C   UNL     1      -2.608   4.141  -0.750  1.00  0.00     0.259 A 
HETATM    7  O   UNL     1      -3.065   3.306  -1.504  1.00  0.00    -0.267 OA
HETATM    8  N   UNL     1      -1.331   3.910  -0.194  1.00  0.00    -0.312 N 
HETATM    9  C   UNL     1      -0.747   4.746   0.640  1.00  0.00     0.091 A 
HETATM   10  N   UNL     1      -1.341   5.866   1.021  1.00  0.00    -0.342 N 
HETATM   11  H   UNL     1      -0.897   6.520   1.666  1.00  0.00     0.167 HD
HETATM   12  C   UNL     1      -2.578   6.197   0.538  1.00  0.00     0.083 A 
HETATM   13  H   UNL     1      -0.855   3.055  -0.478  1.00  0.00     0.170 HD
ENDROOT
BRANCH   9  14
HETATM   14  C   UNL     1       0.624   4.469   1.176  1.00  0.00     0.082 C 
HETATM   15  C   UNL     1       0.911   2.979   1.333  1.00  0.00     0.188 C 
HETATM   16  O   UNL     1       0.861   2.291   0.076  1.00  0.00    -0.350 OA
HETATM   17  C   UNL     1       1.616   2.861  -0.917  1.00  0.00     0.075 A 
HETATM   18  C   UNL     1       1.899   2.049  -2.017  1.00  0.00     0.040 A 
HETATM   19  C   UNL     1       2.009   4.205  -0.897  1.00  0.00    -0.021 A 
HETATM   20  C   UNL     1       2.610   2.568  -3.098  1.00  0.00     0.045 A 
HETATM   21  C   UNL     1       3.024   3.894  -3.069  1.00  0.00     0.117 A 
HETATM   22  F   UNL     1       3.704   4.396  -4.107  1.00  0.00    -0.206 F 
HETATM   23  C   UNL     1       2.734   4.713  -1.982  1.00  0.00     0.052 A 
HETATM   24  C   UNL     1       1.695   5.088   0.276  1.00  0.00     0.056 C 
ENDBRANCH   9  14
BRANCH   1  25
HETATM   25  O   UNL     1      -2.416   8.131   1.841  1.00  0.00    -0.354 OA
HETATM   26  C   UNL     1      -2.999   9.331   2.351  1.00  0.00     0.210 C 
ENDBRANCH   1  25
BRANCH   3  27
HETATM   27  C   UNL     1      -6.392   7.360  -0.995  1.00  0.00     0.010 A 
HETATM   28  C   UNL     1      -6.913   8.649  -1.258  1.00  0.00     0.152 A 
HETATM   29  N   UNL     1      -8.155   8.614  -1.740  1.00  0.00    -0.187 NA
HETATM   30  N   UNL     1      -8.442   7.305  -1.794  1.00  0.00    -0.289 N 
HETATM   31  H   UNL     1      -9.356   7.025  -2.137  1.00  0.00     0.188 HD
HETATM   32  C   UNL     1      -7.417   6.511  -1.356  1.00  0.00     0.123 A 
ENDBRANCH   3  27
TORSDOF 3
