REMARK  3 active torsions:
REMARK  status: ('A' for Active; 'I' for Inactive)
REMARK    1  A    between atoms: C_2  and  C_3 
REMARK    2  A    between atoms: C_8  and  C_9 
REMARK    3  A    between atoms: C_9  and  N_10 
ROOT
HETATM    1  C   UNL     1       4.181  -2.195  -1.651  1.00  0.00     0.096 A 
HETATM    2  N   UNL     1       4.983  -1.150  -1.408  1.00  0.00    -0.174 NA
HETATM    3  N   UNL     1       5.030  -1.036  -0.080  1.00  0.00    -0.288 N 
HETATM    4  H   UNL     1       5.633  -0.320   0.320  1.00  0.00     0.188 HD
HETATM    5  C   UNL     1       4.220  -1.927   0.561  1.00  0.00     0.120 A 
HETATM    6  C   UNL     1       3.627  -2.696  -0.426  1.00  0.00     0.016 A 
ENDROOT
BRANCH   6   7
HETATM    7  C   UNL     1       2.654  -3.806  -0.249  1.00  0.00     0.277 C 
BRANCH   7   8
HETATM    8  N   UNL     1       1.492  -3.466   0.660  1.00  0.00    -0.067 N 
HETATM    9  H   UNL     1       1.945  -3.012   1.462  1.00  0.00     0.280 HD
HETATM   10  C   UNL     1       0.526  -2.437   0.124  1.00  0.00     0.242 C 
HETATM   11  C   UNL     1      -0.517  -3.009  -0.842  1.00  0.00     0.041 C 
HETATM   12  C   UNL     1      -1.106  -4.331  -0.347  1.00  0.00     0.128 C 
HETATM   13  C   UNL     1      -0.080  -3.040  -2.317  1.00  0.00     0.011 C 
HETATM   14  O   UNL     1      -1.952  -4.906  -1.328  1.00  0.00    -0.385 OA
HETATM   15  C   UNL     1      -0.085  -5.329   0.193  1.00  0.00     0.060 C 
HETATM   16  C   UNL     1      -1.379  -5.203  -2.598  1.00  0.00     0.168 C 
HETATM   17  C   UNL     1      -0.117  -4.424  -2.943  1.00  0.00     0.027 C 
HETATM   18  C   UNL     1       0.799  -4.674   1.234  1.00  0.00     0.237 C 
ENDBRANCH   7   8
ENDBRANCH   6   7
BRANCH   1  19
HETATM   19  C   UNL     1       3.950  -2.641  -3.027  1.00  0.00    -0.002 A 
HETATM   20  C   UNL     1       3.808  -1.694  -4.054  1.00  0.00     0.017 A 
HETATM   21  C   UNL     1       3.559  -2.098  -5.369  1.00  0.00     0.040 A 
HETATM   22  C   UNL     1       3.447  -3.453  -5.667  1.00  0.00     0.102 A 
HETATM   23  C   UNL     1       3.576  -4.402  -4.651  1.00  0.00     0.103 A 
HETATM   24  O   UNL     1       3.208  -3.782  -6.974  1.00  0.00    -0.346 OA
HETATM   25  C   UNL     1       3.863  -4.002  -3.346  1.00  0.00     0.053 A 
HETATM   26  O   UNL     1       3.432  -5.751  -4.857  1.00  0.00    -0.346 OA
HETATM   27  C   UNL     1       2.846  -6.028  -6.138  1.00  0.00     0.202 C 
HETATM   28  C   UNL     1       3.477  -5.168  -7.221  1.00  0.00     0.202 C 
ENDBRANCH   1  19
TORSDOF 3
