REMARK  9 active torsions:
REMARK  status: ('A' for Active; 'I' for Inactive)
REMARK    1  A    between atoms: C_2  and  O_3 
REMARK    2  A    between atoms: O_3  and  C_4 
REMARK    3  A    between atoms: C_5  and  O_6 
REMARK    4  A    between atoms: O_6  and  C_7 
REMARK    5  A    between atoms: C_7  and  C_8 
REMARK       I    between atoms: C_8  and  N_9 
REMARK    6  A    between atoms: N_9  and  C_10 
REMARK    7  A    between atoms: C_19  and  C_20 
REMARK    8  A    between atoms: C_21  and  C_22 
REMARK    9  A    between atoms: C_27  and  C_28 
ROOT
HETATM    1  C   UNL     1       4.473   0.743  -2.030  1.00  0.00     0.102 A 
HETATM    2  C   UNL     1       4.817   2.108  -1.957  1.00  0.00     0.102 A 
HETATM    3  C   UNL     1       6.160   2.481  -1.873  1.00  0.00     0.040 A 
HETATM    4  C   UNL     1       7.161   1.507  -1.900  1.00  0.00     0.014 A 
HETATM    5  C   UNL     1       6.832   0.153  -2.007  1.00  0.00    -0.033 A 
HETATM    6  C   UNL     1       5.484  -0.224  -2.047  1.00  0.00     0.051 A 
ENDROOT
BRANCH   2   7
HETATM    7  O   UNL     1       3.765   2.992  -1.987  1.00  0.00    -0.339 OA
BRANCH   7   8
HETATM    8  C   UNL     1       4.033   4.341  -2.344  1.00  0.00     0.278 C 
BRANCH   8   9
HETATM    9  C   UNL     1       4.488   4.576  -3.792  1.00  0.00     0.246 C 
HETATM   10  N   UNL     1       4.060   3.579  -4.652  1.00  0.00    -0.325 N 
HETATM   11  H   UNL     1       3.560   2.812  -4.210  1.00  0.00     0.169 HD
HETATM   12  O   UNL     1       5.126   5.582  -4.090  1.00  0.00    -0.271 OA
BRANCH  10  13
HETATM   13  C   UNL     1       4.314   3.452  -6.030  1.00  0.00     0.034 A 
HETATM   14  C   UNL     1       5.021   4.390  -6.783  1.00  0.00     0.029 A 
HETATM   15  C   UNL     1       5.237   4.184  -8.150  1.00  0.00     0.002 A 
HETATM   16  C   UNL     1       4.746   3.039  -8.774  1.00  0.00     0.000 A 
HETATM   17  C   UNL     1       4.039   2.098  -8.031  1.00  0.00     0.002 A 
HETATM   18  C   UNL     1       3.824   2.304  -6.666  1.00  0.00     0.029 A 
ENDBRANCH  10  13
ENDBRANCH   8   9
ENDBRANCH   7   8
ENDBRANCH   2   7
BRANCH   1  19
HETATM   19  O   UNL     1       3.131   0.468  -2.130  1.00  0.00    -0.349 OA
BRANCH  19  20
HETATM   20  C   UNL     1       2.733  -0.900  -2.073  1.00  0.00     0.171 C 
HETATM   21  C   UNL     1       1.216  -0.947  -2.114  1.00  0.00     0.034 C 
ENDBRANCH  19  20
ENDBRANCH   1  19
BRANCH   5  22
HETATM   22  C   UNL     1       7.865  -0.884  -2.080  1.00  0.00     0.014 C 
HETATM   23  C   UNL     1       8.870  -0.837  -2.972  1.00  0.00     0.035 C 
BRANCH  23  24
HETATM   24  C   UNL     1       9.879  -1.845  -3.129  1.00  0.00     0.091 A 
HETATM   25  N   UNL     1       9.906  -2.979  -2.408  1.00  0.00    -0.175 NA
HETATM   26  N   UNL     1      10.973  -3.645  -2.861  1.00  0.00    -0.288 N 
HETATM   27  H   UNL     1      11.184  -4.548  -2.447  1.00  0.00     0.188 HD
HETATM   28  C   UNL     1      11.641  -2.992  -3.850  1.00  0.00     0.126 A 
HETATM   29  C   UNL     1      10.963  -1.806  -4.056  1.00  0.00     0.049 A 
BRANCH  29  30
HETATM   30  C   UNL     1      11.342  -0.800  -5.026  1.00  0.00     0.273 C 
HETATM   31  O   UNL     1      10.757   0.265  -5.192  1.00  0.00    -0.301 OA
ENDBRANCH  29  30
ENDBRANCH  23  24
ENDBRANCH   5  22
TORSDOF 9
