REMARK  7 active torsions:
REMARK  status: ('A' for Active; 'I' for Inactive)
REMARK       I    between atoms: C_2  and  N_3 
REMARK    1  A    between atoms: C_2  and  C_11 
REMARK    2  A    between atoms: N_3  and  C_4 
REMARK    3  A    between atoms: C_4  and  C_5 
REMARK    4  A    between atoms: C_15  and  N_16 
REMARK    5  A    between atoms: N_16  and  C_17 
REMARK    6  A    between atoms: C_17  and  C_18 
REMARK    7  A    between atoms: C_20  and  C_24 
ROOT
HETATM    1  C   UNL     1       2.740  -0.913  -1.065  1.00  0.00     0.033 A 
HETATM    2  C   UNL     1       3.539  -0.337  -2.058  1.00  0.00     0.017 A 
HETATM    3  C   UNL     1       4.185  -1.156  -2.979  1.00  0.00     0.003 A 
HETATM    4  C   UNL     1       4.042  -2.544  -2.898  1.00  0.00     0.023 A 
HETATM    5  C   UNL     1       3.275  -3.146  -1.888  1.00  0.00     0.009 A 
HETATM    6  C   UNL     1       2.589  -2.307  -1.002  1.00  0.00     0.040 A 
ENDROOT
BRANCH   5   7
HETATM    7  N   UNL     1       3.123  -4.538  -1.912  1.00  0.00    -0.286 NA
HETATM    8  H   UNL     1       3.929  -4.987  -2.349  1.00  0.00     0.128 HD
BRANCH   7   9
HETATM    9  C   UNL     1       2.790  -5.233  -0.668  1.00  0.00     0.171 C 
BRANCH   9  10
HETATM   10  C   UNL     1       2.958  -6.716  -0.797  1.00  0.00     0.117 A 
HETATM   11  N   UNL     1       4.076  -7.400  -0.659  1.00  0.00    -0.232 NA
HETATM   12  C   UNL     1       3.759  -8.712  -0.935  1.00  0.00     0.084 A 
HETATM   13  C   UNL     1       2.421  -8.818  -1.247  1.00  0.00     0.122 A 
HETATM   14  N   UNL     1       1.928  -7.543  -1.168  1.00  0.00    -0.351 N 
HETATM   15  H   UNL     1       0.983  -7.248  -1.374  1.00  0.00     0.166 HD
BRANCH  12  16
HETATM   16  C   UNL     1       4.743  -9.783  -0.906  1.00  0.00    -0.003 A 
HETATM   17  C   UNL     1       6.075  -9.479  -0.612  1.00  0.00     0.033 A 
HETATM   18  C   UNL     1       7.007 -10.503  -0.597  1.00  0.00     0.117 A 
HETATM   19  N   UNL     1       6.707 -11.793  -0.851  1.00  0.00    -0.273 NA
HETATM   20  C   UNL     1       5.416 -12.068  -1.131  1.00  0.00     0.117 A 
HETATM   21  C   UNL     1       4.411 -11.113  -1.170  1.00  0.00     0.033 A 
ENDBRANCH  12  16
ENDBRANCH   9  10
ENDBRANCH   7   9
ENDBRANCH   5   7
BRANCH   1  22
HETATM   22  C   UNL     1       1.995  -0.074  -0.088  1.00  0.00     0.251 C 
HETATM   23  O   UNL     1       0.915  -0.454   0.350  1.00  0.00    -0.268 OA
HETATM   24  N   UNL     1       2.609   1.102   0.286  1.00  0.00    -0.353 N 
HETATM   25  H   UNL     1       3.589   1.227   0.078  1.00  0.00     0.163 HD
BRANCH  24  26
HETATM   26  C   UNL     1       2.031   1.975   1.282  1.00  0.00     0.161 C 
BRANCH  26  27
HETATM   27  C   UNL     1       2.619   1.718   2.645  1.00  0.00    -0.041 A 
HETATM   28  C   UNL     1       3.718   2.456   3.107  1.00  0.00     0.009 A 
HETATM   29  C   UNL     1       4.257   2.205   4.371  1.00  0.00     0.001 A 
HETATM   30  C   UNL     1       3.708   1.212   5.180  1.00  0.00     0.000 A 
HETATM   31  C   UNL     1       2.624   0.464   4.726  1.00  0.00     0.001 A 
HETATM   32  C   UNL     1       2.085   0.712   3.464  1.00  0.00     0.009 A 
ENDBRANCH  26  27
ENDBRANCH  24  26
ENDBRANCH   1  22
TORSDOF 7
