REMARK  6 active torsions:
REMARK  status: ('A' for Active; 'I' for Inactive)
REMARK    1  A    between atoms: C_2  and  C_3 
REMARK    2  A    between atoms: C_4  and  O_5 
REMARK    3  A    between atoms: O_5  and  C_6 
REMARK    4  A    between atoms: C_6  and  C_7 
REMARK       I    between atoms: C_7  and  N_8 
REMARK    5  A    between atoms: N_8  and  N_9 
REMARK    6  A    between atoms: C_10  and  C_11 
ROOT
HETATM    1  C   UNL     1      -0.231   3.542  -1.857  1.00  0.00     0.261 C 
HETATM    2  N   UNL     1      -0.067   2.611  -2.875  1.00  0.00    -0.246 N 
HETATM    3  O   UNL     1      -1.242   4.195  -1.613  1.00  0.00    -0.269 OA
HETATM    4  H   UNL     1       0.836   2.146  -2.943  1.00  0.00     0.192 HD
ENDROOT
BRANCH   2   5
HETATM    5  N   UNL     1      -0.950   2.245  -3.855  1.00  0.00    -0.184 NA
HETATM    6  C   UNL     1      -2.182   2.637  -3.818  1.00  0.00     0.152 C 
BRANCH   6   7
HETATM    7  C   UNL     1      -3.076   2.228  -4.888  1.00  0.00     0.011 A 
HETATM    8  C   UNL     1      -4.485   2.476  -4.981  1.00  0.00     0.004 A 
HETATM    9  C   UNL     1      -4.936   1.886  -6.164  1.00  0.00     0.043 A 
HETATM   10  C   UNL     1      -5.425   3.139  -4.163  1.00  0.00     0.014 A 
HETATM   11  C   UNL     1      -6.276   1.923  -6.568  1.00  0.00     0.030 A 
HETATM   12  N   UNL     1      -3.844   1.314  -6.774  1.00  0.00    -0.364 N 
HETATM   13  C   UNL     1      -7.186   2.583  -5.737  1.00  0.00     0.002 A 
HETATM   14  C   UNL     1      -6.769   3.185  -4.552  1.00  0.00     0.001 A 
HETATM   15  H   UNL     1      -3.873   0.815  -7.652  1.00  0.00     0.165 HD
HETATM   16  C   UNL     1      -2.722   1.511  -6.016  1.00  0.00     0.102 A 
ENDBRANCH   6   7
ENDBRANCH   2   5
BRANCH   1  17
HETATM   17  C   UNL     1       1.060   3.756  -1.069  1.00  0.00     0.280 C 
BRANCH  17  18
HETATM   18  O   UNL     1       1.701   2.519  -0.765  1.00  0.00    -0.341 OA
BRANCH  18  19
HETATM   19  C   UNL     1       1.733   2.195   0.568  1.00  0.00     0.076 A 
HETATM   20  C   UNL     1       2.930   1.648   1.073  1.00  0.00    -0.021 A 
HETATM   21  C   UNL     1       2.994   1.347   2.446  1.00  0.00     0.010 A 
HETATM   22  C   UNL     1       1.888   1.535   3.277  1.00  0.00     0.001 A 
HETATM   23  C   UNL     1       0.696   2.021   2.751  1.00  0.00     0.003 A 
HETATM   24  C   UNL     1       0.615   2.345   1.397  1.00  0.00     0.037 A 
BRANCH  20  25
HETATM   25  C   UNL     1       4.131   1.437   0.160  1.00  0.00     0.013 C 
HETATM   26  C   UNL     1       4.988   0.216   0.518  1.00  0.00     0.015 C 
HETATM   27  C   UNL     1       4.996   2.699   0.119  1.00  0.00     0.015 C 
ENDBRANCH  20  25
ENDBRANCH  18  19
ENDBRANCH  17  18
ENDBRANCH   1  17
TORSDOF 6
