REMARK  6 active torsions:
REMARK  status: ('A' for Active; 'I' for Inactive)
REMARK    1  A    between atoms: O_2  and  C_3 
REMARK    2  A    between atoms: C_3  and  C_4 
REMARK    3  A    between atoms: C_7  and  C_8 
REMARK    4  A    between atoms: C_8  and  O_9 
REMARK    5  A    between atoms: O_9  and  C_10 
REMARK    6  A    between atoms: C_13  and  C_14 
ROOT
HETATM    1  C   UNL     1      -1.413  -7.253  -2.830  1.00  0.00     0.069 A 
HETATM    2  C   UNL     1      -0.652  -8.421  -2.886  1.00  0.00     0.037 A 
HETATM    3  C   UNL     1      -1.152  -9.561  -3.521  1.00  0.00     0.014 A 
HETATM    4  C   UNL     1      -2.427  -9.541  -4.092  1.00  0.00    -0.035 A 
HETATM    5  C   UNL     1      -3.213  -8.389  -3.982  1.00  0.00     0.014 A 
HETATM    6  C   UNL     1      -2.711  -7.250  -3.344  1.00  0.00     0.037 A 
ENDROOT
BRANCH   1   7
HETATM    7  O   UNL     1      -0.796  -6.178  -2.249  1.00  0.00    -0.347 OA
BRANCH   7   8
HETATM    8  C   UNL     1      -1.202  -4.898  -2.742  1.00  0.00     0.214 C 
BRANCH   8   9
HETATM    9  C   UNL     1      -0.054  -3.919  -2.622  1.00  0.00    -0.034 A 
HETATM   10  C   UNL     1       0.277  -3.088  -3.702  1.00  0.00     0.010 A 
HETATM   11  C   UNL     1       1.324  -2.169  -3.599  1.00  0.00     0.018 A 
HETATM   12  C   UNL     1       2.054  -2.058  -2.411  1.00  0.00     0.039 A 
HETATM   13  C   UNL     1       1.725  -2.879  -1.325  1.00  0.00     0.018 A 
HETATM   14  C   UNL     1       0.676  -3.799  -1.430  1.00  0.00     0.010 A 
BRANCH  12  15
HETATM   15  C   UNL     1       3.159  -1.060  -2.361  1.00  0.00     0.292 C 
HETATM   16  O   UNL     1       3.491  -0.374  -3.315  1.00  0.00    -0.259 OA
BRANCH  15  17
HETATM   17  O   UNL     1       3.718  -1.022  -1.126  1.00  0.00    -0.323 OA
HETATM   18  C   UNL     1       4.779  -0.073  -1.002  1.00  0.00     0.213 C 
ENDBRANCH  15  17
ENDBRANCH  12  15
ENDBRANCH   8   9
ENDBRANCH   7   8
ENDBRANCH   1   7
BRANCH   4  19
HETATM   19  C   UNL     1      -2.913 -10.694  -4.845  1.00  0.00     0.029 C 
HETATM   20  C   UNL     1      -3.568 -11.753  -4.350  1.00  0.00     0.045 A 
HETATM   21  C   UNL     1      -3.981 -12.873  -5.271  1.00  0.00     0.257 A 
HETATM   22  C   UNL     1      -4.011 -12.115  -3.002  1.00  0.00     0.006 A 
HETATM   23  O   UNL     1      -3.802 -12.951  -6.472  1.00  0.00    -0.267 OA
HETATM   24  N   UNL     1      -4.609 -13.796  -4.453  1.00  0.00    -0.322 N 
HETATM   25  C   UNL     1      -4.633 -13.364  -3.129  1.00  0.00     0.046 A 
HETATM   26  H   UNL     1      -4.993 -14.661  -4.800  1.00  0.00     0.169 HD
HETATM   27  C   UNL     1      -5.184 -14.037  -2.058  1.00  0.00     0.030 A 
HETATM   28  C   UNL     1      -5.107 -13.421  -0.808  1.00  0.00     0.002 A 
HETATM   29  C   UNL     1      -4.488 -12.165  -0.663  1.00  0.00     0.001 A 
HETATM   30  C   UNL     1      -3.934 -11.501  -1.765  1.00  0.00     0.015 A 
ENDBRANCH   4  19
TORSDOF 6
