REMARK  11 active torsions:
REMARK  status: ('A' for Active; 'I' for Inactive)
REMARK    1  A    between atoms: C_6  and  C_7 
REMARK    2  A    between atoms: C_7  and  C_8 
REMARK       I    between atoms: C_8  and  N_9 
REMARK    3  A    between atoms: N_9  and  C_10 
REMARK    4  A    between atoms: C_10  and  C_11 
REMARK    5  A    between atoms: C_11  and  N_12 
REMARK    6  A    between atoms: C_17  and  C_18 
REMARK    7  A    between atoms: C_21  and  C_22 
REMARK    8  A    between atoms: C_29  and  C_30 
REMARK    9  A    between atoms: C_30  and  O_31 
REMARK   10  A    between atoms: O_31  and  C_32 
REMARK   11  A    between atoms: C_32  and  C_33 
ROOT
HETATM    1  C   UNL     1       1.410   0.347  -1.557  1.00  0.00     0.071 C 
HETATM    2  C   UNL     1       2.871   0.491  -1.185  1.00  0.00     0.048 C 
HETATM    3  N   UNL     1       3.732   0.047  -2.166  1.00  0.00    -0.229 NA
HETATM    4  C   UNL     1       4.948   0.470  -2.127  1.00  0.00     0.170 C 
HETATM    5  N   UNL     1       5.617   1.203  -0.902  1.00  0.00    -0.319 N 
HETATM    6  C   UNL     1       6.819   1.583  -1.216  1.00  0.00     0.011 C 
HETATM    7  C   UNL     1       4.770   1.035   0.309  1.00  0.00     0.166 C 
HETATM    8  S   UNL     1       6.050   0.285  -3.448  1.00  0.00    -0.086 SA
HETATM    9  C   UNL     1       7.160   1.498  -2.692  1.00  0.00     0.135 C 
HETATM   10  C   UNL     1       3.325   1.106  -0.070  1.00  0.00     0.069 C 
ENDROOT
BRANCH   6  11
HETATM   11  C   UNL     1       7.848   2.058  -0.233  1.00  0.00     0.156 C 
BRANCH  11  12
HETATM   12  C   UNL     1       7.987   3.562  -0.103  1.00  0.00     0.223 C 
HETATM   13  N   UNL     1       9.034   3.949   0.700  1.00  0.00    -0.359 N 
HETATM   14  H   UNL     1       9.505   3.218   1.229  1.00  0.00     0.162 HD
HETATM   15  O   UNL     1       7.241   4.355  -0.668  1.00  0.00    -0.273 OA
BRANCH  13  16
HETATM   16  C   UNL     1       9.277   5.304   1.198  1.00  0.00     0.150 C 
BRANCH  16  17
HETATM   17  C   UNL     1       9.385   6.430   0.148  1.00  0.00     0.253 C 
BRANCH  17  18
HETATM   18  N   UNL     1       8.034   6.893  -0.363  1.00  0.00    -0.077 N 
HETATM   19  H   UNL     1       7.501   6.033  -0.602  1.00  0.00     0.279 HD
HETATM   20  C   UNL     1       7.231   7.663   0.649  1.00  0.00     0.269 C 
HETATM   21  C   UNL     1       8.169   7.683  -1.638  1.00  0.00     0.269 C 
ENDBRANCH  17  18
ENDBRANCH  16  17
ENDBRANCH  13  16
ENDBRANCH  11  12
ENDBRANCH   6  11
BRANCH   7  22
HETATM   22  C   UNL     1       5.233   1.785   1.542  1.00  0.00    -0.030 A 
HETATM   23  C   UNL     1       5.259   3.183   1.640  1.00  0.00     0.010 A 
HETATM   24  C   UNL     1       5.799   3.807   2.774  1.00  0.00     0.008 A 
HETATM   25  C   UNL     1       6.326   3.057   3.835  1.00  0.00    -0.055 A 
HETATM   26  C   UNL     1       6.234   1.664   3.769  1.00  0.00     0.008 A 
HETATM   27  C   UNL     1       5.694   1.039   2.645  1.00  0.00     0.010 A 
BRANCH  25  28
HETATM   28  C   UNL     1       6.940   3.752   5.041  1.00  0.00     0.010 C 
HETATM   29  C   UNL     1       5.981   3.742   6.231  1.00  0.00     0.015 C 
HETATM   30  C   UNL     1       8.296   3.152   5.436  1.00  0.00     0.015 C 
ENDBRANCH  25  28
ENDBRANCH   7  22
BRANCH  10  31
HETATM   31  C   UNL     1       2.417   2.086   0.546  1.00  0.00     0.294 C 
HETATM   32  O   UNL     1       1.681   1.893   1.485  1.00  0.00    -0.259 OA
BRANCH  31  33
HETATM   33  O   UNL     1       2.524   3.180  -0.245  1.00  0.00    -0.313 OA
BRANCH  33  34
HETATM   34  C   UNL     1       1.419   4.098  -0.222  1.00  0.00     0.217 C 
BRANCH  34  35
HETATM   35  C   UNL     1       1.428   4.824  -1.551  1.00  0.00    -0.034 A 
HETATM   36  C   UNL     1       1.542   4.114  -2.759  1.00  0.00     0.009 A 
HETATM   37  C   UNL     1       1.523   4.773  -3.990  1.00  0.00     0.001 A 
HETATM   38  C   UNL     1       1.379   6.156  -4.032  1.00  0.00     0.000 A 
HETATM   39  C   UNL     1       1.248   6.874  -2.845  1.00  0.00     0.001 A 
HETATM   40  C   UNL     1       1.269   6.214  -1.612  1.00  0.00     0.009 A 
ENDBRANCH  34  35
ENDBRANCH  33  34
ENDBRANCH  31  33
ENDBRANCH  10  31
TORSDOF 11
