REMARK  4 active torsions:
REMARK  status: ('A' for Active; 'I' for Inactive)
REMARK    1  A    between atoms: C_6  and  N_7 
REMARK       I    between atoms: N_7  and  C_8 
REMARK    2  A    between atoms: C_8  and  C_9 
REMARK    3  A    between atoms: C_10  and  C_11 
REMARK    4  A    between atoms: C_14  and  O_15 
ROOT
HETATM    1  C   UNL     1       6.877  -2.645  -0.502  1.00  0.00     0.131 C 
HETATM    2  C   UNL     1       5.517  -2.618  -1.250  1.00  0.00     0.177 C 
HETATM    3  N   UNL     1       4.972  -3.977  -1.343  1.00  0.00    -0.088 N 
HETATM    4  C   UNL     1       5.683  -5.131  -1.130  1.00  0.00     0.721 A 
HETATM    5  N   UNL     1       6.972  -5.104  -0.724  1.00  0.00    -0.218 N 
HETATM    6  C   UNL     1       7.727  -3.867  -0.922  1.00  0.00     0.111 C 
HETATM    7  C   UNL     1       9.065  -3.950  -0.192  1.00  0.00     0.034 C 
HETATM    8  N   UNL     1       3.664  -4.248  -1.534  1.00  0.00    -0.149 NA
HETATM    9  C   UNL     1       3.676  -5.584  -1.511  1.00  0.00     0.275 A 
HETATM   10  N   UNL     1       4.892  -6.162  -1.264  1.00  0.00    -0.055 NA
HETATM   11  H   UNL     1       7.486  -5.971  -0.891  1.00  0.00     0.178 HD
ENDROOT
BRANCH   1  12
HETATM   12  C   UNL     1       6.603  -2.509   1.003  1.00  0.00     0.230 C 
HETATM   13  N   UNL     1       6.372  -3.688   1.670  1.00  0.00    -0.326 N 
HETATM   14  H   UNL     1       6.427  -4.519   1.081  1.00  0.00     0.169 HD
HETATM   15  O   UNL     1       6.529  -1.372   1.460  1.00  0.00    -0.273 OA
BRANCH  13  16
HETATM   16  C   UNL     1       6.057  -3.994   3.016  1.00  0.00     0.040 A 
HETATM   17  C   UNL     1       6.026  -3.139   4.131  1.00  0.00    -0.035 A 
HETATM   18  C   UNL     1       5.661  -3.675   5.392  1.00  0.00     0.015 A 
HETATM   19  C   UNL     1       6.362  -1.677   4.120  1.00  0.00     0.050 C 
HETATM   20  C   UNL     1       5.353  -5.028   5.571  1.00  0.00    -0.061 A 
HETATM   21  C   UNL     1       4.980  -5.570   6.918  1.00  0.00     0.048 C 
HETATM   22  C   UNL     1       5.410  -5.871   4.469  1.00  0.00     0.009 A 
HETATM   23  C   UNL     1       5.756  -5.359   3.217  1.00  0.00     0.030 A 
ENDBRANCH  13  16
ENDBRANCH   1  12
BRANCH   2  24
HETATM   24  C   UNL     1       5.525  -1.955  -2.637  1.00  0.00    -0.032 A 
HETATM   25  C   UNL     1       6.689  -1.614  -3.340  1.00  0.00     0.012 A 
HETATM   26  C   UNL     1       6.620  -1.020  -4.606  1.00  0.00     0.037 A 
HETATM   27  C   UNL     1       5.392  -0.755  -5.209  1.00  0.00     0.068 A 
HETATM   28  C   UNL     1       4.225  -1.061  -4.519  1.00  0.00     0.037 A 
HETATM   29  C   UNL     1       4.293  -1.647  -3.248  1.00  0.00     0.012 A 
BRANCH  27  30
HETATM   30  O   UNL     1       5.471  -0.189  -6.451  1.00  0.00    -0.356 OA
HETATM   31  C   UNL     1       4.262  -0.125  -7.198  1.00  0.00     0.210 C 
ENDBRANCH  27  30
ENDBRANCH   2  24
TORSDOF 4
