REMARK  3 active torsions:
REMARK  status: ('A' for Active; 'I' for Inactive)
REMARK    1  A    between atoms: C_2  and  N_3 
REMARK    2  A    between atoms: C_7  and  N_8 
REMARK    3  A    between atoms: N_8  and  C_9 
ROOT
HETATM    1  N   UNL     1       1.265   2.471  -0.278  1.00  0.00    -0.230 N 
HETATM    2  C   UNL     1       0.634   3.657   0.097  1.00  0.00     0.335 A 
HETATM    3  O   UNL     1      -0.488   3.776   0.590  1.00  0.00    -0.246 OA
HETATM    4  N   UNL     1       1.350   4.813  -0.055  1.00  0.00    -0.294 N 
HETATM    5  C   UNL     1       2.642   4.917  -0.462  1.00  0.00     0.114 A 
HETATM    6  C   UNL     1       3.252   3.791  -0.838  1.00  0.00     0.123 A 
HETATM    7  C   UNL     1       2.560   2.488  -0.796  1.00  0.00     0.259 A 
HETATM    8  O   UNL     1       3.181   1.535  -1.267  1.00  0.00    -0.267 OA
HETATM    9  H   UNL     1       0.861   5.639   0.261  1.00  0.00     0.172 HD
ENDROOT
BRANCH   5  10
HETATM   10  N   UNL     1       3.223   6.165  -0.525  1.00  0.00    -0.342 N 
HETATM   11  H   UNL     1       2.556   6.931  -0.524  1.00  0.00     0.167 HD
BRANCH  10  12
HETATM   12  C   UNL     1       4.489   6.572  -0.044  1.00  0.00     0.036 A 
HETATM   13  C   UNL     1       4.941   7.858  -0.390  1.00  0.00     0.069 A 
HETATM   14  C   UNL     1       6.184   8.266   0.050  1.00  0.00     0.107 A 
HETATM   15  C   UNL     1       6.990   7.447   0.800  1.00  0.00     0.105 A 
HETATM   16  O   UNL     1       6.752   9.479  -0.187  1.00  0.00    -0.323 OA
HETATM   17  O   UNL     1       8.166   8.040   1.135  1.00  0.00    -0.323 OA
HETATM   18  C   UNL     1       6.600   6.175   1.146  1.00  0.00     0.042 A 
HETATM   19  C   UNL     1       8.006   9.331   0.512  1.00  0.00     0.352 A 
HETATM   20  C   UNL     1       5.341   5.737   0.713  1.00  0.00     0.032 A 
ENDBRANCH  10  12
ENDBRANCH   5  10
BRANCH   1  21
HETATM   21  C   UNL     1       0.563   1.209  -0.150  1.00  0.00     0.047 A 
HETATM   22  C   UNL     1      -0.839   1.128  -0.243  1.00  0.00     0.031 A 
HETATM   23  C   UNL     1      -1.517  -0.092  -0.112  1.00  0.00     0.021 A 
HETATM   24  C   UNL     1      -0.801  -1.261   0.114  1.00  0.00     0.011 A 
HETATM   25  C   UNL     1       0.583  -1.218   0.210  1.00  0.00     0.021 A 
HETATM   26 BR   UNL     1      -1.711  -2.907   0.289  1.00  0.00    -0.051 Br
HETATM   27  C   UNL     1       1.255   0.005   0.080  1.00  0.00     0.031 A 
ENDBRANCH   1  21
TORSDOF 3
