REMARK  5 active torsions:
REMARK  status: ('A' for Active; 'I' for Inactive)
REMARK    1  A    between atoms: C_4  and  C_5 
REMARK    2  A    between atoms: C_5  and  C_6 
REMARK    3  A    between atoms: C_6  and  C_7 
REMARK       I    between atoms: C_7  and  N_8 
REMARK    4  A    between atoms: N_8  and  C_9 
REMARK    5  A    between atoms: C_16  and  C_17 
REMARK       I    between atoms: C_17  and  N_18 
ROOT
HETATM    1  C   UNL     1       3.873   2.699   0.733  1.00  0.00     0.035 A 
HETATM    2  C   UNL     1       4.765   3.101   1.736  1.00  0.00     0.046 A 
HETATM    3  C   UNL     1       4.990   4.479   1.956  1.00  0.00     0.030 A 
HETATM    4  C   UNL     1       4.319   5.403   1.165  1.00  0.00     0.063 A 
HETATM    5  N   UNL     1       4.742   6.628   1.599  1.00  0.00    -0.277 N 
HETATM    6  H   UNL     1       4.463   7.535   1.243  1.00  0.00     0.189 HD
HETATM    7  N   UNL     1       5.624   6.586   2.611  1.00  0.00    -0.168 NA
HETATM    8  C   UNL     1       5.787   5.263   2.844  1.00  0.00     0.156 A 
HETATM    9  C   UNL     1       3.421   5.038   0.161  1.00  0.00     0.034 A 
HETATM   10  C   UNL     1       3.211   3.667  -0.034  1.00  0.00     0.032 A 
ENDROOT
BRANCH   1  11
HETATM   11  N   UNL     1       3.601   1.351   0.421  1.00  0.00    -0.326 N 
HETATM   12  C   UNL     1       4.174   0.226   0.974  1.00  0.00     0.231 C 
HETATM   13  O   UNL     1       4.974   0.168   1.894  1.00  0.00    -0.272 OA
HETATM   14  H   UNL     1       2.932   1.188  -0.319  1.00  0.00     0.169 HD
BRANCH  12  15
HETATM   15  C   UNL     1       3.708  -1.050   0.309  1.00  0.00     0.045 A 
HETATM   16  C   UNL     1       2.295  -1.512   0.679  1.00  0.00     0.020 A 
HETATM   17  C   UNL     1       3.475  -2.274   1.191  1.00  0.00     0.020 A 
BRANCH  15  18
HETATM   18  C   UNL     1       4.167  -1.288  -1.127  1.00  0.00     0.057 C 
BRANCH  18  19
HETATM   19  C   UNL     1       5.486  -2.017  -1.269  1.00  0.00    -0.057 A 
HETATM   20  C   UNL     1       6.589  -1.761  -0.445  1.00  0.00     0.007 A 
HETATM   21  C   UNL     1       7.807  -2.416  -0.655  1.00  0.00     0.001 A 
HETATM   22  C   UNL     1       7.945  -3.321  -1.703  1.00  0.00     0.000 A 
HETATM   23  C   UNL     1       6.865  -3.573  -2.544  1.00  0.00     0.001 A 
HETATM   24  C   UNL     1       5.647  -2.924  -2.331  1.00  0.00     0.007 A 
ENDBRANCH  18  19
ENDBRANCH  15  18
ENDBRANCH  12  15
ENDBRANCH   1  11
BRANCH   8  25
HETATM   25  C   UNL     1       6.691   4.785   3.900  1.00  0.00     0.270 C 
HETATM   26  N   UNL     1       7.323   5.785   4.589  1.00  0.00    -0.365 N 
HETATM   27  H   UNL     1       7.128   6.746   4.335  1.00  0.00     0.159 HD
HETATM   28  H   UNL     1       7.957   5.552   5.336  1.00  0.00     0.159 HD
HETATM   29  O   UNL     1       6.888   3.606   4.172  1.00  0.00    -0.266 OA
ENDBRANCH   8  25
TORSDOF 5
