REMARK  7 active torsions:
REMARK  status: ('A' for Active; 'I' for Inactive)
REMARK    1  A    between atoms: C_6  and  N_7 
REMARK       I    between atoms: N_7  and  C_8 
REMARK       I    between atoms: C_8  and  N_9 
REMARK    2  A    between atoms: N_9  and  C_10 
REMARK    3  A    between atoms: C_10  and  C_11 
REMARK    4  A    between atoms: C_11  and  C_12 
REMARK    5  A    between atoms: C_12  and  C_13 
REMARK    6  A    between atoms: C_13  and  O_14 
REMARK    7  A    between atoms: O_14  and  C_15 
ROOT
HETATM    1  C   UNL     1       5.419   2.398  -0.078  1.00  0.00     0.219 C 
ENDROOT
BRANCH   1   2
HETATM    2  N   UNL     1       6.850   2.300  -0.175  1.00  0.00    -0.332 N 
HETATM    3  C   UNL     1       7.490   1.186   0.272  1.00  0.00     0.321 C 
HETATM    4  N   UNL     1       8.841   1.135   0.122  1.00  0.00    -0.309 N 
HETATM    5  O   UNL     1       6.914   0.261   0.842  1.00  0.00    -0.247 OA
HETATM    6  H   UNL     1       9.246   0.406   0.696  1.00  0.00     0.170 HD
HETATM    7  H   UNL     1       7.388   3.154  -0.180  1.00  0.00     0.165 HD
BRANCH   4   8
HETATM    8  C   UNL     1       9.707   1.754  -0.797  1.00  0.00     0.036 A 
HETATM    9  C   UNL     1       9.281   2.427  -1.943  1.00  0.00     0.037 A 
HETATM   10  C   UNL     1      10.206   2.960  -2.862  1.00  0.00    -0.054 A 
HETATM   11  C   UNL     1      11.585   2.832  -2.611  1.00  0.00    -0.056 A 
HETATM   12  C   UNL     1       9.691   3.672  -4.084  1.00  0.00     0.049 C 
HETATM   13  C   UNL     1      12.615   3.374  -3.562  1.00  0.00     0.049 C 
HETATM   14  C   UNL     1      12.006   2.135  -1.471  1.00  0.00     0.009 A 
HETATM   15  C   UNL     1      11.077   1.596  -0.579  1.00  0.00     0.030 A 
ENDBRANCH   4   8
ENDBRANCH   1   2
BRANCH   1  16
HETATM   16  C   UNL     1       4.962   3.835   0.113  1.00  0.00    -0.085 C 
BRANCH  16  17
HETATM   17  C   UNL     1       4.570   5.068   0.276  1.00  0.00    -0.078 C 
BRANCH  17  18
HETATM   18  C   UNL     1       4.112   6.505   0.467  1.00  0.00     0.269 C 
BRANCH  18  19
HETATM   19  O   UNL     1       4.863   7.089   1.525  1.00  0.00    -0.337 OA
BRANCH  19  20
HETATM   20  C   UNL     1       4.603   8.406   1.843  1.00  0.00     0.099 A 
HETATM   21  C   UNL     1       3.674   9.273   1.227  1.00  0.00     0.100 A 
HETATM   22  C   UNL     1       3.592  10.594   1.732  1.00  0.00    -0.005 A 
HETATM   23  N   UNL     1       2.877   8.897   0.194  1.00  0.00    -0.257 NA
HETATM   24  C   UNL     1       2.685  11.491   1.148  1.00  0.00     0.015 A 
HETATM   25  C   UNL     1       4.400  11.017   2.799  1.00  0.00     0.014 A 
HETATM   26  C   UNL     1       1.882  11.084   0.094  1.00  0.00     0.020 A 
HETATM   27  C   UNL     1       2.014   9.787  -0.344  1.00  0.00     0.117 A 
HETATM   28  C   UNL     1       5.305  10.145   3.389  1.00  0.00     0.004 A 
HETATM   29  C   UNL     1       5.404   8.846   2.911  1.00  0.00     0.039 A 
ENDBRANCH  19  20
ENDBRANCH  18  19
ENDBRANCH  17  18
ENDBRANCH  16  17
ENDBRANCH   1  16
TORSDOF 7
