REMARK  3 active torsions:
REMARK  status: ('A' for Active; 'I' for Inactive)
REMARK    1  A    between atoms: N_8  and  C_9 
REMARK    2  A    between atoms: C_18  and  C_19 
REMARK    3  A    between atoms: C_19  and  C_20 
ROOT
HETATM    1  C   UNL     1       1.085  -0.497   0.786  1.00  0.00     0.069 C 
HETATM    2  C   UNL     1       2.527  -0.188   0.476  1.00  0.00     0.017 A 
HETATM    3  N   UNL     1       3.413  -1.246   0.609  1.00  0.00    -0.348 N 
HETATM    4  C   UNL     1       4.734  -1.145   0.284  1.00  0.00     0.119 A 
HETATM    5  C   UNL     1       5.255   0.021  -0.121  1.00  0.00     0.124 A 
HETATM    6  C   UNL     1       6.699  -0.195  -0.306  1.00  0.00     0.280 A 
HETATM    7  O   UNL     1       7.497   0.659  -0.648  1.00  0.00    -0.265 OA
HETATM    8  N   UNL     1       6.911  -1.548   0.004  1.00  0.00    -0.236 N 
HETATM    9  N   UNL     1       5.681  -2.150   0.343  1.00  0.00    -0.179 NA
HETATM   10  C   UNL     1       4.413   1.209  -0.256  1.00  0.00     0.199 A 
HETATM   11  O   UNL     1       4.861   2.286  -0.631  1.00  0.00    -0.287 OA
HETATM   12  C   UNL     1       2.946   1.043   0.084  1.00  0.00     0.020 A 
HETATM   13  H   UNL     1       3.041  -2.177   0.767  1.00  0.00     0.167 HD
HETATM   14  H   UNL     1       5.701  -2.567   1.274  1.00  0.00     0.155 HD
ENDROOT
BRANCH  12  15
HETATM   15  C   UNL     1       2.081   2.269  -0.110  1.00  0.00     0.085 C 
BRANCH  15  16
HETATM   16  C   UNL     1       1.865   3.083   1.154  1.00  0.00    -0.032 A 
HETATM   17  C   UNL     1       0.613   3.238   1.773  1.00  0.00     0.040 A 
HETATM   18 CL   UNL     1      -0.832   2.524   1.147  1.00  0.00    -0.084 Cl
HETATM   19  C   UNL     1       0.479   4.010   2.934  1.00  0.00     0.024 A 
HETATM   20  C   UNL     1       1.586   4.647   3.491  1.00  0.00     0.002 A 
HETATM   21  C   UNL     1       2.830   4.519   2.884  1.00  0.00     0.001 A 
HETATM   22  C   UNL     1       2.967   3.750   1.726  1.00  0.00     0.009 A 
ENDBRANCH  15  16
ENDBRANCH  12  15
BRANCH   8  23
HETATM   23  C   UNL     1       8.099  -2.310  -0.041  1.00  0.00     0.055 A 
HETATM   24  C   UNL     1       9.341  -1.708  -0.278  1.00  0.00     0.031 A 
HETATM   25  C   UNL     1      10.514  -2.469  -0.314  1.00  0.00     0.002 A 
HETATM   26  C   UNL     1      10.463  -3.845  -0.120  1.00  0.00     0.000 A 
HETATM   27  C   UNL     1       9.237  -4.463   0.111  1.00  0.00     0.002 A 
HETATM   28  C   UNL     1       8.065  -3.701   0.150  1.00  0.00     0.031 A 
ENDBRANCH   8  23
TORSDOF 3
