REMARK  10 active torsions:
REMARK  status: ('A' for Active; 'I' for Inactive)
REMARK    1  A    between atoms: C_2  and  C_3 
REMARK    2  A    between atoms: C_3  and  C_4 
REMARK    3  A    between atoms: C_4  and  N_5 
REMARK    4  A    between atoms: N_5  and  C_7 
REMARK    5  A    between atoms: C_7  and  C_8 
REMARK    6  A    between atoms: C_8  and  C_9 
REMARK    7  A    between atoms: C_9  and  N_10 
REMARK       I    between atoms: N_10  and  C_11 
REMARK    8  A    between atoms: C_11  and  C_12 
REMARK    9  A    between atoms: C_12  and  O_13 
REMARK   10  A    between atoms: N_14  and  C_15 
ROOT
HETATM    1  C   UNL     1       0.928   7.477   1.241  1.00  0.00     0.256 C 
HETATM    2  N   UNL     1       1.192   8.439   2.331  1.00  0.00    -0.254 N 
HETATM    3  C   UNL     1       0.624   9.705   2.304  1.00  0.00     0.330 C 
HETATM    4  O   UNL     1       0.598  10.506   3.238  1.00  0.00    -0.246 OA
HETATM    5  N   UNL     1       0.081  10.134   1.133  1.00  0.00    -0.308 N 
HETATM    6  C   UNL     1       0.017   9.423  -0.049  1.00  0.00     0.048 A 
HETATM    7  C   UNL     1       0.439   8.103  -0.060  1.00  0.00     0.034 A 
HETATM    8  C   UNL     1      -0.474  10.040  -1.201  1.00  0.00     0.030 A 
HETATM    9  C   UNL     1      -0.539   9.326  -2.395  1.00  0.00     0.002 A 
HETATM   10  C   UNL     1      -0.130   7.996  -2.430  1.00  0.00     0.001 A 
HETATM   11  C   UNL     1       0.346   7.383  -1.269  1.00  0.00     0.015 A 
HETATM   12  H   UNL     1      -0.287  11.078   1.179  1.00  0.00     0.170 HD
ENDROOT
BRANCH   1  13
HETATM   13  C   UNL     1       2.304   6.731   0.877  1.00  0.00     0.279 C 
HETATM   14  N   UNL     1       3.414   7.566   0.757  1.00  0.00    -0.356 N 
HETATM   15  H   UNL     1       3.281   8.480   1.189  1.00  0.00     0.162 HD
HETATM   16  O   UNL     1       2.347   5.540   0.554  1.00  0.00    -0.268 OA
BRANCH  14  17
HETATM   17  C   UNL     1       4.793   7.114   0.699  1.00  0.00     0.124 C 
BRANCH  17  18
HETATM   18  C   UNL     1       5.086   5.848  -0.108  1.00  0.00     0.047 C 
BRANCH  18  19
HETATM   19  C   UNL     1       4.543   5.916  -1.532  1.00  0.00     0.236 C 
BRANCH  19  20
HETATM   20  N   UNL     1       4.813   4.634  -2.313  1.00  0.00    -0.075 N 
HETATM   21  H   UNL     1       5.831   4.517  -2.387  1.00  0.00     0.279 HD
HETATM   22  C   UNL     1       4.290   3.400  -1.605  1.00  0.00     0.269 C 
BRANCH  20  23
HETATM   23  C   UNL     1       4.243   4.676  -3.720  1.00  0.00     0.234 C 
BRANCH  23  24
HETATM   24  C   UNL     1       4.804   5.806  -4.580  1.00  0.00     0.027 C 
BRANCH  24  25
HETATM   25  C   UNL     1       6.322   5.761  -4.751  1.00  0.00    -0.003 C 
HETATM   26  C   UNL     1       6.798   6.843  -5.709  1.00  0.00     0.005 C 
ENDBRANCH  24  25
ENDBRANCH  23  24
ENDBRANCH  20  23
ENDBRANCH  19  20
ENDBRANCH  18  19
ENDBRANCH  17  18
ENDBRANCH  14  17
ENDBRANCH   1  13
BRANCH   1  27
HETATM   27  O   UNL     1      -0.088   6.585   1.682  1.00  0.00    -0.359 OA
HETATM   28  H   UNL     1      -0.508   6.189   0.903  1.00  0.00     0.213 HD
ENDBRANCH   1  27
BRANCH   2  29
HETATM   29  C   UNL     1       1.902   7.992   3.519  1.00  0.00     0.042 A 
HETATM   30  C   UNL     1       1.960   6.638   3.893  1.00  0.00     0.030 A 
HETATM   31  C   UNL     1       2.707   6.216   5.000  1.00  0.00     0.002 A 
HETATM   32  C   UNL     1       3.418   7.138   5.758  1.00  0.00     0.000 A 
HETATM   33  C   UNL     1       3.377   8.483   5.411  1.00  0.00     0.002 A 
HETATM   34  C   UNL     1       2.630   8.902   4.305  1.00  0.00     0.030 A 
ENDBRANCH   2  29
TORSDOF 10
