REMARK  6 active torsions:
REMARK  status: ('A' for Active; 'I' for Inactive)
REMARK    1  A    between atoms: C_3  and  N_4 
REMARK       I    between atoms: N_4  and  C_5 
REMARK    2  A    between atoms: C_5  and  C_6 
REMARK    3  A    between atoms: C_14  and  N_15 
REMARK       I    between atoms: N_15  and  C_16 
REMARK       I    between atoms: C_16  and  N_17 
REMARK    4  A    between atoms: N_17  and  C_18 
REMARK    5  A    between atoms: C_18  and  C_19 
REMARK    6  A    between atoms: C_19  and  N_20 
ROOT
HETATM    1  N   UNL     1       2.233   1.067   1.931  1.00  0.00    -0.309 N 
HETATM    2  C   UNL     1       1.984  -0.092   1.266  1.00  0.00     0.321 C 
HETATM    3  N   UNL     1       2.777  -1.167   1.555  1.00  0.00    -0.337 N 
HETATM    4  O   UNL     1       1.098  -0.149   0.419  1.00  0.00    -0.247 OA
HETATM    5  H   UNL     1       1.780   1.860   1.487  1.00  0.00     0.170 HD
HETATM    6  H   UNL     1       3.706  -0.855   1.823  1.00  0.00     0.164 HD
ENDROOT
BRANCH   1   7
HETATM    7  C   UNL     1       2.999   1.353   3.076  1.00  0.00     0.036 A 
HETATM    8  C   UNL     1       3.382   0.402   4.016  1.00  0.00     0.032 A 
HETATM    9  C   UNL     1       4.157   0.768   5.123  1.00  0.00     0.032 A 
HETATM   10  C   UNL     1       4.563   2.091   5.320  1.00  0.00     0.041 A 
HETATM   11  C   UNL     1       4.144   3.070   4.398  1.00  0.00    -0.033 A 
HETATM   12  C   UNL     1       4.515   4.523   4.543  1.00  0.00     0.050 C 
HETATM   13  C   UNL     1       3.356   2.688   3.293  1.00  0.00     0.038 A 
BRANCH  10  14
HETATM   14  N   UNL     1       5.393   2.474   6.394  1.00  0.00    -0.321 N 
HETATM   15  C   UNL     1       5.858   1.705   7.449  1.00  0.00     0.279 C 
HETATM   16  O   UNL     1       5.541   0.541   7.672  1.00  0.00    -0.265 OA
HETATM   17  H   UNL     1       5.721   3.434   6.417  1.00  0.00     0.169 HD
BRANCH  15  18
HETATM   18  C   UNL     1       6.784   2.431   8.299  1.00  0.00     0.142 A 
HETATM   19  O   UNL     1       7.164   3.703   7.946  1.00  0.00    -0.317 OA
HETATM   20  C   UNL     1       8.047   4.131   8.885  1.00  0.00     0.143 A 
HETATM   21  C   UNL     1       8.236   3.167   9.846  1.00  0.00     0.027 A 
HETATM   22  C   UNL     1       7.422   2.071   9.470  1.00  0.00     0.045 A 
ENDBRANCH  15  18
ENDBRANCH  10  14
ENDBRANCH   1   7
BRANCH   3  23
HETATM   23  C   UNL     1       2.757  -2.353   0.699  1.00  0.00     0.108 C 
HETATM   24  C   UNL     1       3.900  -3.290   1.089  1.00  0.00     0.034 C 
BRANCH  23  25
HETATM   25  C   UNL     1       1.386  -3.080   0.555  1.00  0.00     0.259 C 
BRANCH  25  26
HETATM   26  N   UNL     1       0.658  -3.522   1.815  1.00  0.00    -0.069 N 
HETATM   27  H   UNL     1      -0.173  -3.992   1.431  1.00  0.00     0.280 HD
HETATM   28  C   UNL     1       1.353  -4.555   2.657  1.00  0.00     0.239 C 
HETATM   29  C   UNL     1       0.338  -5.174   3.622  1.00  0.00     0.007 C 
HETATM   30  C   UNL     1      -0.318  -4.089   4.487  1.00  0.00     0.007 C 
HETATM   31  C   UNL     1       1.010  -6.230   4.498  1.00  0.00     0.011 C 
HETATM   32  C   UNL     1      -0.922  -2.978   3.630  1.00  0.00     0.028 C 
HETATM   33  C   UNL     1       0.093  -2.397   2.650  1.00  0.00     0.235 C 
ENDBRANCH  25  26
ENDBRANCH  23  25
ENDBRANCH   3  23
TORSDOF 6
