REMARK  8 active torsions:
REMARK  status: ('A' for Active; 'I' for Inactive)
REMARK    1  A    between atoms: C_4  and  C_5 
REMARK    2  A    between atoms: C_9  and  C_10 
REMARK       I    between atoms: C_10  and  N_11 
REMARK    3  A    between atoms: N_11  and  C_12 
REMARK    4  A    between atoms: C_12  and  C_13 
REMARK    5  A    between atoms: C_13  and  C_14 
REMARK    6  A    between atoms: C_14  and  C_15 
REMARK    7  A    between atoms: C_15  and  O_16 
REMARK    8  A    between atoms: O_16  and  C_17 
ROOT
HETATM    1  C   UNL     1       6.719  -2.206   0.267  1.00  0.00     0.270 C 
HETATM    2  N   UNL     1       5.929  -2.750  -0.715  1.00  0.00    -0.345 N 
HETATM    3  O   UNL     1       6.411  -2.209   1.454  1.00  0.00    -0.266 OA
HETATM    4  H   UNL     1       6.300  -2.863  -1.645  1.00  0.00     0.163 HD
ENDROOT
BRANCH   2   5
HETATM    5  C   UNL     1       4.665  -3.368  -0.418  1.00  0.00     0.217 C 
BRANCH   5   6
HETATM    6  C   UNL     1       4.802  -4.882  -0.428  1.00  0.00    -0.085 C 
BRANCH   6   7
HETATM    7  C   UNL     1       4.920  -6.180  -0.436  1.00  0.00    -0.078 C 
BRANCH   7   8
HETATM    8  C   UNL     1       5.057  -7.694  -0.445  1.00  0.00     0.269 C 
BRANCH   8   9
HETATM    9  O   UNL     1       6.251  -8.066   0.231  1.00  0.00    -0.337 OA
BRANCH   9  10
HETATM   10  C   UNL     1       6.516  -9.415   0.354  1.00  0.00     0.099 A 
HETATM   11  C   UNL     1       5.767 -10.490  -0.176  1.00  0.00     0.100 A 
HETATM   12  C   UNL     1       6.243 -11.799   0.085  1.00  0.00    -0.005 A 
HETATM   13  N   UNL     1       4.637 -10.322  -0.910  1.00  0.00    -0.257 NA
HETATM   14  C   UNL     1       5.530 -12.896  -0.420  1.00  0.00     0.015 A 
HETATM   15  C   UNL     1       7.409 -12.012   0.837  1.00  0.00     0.014 A 
HETATM   16  C   UNL     1       4.378 -12.699  -1.166  1.00  0.00     0.020 A 
HETATM   17  C   UNL     1       3.975 -11.401  -1.382  1.00  0.00     0.117 A 
HETATM   18  C   UNL     1       8.129 -10.938   1.344  1.00  0.00     0.004 A 
HETATM   19  C   UNL     1       7.683  -9.646   1.101  1.00  0.00     0.039 A 
ENDBRANCH   9  10
ENDBRANCH   8   9
ENDBRANCH   7   8
ENDBRANCH   6   7
ENDBRANCH   5   6
ENDBRANCH   2   5
BRANCH   1  20
HETATM   20  C   UNL     1       7.941  -1.610  -0.199  1.00  0.00     0.120 A 
HETATM   21  N   UNL     1       8.905  -1.179   0.668  1.00  0.00    -0.272 N 
HETATM   22  N   UNL     1       9.977  -0.633   0.074  1.00  0.00    -0.174 NA
HETATM   23  H   UNL     1       8.879  -1.235   1.682  1.00  0.00     0.189 HD
HETATM   24  C   UNL     1       9.691  -0.668  -1.237  1.00  0.00     0.089 A 
HETATM   25  C   UNL     1       8.431  -1.294  -1.450  1.00  0.00     0.071 A 
BRANCH  24  26
HETATM   26  C   UNL     1      10.602  -0.111  -2.242  1.00  0.00    -0.006 A 
HETATM   27  C   UNL     1      11.969   0.027  -1.961  1.00  0.00     0.014 A 
HETATM   28  C   UNL     1      12.844   0.555  -2.914  1.00  0.00     0.001 A 
HETATM   29  C   UNL     1      12.360   0.958  -4.157  1.00  0.00     0.000 A 
HETATM   30  C   UNL     1      11.004   0.834  -4.448  1.00  0.00     0.001 A 
HETATM   31  C   UNL     1      10.129   0.302  -3.496  1.00  0.00     0.014 A 
ENDBRANCH  24  26
ENDBRANCH   1  20
TORSDOF 8
