REMARK  2 active torsions:
REMARK  status: ('A' for Active; 'I' for Inactive)
REMARK    1  A    between atoms: C_4  and  C_5 
REMARK    2  A    between atoms: C_11  and  C_12 
ROOT
HETATM    1  C   UNL     1       2.700   0.118  -0.544  1.00  0.00     0.098 A 
HETATM    2  N   UNL     1       3.359   1.289  -0.667  1.00  0.00    -0.172 NA
HETATM    3  N   UNL     1       4.659   0.965  -0.619  1.00  0.00    -0.261 N 
HETATM    4  H   UNL     1       5.344   1.709  -0.686  1.00  0.00     0.191 HD
HETATM    5  C   UNL     1       4.862  -0.366  -0.462  1.00  0.00     0.133 A 
HETATM    6  C   UNL     1       3.627  -0.962  -0.427  1.00  0.00     0.028 A 
HETATM    7  C   UNL     1       3.497  -2.430  -0.229  1.00  0.00     0.067 C 
HETATM    8  C   UNL     1       4.834  -3.154  -0.472  1.00  0.00     0.117 C 
HETATM    9  C   UNL     1       6.095  -2.361  -0.137  1.00  0.00     0.224 C 
HETATM   10  O   UNL     1       7.151  -2.923   0.153  1.00  0.00    -0.273 OA
HETATM   11  N   UNL     1       6.064  -0.997  -0.299  1.00  0.00    -0.312 N 
HETATM   12  H   UNL     1       6.936  -0.495  -0.181  1.00  0.00     0.170 HD
ENDROOT
BRANCH   7  13
HETATM   13  C   UNL     1       2.939  -2.690   1.163  1.00  0.00    -0.046 A 
HETATM   14  C   UNL     1       2.004  -3.736   1.311  1.00  0.00     0.047 A 
HETATM   15  C   UNL     1       1.516  -4.017   2.569  1.00  0.00     0.105 A 
HETATM   16  C   UNL     1       1.913  -3.308   3.675  1.00  0.00     0.105 A 
HETATM   17  O   UNL     1       0.623  -4.997   2.872  1.00  0.00    -0.323 OA
HETATM   18  O   UNL     1       1.315  -3.745   4.815  1.00  0.00    -0.323 OA
HETATM   19  C   UNL     1       2.828  -2.284   3.584  1.00  0.00     0.040 A 
HETATM   20  C   UNL     1       0.508  -4.824   4.300  1.00  0.00     0.352 A 
HETATM   21  C   UNL     1       3.353  -1.984   2.320  1.00  0.00     0.011 A 
ENDBRANCH   7  13
BRANCH   1  22
HETATM   22  C   UNL     1       1.236   0.099  -0.484  1.00  0.00    -0.005 A 
HETATM   23  C   UNL     1       0.484  -0.923  -1.074  1.00  0.00     0.014 A 
HETATM   24  C   UNL     1      -0.911  -0.926  -0.976  1.00  0.00     0.001 A 
HETATM   25  C   UNL     1      -1.569   0.099  -0.298  1.00  0.00     0.000 A 
HETATM   26  C   UNL     1      -0.835   1.132   0.278  1.00  0.00     0.001 A 
HETATM   27  C   UNL     1       0.558   1.132   0.184  1.00  0.00     0.014 A 
ENDBRANCH   1  22
TORSDOF 2
