REMARK  4 active torsions:
REMARK  status: ('A' for Active; 'I' for Inactive)
REMARK    1  A    between atoms: C_3  and  C_4 
REMARK       I    between atoms: C_4  and  N_5 
REMARK    2  A    between atoms: N_5  and  C_6 
REMARK    3  A    between atoms: C_13  and  C_14 
REMARK       I    between atoms: C_14  and  N_15 
REMARK    4  A    between atoms: C_23  and  O_24 
ROOT
HETATM    1  C   UNL     1       2.666   2.453  -0.090  1.00  0.00     0.280 C 
HETATM    2  N   UNL     1       3.790   3.256   0.003  1.00  0.00    -0.321 N 
HETATM    3  O   UNL     1       1.513   2.860  -0.169  1.00  0.00    -0.265 OA
HETATM    4  H   UNL     1       4.667   2.745   0.025  1.00  0.00     0.169 HD
ENDROOT
BRANCH   2   5
HETATM    5  C   UNL     1       3.861   4.662   0.049  1.00  0.00     0.036 A 
HETATM    6  C   UNL     1       2.737   5.498   0.091  1.00  0.00     0.046 A 
HETATM    7  C   UNL     1       2.910   6.899   0.142  1.00  0.00     0.030 A 
HETATM    8  C   UNL     1       4.199   7.416   0.140  1.00  0.00     0.063 A 
HETATM    9  C   UNL     1       2.054   8.041   0.204  1.00  0.00     0.156 A 
HETATM   10  N   UNL     1       4.046   8.773   0.187  1.00  0.00    -0.277 N 
HETATM   11  C   UNL     1       5.341   6.615   0.099  1.00  0.00     0.034 A 
HETATM   12  H   UNL     1       4.778   9.474   0.196  1.00  0.00     0.189 HD
HETATM   13  N   UNL     1       2.769   9.189   0.229  1.00  0.00    -0.168 NA
HETATM   14  C   UNL     1       5.143   5.228   0.059  1.00  0.00     0.032 A 
BRANCH   9  15
HETATM   15  C   UNL     1       0.585   8.058   0.245  1.00  0.00     0.270 C 
HETATM   16  N   UNL     1       0.043   9.314   0.304  1.00  0.00    -0.365 N 
HETATM   17  H   UNL     1       0.668  10.111   0.323  1.00  0.00     0.159 HD
HETATM   18  H   UNL     1      -0.957   9.423   0.349  1.00  0.00     0.159 HD
HETATM   19  O   UNL     1      -0.128   7.061   0.234  1.00  0.00    -0.266 OA
ENDBRANCH   9  15
ENDBRANCH   2   5
BRANCH   1  20
HETATM   20  C   UNL     1       2.995   1.034  -0.099  1.00  0.00     0.150 A 
HETATM   21  C   UNL     1       2.216  -0.105  -0.261  1.00  0.00    -0.009 A 
HETATM   22  C   UNL     1       0.751  -0.185  -0.496  1.00  0.00     0.052 C 
HETATM   23  C   UNL     1       3.110  -1.216  -0.148  1.00  0.00     0.009 A 
HETATM   24  C   UNL     1       4.375  -0.685   0.066  1.00  0.00     0.120 A 
HETATM   25  C   UNL     1       2.972  -2.614  -0.203  1.00  0.00     0.015 A 
HETATM   26  O   UNL     1       4.307   0.676   0.087  1.00  0.00    -0.301 OA
HETATM   27  C   UNL     1       5.540  -1.444   0.240  1.00  0.00     0.102 A 
HETATM   28  C   UNL     1       5.370  -2.835   0.178  1.00  0.00     0.040 A 
HETATM   29  C   UNL     1       4.112  -3.410  -0.038  1.00  0.00     0.004 A 
BRANCH  27  30
HETATM   30  O   UNL     1       6.719  -0.785   0.446  1.00  0.00    -0.353 OA
HETATM   31  C   UNL     1       7.856  -1.584   0.744  1.00  0.00     0.210 C 
ENDBRANCH  27  30
ENDBRANCH   1  20
TORSDOF 4
