REMARK  8 active torsions:
REMARK  status: ('A' for Active; 'I' for Inactive)
REMARK    1  A    between atoms: N_2  and  C_4 
REMARK    2  A    between atoms: N_2  and  C_27 
REMARK    3  A    between atoms: C_4  and  C_5 
REMARK    4  A    between atoms: C_8  and  C_9 
REMARK    5  A    between atoms: C_9  and  N_10 
REMARK       I    between atoms: N_10  and  C_11 
REMARK    6  A    between atoms: C_11  and  C_12 
REMARK    7  A    between atoms: C_27  and  C_28 
REMARK    8  A    between atoms: C_28  and  C_29 
ROOT
HETATM    1  C   UNL     1       2.489  -0.674   2.324  1.00  0.00     0.041 C 
HETATM    2  C   UNL     1       1.633   0.327   3.159  1.00  0.00    -0.004 C 
HETATM    3  C   UNL     1       1.648  -0.078   4.656  1.00  0.00     0.040 C 
HETATM    4  C   UNL     1       0.892  -1.405   4.857  1.00  0.00     0.206 C 
HETATM    5  N   UNL     1       0.747  -2.020   3.467  1.00  0.00    -0.065 N 
HETATM    6  H   UNL     1       0.437  -3.006   3.587  1.00  0.00     0.280 HD
HETATM    7  C   UNL     1       2.053  -2.097   2.702  1.00  0.00     0.242 C 
HETATM    8  C   UNL     1       0.173   0.214   2.649  1.00  0.00     0.032 C 
HETATM    9  C   UNL     1      -0.293  -1.249   2.683  1.00  0.00     0.236 C 
ENDROOT
BRANCH   4  10
HETATM   10  C   UNL     1       1.548  -2.359   5.886  1.00  0.00     0.156 C 
BRANCH  10  11
HETATM   11  N   UNL     1       0.774  -3.565   6.162  1.00  0.00    -0.355 N 
HETATM   12  C   UNL     1       0.720  -4.628   5.286  1.00  0.00     0.251 C 
HETATM   13  O   UNL     1       1.168  -4.547   4.145  1.00  0.00    -0.268 OA
HETATM   14  H   UNL     1       0.536  -3.754   7.134  1.00  0.00     0.162 HD
BRANCH  12  15
HETATM   15  C   UNL     1       0.063  -5.867   5.766  1.00  0.00     0.034 A 
HETATM   16  C   UNL     1      -1.065  -5.808   6.594  1.00  0.00     0.056 A 
HETATM   17  C   UNL     1      -1.646  -7.005   6.956  1.00  0.00     0.106 A 
HETATM   18  C   UNL     1      -1.149  -8.215   6.536  1.00  0.00     0.105 A 
HETATM   19  O   UNL     1      -2.753  -7.140   7.733  1.00  0.00    -0.323 OA
HETATM   20  O   UNL     1      -1.877  -9.263   7.001  1.00  0.00    -0.323 OA
HETATM   21  C   UNL     1      -0.041  -8.303   5.721  1.00  0.00     0.041 A 
HETATM   22  C   UNL     1      -2.905  -8.579   7.749  1.00  0.00     0.352 A 
HETATM   23  C   UNL     1       0.569  -7.108   5.324  1.00  0.00     0.020 A 
ENDBRANCH  12  15
ENDBRANCH  10  11
ENDBRANCH   4  10
BRANCH   1  24
HETATM   24  C   UNL     1       4.005  -0.428   2.472  1.00  0.00     0.241 C 
BRANCH  24  25
HETATM   25  N   UNL     1       4.878  -1.334   1.633  1.00  0.00    -0.074 N 
HETATM   26  C   UNL     1       6.324  -1.248   2.081  1.00  0.00     0.269 C 
HETATM   27  H   UNL     1       4.615  -2.333   1.778  1.00  0.00     0.279 HD
BRANCH  25  28
HETATM   28  C   UNL     1       4.748  -1.145   0.121  1.00  0.00     0.240 C 
BRANCH  28  29
HETATM   29  C   UNL     1       5.313  -2.331  -0.674  1.00  0.00     0.087 C 
BRANCH  29  30
HETATM   30  C   UNL     1       4.720  -3.672  -0.298  1.00  0.00     0.035 A 
HETATM   31  N   UNL     1       4.206  -3.815   0.961  1.00  0.00    -0.266 NA
HETATM   32  C   UNL     1       3.759  -5.058   1.293  1.00  0.00     0.117 A 
HETATM   33  C   UNL     1       3.792  -6.150   0.445  1.00  0.00     0.019 A 
HETATM   34  C   UNL     1       4.323  -5.977  -0.826  1.00  0.00     0.003 A 
HETATM   35  C   UNL     1       4.801  -4.727  -1.204  1.00  0.00     0.027 A 
ENDBRANCH  29  30
ENDBRANCH  28  29
ENDBRANCH  25  28
ENDBRANCH  24  25
ENDBRANCH   1  24
TORSDOF 8
