REMARK  10 active torsions:
REMARK  status: ('A' for Active; 'I' for Inactive)
REMARK       I    between atoms: C_2  and  N_3 
REMARK    1  A    between atoms: N_3  and  C_4 
REMARK    2  A    between atoms: C_6  and  O_7 
REMARK    3  A    between atoms: O_7  and  C_8 
REMARK    4  A    between atoms: C_8  and  C_9 
REMARK    5  A    between atoms: C_9  and  C_10 
REMARK    6  A    between atoms: C_10  and  C_11 
REMARK    7  A    between atoms: C_11  and  N_12 
REMARK       I    between atoms: N_12  and  C_13 
REMARK    8  A    between atoms: C_13  and  C_14 
REMARK    9  A    between atoms: C_18  and  C_19 
REMARK   10  A    between atoms: C_21  and  O_22 
ROOT
HETATM    1  N   UNL     1       5.757 -10.413  -0.632  1.00  0.00    -0.345 N 
HETATM    2  C   UNL     1       6.194 -11.684  -0.905  1.00  0.00     0.270 C 
HETATM    3  O   UNL     1       5.715 -12.676  -0.365  1.00  0.00    -0.266 OA
HETATM    4  H   UNL     1       6.193  -9.618  -1.073  1.00  0.00     0.163 HD
ENDROOT
BRANCH   1   5
HETATM    5  C   UNL     1       4.709 -10.180   0.325  1.00  0.00     0.217 C 
BRANCH   5   6
HETATM    6  C   UNL     1       4.482  -8.742   0.471  1.00  0.00    -0.085 C 
BRANCH   6   7
HETATM    7  C   UNL     1       4.276  -7.462   0.610  1.00  0.00    -0.078 C 
BRANCH   7   8
HETATM    8  C   UNL     1       4.037  -5.969   0.773  1.00  0.00     0.269 C 
BRANCH   8   9
HETATM    9  O   UNL     1       2.902  -5.752   1.607  1.00  0.00    -0.339 OA
BRANCH   9  10
HETATM   10  C   UNL     1       2.544  -4.442   1.802  1.00  0.00     0.072 A 
HETATM   11  C   UNL     1       3.191  -3.325   1.259  1.00  0.00     0.066 A 
HETATM   12  C   UNL     1       2.730  -2.031   1.521  1.00  0.00     0.037 A 
HETATM   13  C   UNL     1       1.609  -1.864   2.344  1.00  0.00     0.029 A 
HETATM   14  C   UNL     1       0.961  -2.972   2.892  1.00  0.00     0.005 A 
HETATM   15  C   UNL     1       1.429  -4.256   2.620  1.00  0.00     0.037 A 
BRANCH  12  16
HETATM   16  N   UNL     1       3.327  -0.862   0.998  1.00  0.00    -0.327 N 
HETATM   17  C   UNL     1       4.432  -0.778   0.170  1.00  0.00     0.218 C 
HETATM   18  C   UNL     1       4.778   0.646  -0.192  1.00  0.00     0.117 C 
HETATM   19  O   UNL     1       5.119  -1.707  -0.241  1.00  0.00    -0.274 OA
HETATM   20  H   UNL     1       2.891   0.011   1.266  1.00  0.00     0.169 HD
ENDBRANCH  12  16
ENDBRANCH   9  10
ENDBRANCH   8   9
ENDBRANCH   7   8
ENDBRANCH   6   7
ENDBRANCH   5   6
ENDBRANCH   1   5
BRANCH   2  21
HETATM   21  C   UNL     1       7.263 -11.774  -1.861  1.00  0.00     0.120 A 
HETATM   22  N   UNL     1       7.843 -12.970  -2.175  1.00  0.00    -0.272 N 
HETATM   23  H   UNL     1       7.597 -13.881  -1.799  1.00  0.00     0.189 HD
HETATM   24  N   UNL     1       8.846 -12.882  -3.061  1.00  0.00    -0.174 NA
HETATM   25  C   UNL     1       8.910 -11.577  -3.371  1.00  0.00     0.089 A 
HETATM   26  C   UNL     1       7.933 -10.848  -2.635  1.00  0.00     0.071 A 
BRANCH  25  27
HETATM   27  C   UNL     1       9.890 -11.059  -4.331  1.00  0.00    -0.003 A 
HETATM   28  C   UNL     1      11.061 -11.787  -4.608  1.00  0.00     0.050 A 
HETATM   29  C   UNL     1      12.011 -11.298  -5.507  1.00  0.00     0.069 A 
HETATM   30  C   UNL     1      11.787 -10.076  -6.142  1.00  0.00     0.037 A 
HETATM   31  C   UNL     1      10.628  -9.345  -5.885  1.00  0.00     0.004 A 
HETATM   32  C   UNL     1       9.683  -9.834  -4.981  1.00  0.00     0.014 A 
BRANCH  29  33
HETATM   33  O   UNL     1      13.187 -11.910  -5.847  1.00  0.00    -0.356 OA
HETATM   34  C   UNL     1      13.470 -13.150  -5.210  1.00  0.00     0.210 C 
ENDBRANCH  29  33
ENDBRANCH  25  27
ENDBRANCH   2  21
TORSDOF 10
