REMARK  8 active torsions:
REMARK  status: ('A' for Active; 'I' for Inactive)
REMARK    1  A    between atoms: C_7  and  C_8 
REMARK    2  A    between atoms: C_10  and  O_11 
REMARK    3  A    between atoms: C_13  and  O_14 
REMARK    4  A    between atoms: O_14  and  C_15 
REMARK    5  A    between atoms: C_15  and  C_16 
REMARK       I    between atoms: C_16  and  N_17 
REMARK    6  A    between atoms: C_21  and  C_22 
REMARK       I    between atoms: C_22  and  N_23 
REMARK    7  A    between atoms: N_23  and  C_24 
REMARK    8  A    between atoms: C_24  and  C_25 
ROOT
HETATM    1  C   UNL     1       0.951   0.304  -0.402  1.00  0.00     0.069 C 
HETATM    2  C   UNL     1       2.410   0.160  -0.080  1.00  0.00     0.024 C 
HETATM    3  N   UNL     1       3.031   1.312   0.351  1.00  0.00    -0.312 N 
HETATM    4  C   UNL     1       4.376   1.470   0.506  1.00  0.00     0.321 C 
HETATM    5  O   UNL     1       4.865   2.540   0.850  1.00  0.00    -0.247 OA
HETATM    6  N   UNL     1       5.145   0.388   0.233  1.00  0.00    -0.330 N 
HETATM    7  C   UNL     1       4.637  -0.960   0.051  1.00  0.00     0.160 C 
HETATM    8  C   UNL     1       3.158  -0.951  -0.223  1.00  0.00     0.059 C 
HETATM    9  H   UNL     1       2.496   2.162   0.479  1.00  0.00     0.170 HD
HETATM   10  H   UNL     1       6.136   0.518   0.379  1.00  0.00     0.165 HD
ENDROOT
BRANCH   7  11
HETATM   11  C   UNL     1       5.013  -1.805   1.262  1.00  0.00    -0.028 A 
HETATM   12  C   UNL     1       4.643  -1.421   2.565  1.00  0.00     0.049 A 
HETATM   13  C   UNL     1       5.021  -2.167   3.693  1.00  0.00     0.102 A 
HETATM   14  C   UNL     1       5.755  -3.350   3.508  1.00  0.00     0.102 A 
HETATM   15  C   UNL     1       6.122  -3.736   2.211  1.00  0.00     0.040 A 
HETATM   16  C   UNL     1       5.755  -2.978   1.098  1.00  0.00     0.012 A 
BRANCH  13  17
HETATM   17  O   UNL     1       4.696  -1.791   4.968  1.00  0.00    -0.353 OA
HETATM   18  C   UNL     1       4.303  -0.439   5.181  1.00  0.00     0.210 C 
ENDBRANCH  13  17
BRANCH  14  19
HETATM   19  O   UNL     1       6.227  -4.214   4.463  1.00  0.00    -0.339 OA
BRANCH  19  20
HETATM   20  C   UNL     1       5.661  -4.152   5.769  1.00  0.00     0.278 C 
BRANCH  20  21
HETATM   21  C   UNL     1       6.121  -5.354   6.593  1.00  0.00     0.239 C 
HETATM   22  N   UNL     1       7.284  -5.943   6.184  1.00  0.00    -0.368 N 
HETATM   23  H   UNL     1       7.663  -5.720   5.271  1.00  0.00     0.159 HD
HETATM   24  H   UNL     1       7.589  -6.779   6.661  1.00  0.00     0.159 HD
HETATM   25  O   UNL     1       5.533  -5.752   7.594  1.00  0.00    -0.271 OA
ENDBRANCH  20  21
ENDBRANCH  19  20
ENDBRANCH  14  19
ENDBRANCH   7  11
BRANCH   8  26
HETATM   26  C   UNL     1       2.624  -2.231  -0.753  1.00  0.00     0.252 C 
HETATM   27  N   UNL     1       1.531  -2.724  -0.088  1.00  0.00    -0.353 N 
HETATM   28  H   UNL     1       1.285  -2.338   0.814  1.00  0.00     0.163 HD
HETATM   29  O   UNL     1       3.186  -2.805  -1.678  1.00  0.00    -0.268 OA
BRANCH  27  30
HETATM   30  C   UNL     1       0.964  -4.002  -0.459  1.00  0.00     0.161 C 
BRANCH  30  31
HETATM   31  C   UNL     1      -0.470  -4.185  -0.023  1.00  0.00    -0.041 A 
HETATM   32  C   UNL     1      -1.360  -3.110   0.123  1.00  0.00     0.009 A 
HETATM   33  C   UNL     1      -2.695  -3.329   0.474  1.00  0.00     0.001 A 
HETATM   34  C   UNL     1      -3.165  -4.626   0.659  1.00  0.00     0.000 A 
HETATM   35  C   UNL     1      -2.302  -5.706   0.495  1.00  0.00     0.001 A 
HETATM   36  C   UNL     1      -0.965  -5.487   0.154  1.00  0.00     0.009 A 
ENDBRANCH  30  31
ENDBRANCH  27  30
ENDBRANCH   8  26
TORSDOF 8
