REMARK  5 active torsions:
REMARK  status: ('A' for Active; 'I' for Inactive)
REMARK    1  A    between atoms: C_8  and  N_9 
REMARK    2  A    between atoms: C_12  and  N_13 
REMARK    3  A    between atoms: N_13  and  C_15 
REMARK    4  A    between atoms: C_15  and  C_16 
REMARK    5  A    between atoms: C_20  and  C_21 
ROOT
HETATM    1  N   UNL     1       7.673  -5.249  -0.068  1.00  0.00    -0.065 N 
HETATM    2  H   UNL     1       7.822  -4.358   0.413  1.00  0.00     0.280 HD
HETATM    3  C   UNL     1       8.960  -5.585  -0.797  1.00  0.00     0.270 C 
ENDROOT
BRANCH   1   4
HETATM    4  C   UNL     1       6.476  -5.099  -1.033  1.00  0.00     0.191 C 
HETATM    5  C   UNL     1       5.132  -4.933  -0.308  1.00  0.00     0.053 C 
HETATM    6  C   UNL     1       4.972  -3.560   0.339  1.00  0.00     0.126 C 
HETATM    7  N   UNL     1       5.163  -2.529  -0.687  1.00  0.00    -0.366 N 
HETATM    8  C   UNL     1       6.472  -2.550  -1.347  1.00  0.00     0.126 C 
HETATM    9  C   UNL     1       6.679  -3.915  -2.001  1.00  0.00     0.053 C 
BRANCH   7  10
HETATM   10  C   UNL     1       4.688  -1.258  -0.338  1.00  0.00     0.129 A 
HETATM   11  N   UNL     1       4.420  -0.976   0.950  1.00  0.00    -0.218 NA
HETATM   12  C   UNL     1       3.881   0.235   1.240  1.00  0.00     0.102 A 
HETATM   13  N   UNL     1       3.595   1.153   0.307  1.00  0.00    -0.348 N 
HETATM   14  C   UNL     1       3.550   0.537   2.667  1.00  0.00     0.091 C 
HETATM   15  C   UNL     1       3.856   0.904  -0.985  1.00  0.00     0.010 A 
HETATM   16  H   UNL     1       3.168   2.035   0.587  1.00  0.00     0.167 HD
HETATM   17  C   UNL     1       3.502   1.931  -2.011  1.00  0.00     0.068 C 
HETATM   18  C   UNL     1       4.417  -0.325  -1.333  1.00  0.00     0.075 A 
ENDBRANCH   7  10
ENDBRANCH   1   4
BRANCH   1  19
HETATM   19  C   UNL     1       7.479  -6.280   1.064  1.00  0.00     0.295 C 
BRANCH  19  20
HETATM   20  C   UNL     1       7.275  -7.713   0.676  1.00  0.00     0.082 A 
HETATM   21  N   UNL     1       6.421  -8.052  -0.298  1.00  0.00    -0.177 NA
HETATM   22  N   UNL     1       6.480  -9.400  -0.333  1.00  0.00    -0.277 N 
HETATM   23  H   UNL     1       5.911  -9.900  -1.010  1.00  0.00     0.189 HD
HETATM   24  C   UNL     1       7.350  -9.940   0.578  1.00  0.00     0.062 A 
HETATM   25  C   UNL     1       7.893  -8.855   1.238  1.00  0.00     0.062 A 
BRANCH  24  26
HETATM   26  C   UNL     1       7.579 -11.376   0.719  1.00  0.00    -0.008 A 
HETATM   27  C   UNL     1       8.859 -11.864   1.014  1.00  0.00     0.014 A 
HETATM   28  C   UNL     1       9.085 -13.236   1.143  1.00  0.00     0.001 A 
HETATM   29  C   UNL     1       8.034 -14.136   0.985  1.00  0.00     0.000 A 
HETATM   30  C   UNL     1       6.755 -13.665   0.700  1.00  0.00     0.001 A 
HETATM   31  C   UNL     1       6.528 -12.292   0.567  1.00  0.00     0.014 A 
ENDBRANCH  24  26
ENDBRANCH  19  20
ENDBRANCH   1  19
TORSDOF 5
