REMARK  6 active torsions:
REMARK  status: ('A' for Active; 'I' for Inactive)
REMARK    1  A    between atoms: C_2  and  O_3 
REMARK    2  A    between atoms: O_3  and  C_4 
REMARK    3  A    between atoms: C_8  and  C_9 
REMARK    4  A    between atoms: C_9  and  N_10 
REMARK       I    between atoms: N_10  and  C_11 
REMARK       I    between atoms: C_11  and  N_12 
REMARK    5  A    between atoms: N_12  and  C_13 
REMARK    6  A    between atoms: C_14  and  C_15 
ROOT
HETATM    1  N   UNL     1      -2.021  -0.123   9.195  1.00  0.00    -0.339 N 
HETATM    2  C   UNL     1      -1.488   1.116   8.997  1.00  0.00     0.316 C 
HETATM    3  N   UNL     1      -1.358   1.902  10.100  1.00  0.00    -0.338 N 
HETATM    4  O   UNL     1      -1.141   1.540   7.898  1.00  0.00    -0.247 OA
HETATM    5  H   UNL     1      -1.927  -0.502  10.123  1.00  0.00     0.164 HD
HETATM    6  H   UNL     1      -0.960   2.809   9.884  1.00  0.00     0.164 HD
ENDROOT
BRANCH   1   7
HETATM    7  C   UNL     1      -2.053  -1.046   8.087  1.00  0.00     0.163 C 
BRANCH   7   8
HETATM    8  C   UNL     1      -2.836  -2.292   8.389  1.00  0.00    -0.035 A 
HETATM    9  C   UNL     1      -2.262  -3.554   8.218  1.00  0.00     0.028 A 
HETATM   10  C   UNL     1      -3.046  -4.676   8.434  1.00  0.00     0.120 A 
HETATM   11  N   UNL     1      -4.345  -4.627   8.793  1.00  0.00    -0.237 NA
HETATM   12  C   UNL     1      -4.889  -3.405   8.940  1.00  0.00     0.165 A 
HETATM   13  C   UNL     1      -4.180  -2.225   8.773  1.00  0.00     0.066 A 
BRANCH  12  14
HETATM   14  O   UNL     1      -6.203  -3.278   9.324  1.00  0.00    -0.324 OA
BRANCH  14  15
HETATM   15  C   UNL     1      -7.143  -4.296   8.929  1.00  0.00     0.058 C 
HETATM   16  C   UNL     1      -6.971  -5.606   9.711  1.00  0.00     0.045 C 
HETATM   17  C   UNL     1      -7.157  -4.530   7.410  1.00  0.00     0.045 C 
HETATM   18  C   UNL     1      -8.511  -3.702   9.320  1.00  0.00     0.045 C 
ENDBRANCH  14  15
ENDBRANCH  12  14
ENDBRANCH   7   8
ENDBRANCH   1   7
BRANCH   3  19
HETATM   19  C   UNL     1      -1.717   1.625  11.453  1.00  0.00     0.095 A 
HETATM   20  C   UNL     1      -3.144   1.703  11.955  1.00  0.00     0.043 A 
HETATM   21  C   UNL     1      -2.147   2.781  12.311  1.00  0.00     0.037 A 
BRANCH  20  22
HETATM   22  C   UNL     1      -3.640   0.804  13.066  1.00  0.00    -0.052 A 
HETATM   23  C   UNL     1      -4.225   1.349  14.224  1.00  0.00     0.007 A 
HETATM   24  C   UNL     1      -4.681   0.537  15.265  1.00  0.00     0.001 A 
HETATM   25  C   UNL     1      -4.571  -0.846  15.166  1.00  0.00     0.000 A 
HETATM   26  C   UNL     1      -4.014  -1.413  14.023  1.00  0.00     0.001 A 
HETATM   27  C   UNL     1      -3.559  -0.595  12.984  1.00  0.00     0.007 A 
ENDBRANCH  20  22
ENDBRANCH   3  19
TORSDOF 6
