REMARK  8 active torsions:
REMARK  status: ('A' for Active; 'I' for Inactive)
REMARK    1  A    between atoms: C_4  and  C_5 
REMARK    2  A    between atoms: C_5  and  C_6 
REMARK    3  A    between atoms: C_5  and  C_31 
REMARK       I    between atoms: C_6  and  N_7 
REMARK    4  A    between atoms: N_7  and  C_8 
REMARK    5  A    between atoms: C_8  and  N_9 
REMARK    6  A    between atoms: N_9  and  C_10 
REMARK    7  A    between atoms: C_13  and  N_14 
REMARK       I    between atoms: N_17  and  C_18 
REMARK    8  A    between atoms: C_18  and  C_19 
ROOT
HETATM    1  N   UNL     1       3.937  -2.219   0.987  1.00  0.00    -0.333 N 
HETATM    2  H   UNL     1       4.633  -1.631   1.449  1.00  0.00     0.168 HD
ENDROOT
BRANCH   1   3
HETATM    3  C   UNL     1       3.662  -3.364   1.696  1.00  0.00     0.178 C 
HETATM    4  S   UNL     1       2.615  -4.617   1.354  1.00  0.00    -0.040 SA
BRANCH   3   5
HETATM    5  N   UNL     1       4.325  -3.453   2.914  1.00  0.00    -0.303 N 
HETATM    6  C   UNL     1       5.210  -2.552   3.500  1.00  0.00     0.236 C 
HETATM    7  O   UNL     1       5.747  -1.644   2.860  1.00  0.00    -0.272 OA
HETATM    8  H   UNL     1       4.006  -4.227   3.483  1.00  0.00     0.171 HD
BRANCH   6   9
HETATM    9  C   UNL     1       5.467  -2.754   5.000  1.00  0.00     0.144 C 
BRANCH   9  10
HETATM   10  C   UNL     1       6.398  -3.908   5.372  1.00  0.00    -0.041 A 
HETATM   11  C   UNL     1       6.874  -3.978   6.697  1.00  0.00     0.008 A 
HETATM   12  C   UNL     1       7.719  -5.009   7.110  1.00  0.00     0.001 A 
HETATM   13  C   UNL     1       8.109  -5.989   6.204  1.00  0.00     0.000 A 
HETATM   14  C   UNL     1       7.662  -5.932   4.887  1.00  0.00     0.001 A 
HETATM   15  C   UNL     1       6.817  -4.898   4.470  1.00  0.00     0.008 A 
ENDBRANCH   9  10
BRANCH   9  16
HETATM   16  C   UNL     1       4.142  -2.712   5.767  1.00  0.00    -0.041 A 
HETATM   17  C   UNL     1       3.535  -1.465   6.001  1.00  0.00     0.008 A 
HETATM   18  C   UNL     1       2.299  -1.383   6.642  1.00  0.00     0.001 A 
HETATM   19  C   UNL     1       1.649  -2.543   7.053  1.00  0.00     0.000 A 
HETATM   20  C   UNL     1       2.234  -3.786   6.825  1.00  0.00     0.001 A 
HETATM   21  C   UNL     1       3.471  -3.874   6.184  1.00  0.00     0.008 A 
ENDBRANCH   9  16
ENDBRANCH   6   9
ENDBRANCH   3   5
ENDBRANCH   1   3
BRANCH   1  22
HETATM   22  C   UNL     1       3.420  -1.650  -0.195  1.00  0.00     0.034 A 
HETATM   23  C   UNL     1       2.566  -2.266  -1.103  1.00  0.00     0.031 A 
HETATM   24  C   UNL     1       2.100  -1.573  -2.236  1.00  0.00     0.026 A 
HETATM   25  C   UNL     1       2.460  -0.244  -2.482  1.00  0.00     0.010 A 
HETATM   26  C   UNL     1       3.331   0.359  -1.568  1.00  0.00     0.026 A 
HETATM   27  C   UNL     1       3.812  -0.331  -0.452  1.00  0.00     0.031 A 
BRANCH  25  28
HETATM   28  N   UNL     1       2.018   0.502  -3.579  1.00  0.00    -0.280 NA
HETATM   29  C   UNL     1       1.063   1.570  -3.208  1.00  0.00     0.115 C 
HETATM   30  C   UNL     1       0.927   2.582  -4.361  1.00  0.00     0.141 C 
HETATM   31  N   UNL     1       0.672   1.954  -5.667  1.00  0.00    -0.345 N 
HETATM   32  C   UNL     1       0.011   2.578  -6.733  1.00  0.00     0.260 C 
HETATM   33  C   UNL     1       1.485   0.766  -5.969  1.00  0.00     0.141 C 
HETATM   34  O   UNL     1      -0.136   1.995  -7.807  1.00  0.00    -0.267 OA
HETATM   35  C   UNL     1       1.588  -0.220  -4.792  1.00  0.00     0.115 C 
BRANCH  32  36
HETATM   36  C   UNL     1      -0.482   3.931  -6.530  1.00  0.00     0.072 A 
HETATM   37  S   UNL     1      -2.140   4.260  -6.805  1.00  0.00    -0.097 SA
HETATM   38  C   UNL     1      -1.943   5.914  -6.415  1.00  0.00     0.050 A 
HETATM   39  C   UNL     1      -0.637   6.221  -6.106  1.00  0.00     0.009 A 
HETATM   40  C   UNL     1       0.212   5.078  -6.187  1.00  0.00     0.025 A 
ENDBRANCH  32  36
ENDBRANCH  25  28
ENDBRANCH   1  22
TORSDOF 8
