REMARK  7 active torsions:
REMARK  status: ('A' for Active; 'I' for Inactive)
REMARK    1  A    between atoms: C_4  and  C_5 
REMARK    2  A    between atoms: C_9  and  C_10 
REMARK       I    between atoms: C_10  and  N_11 
REMARK    3  A    between atoms: N_11  and  N_12 
REMARK       I    between atoms: N_12  and  C_13 
REMARK    4  A    between atoms: C_13  and  C_14 
REMARK    5  A    between atoms: C_14  and  C_15 
REMARK    6  A    between atoms: C_15  and  N_16 
REMARK    7  A    between atoms: C_15  and  C_20 
REMARK       I    between atoms: N_16  and  C_17 
REMARK       I    between atoms: C_17  and  N_18 
ROOT
HETATM    1  N   UNL     1       4.742  -3.719  -1.622  1.00  0.00    -0.267 N 
HETATM    2  C   UNL     1       4.610  -4.742  -0.710  1.00  0.00     0.238 C 
HETATM    3  O   UNL     1       3.560  -4.963  -0.105  1.00  0.00    -0.272 OA
HETATM    4  H   UNL     1       5.512  -3.701  -2.302  1.00  0.00     0.190 HD
ENDROOT
BRANCH   1   5
HETATM    5  N   UNL     1       3.591  -2.980  -1.919  1.00  0.00    -0.262 N 
HETATM    6  C   UNL     1       3.665  -1.898  -2.769  1.00  0.00     0.288 C 
HETATM    7  O   UNL     1       4.677  -1.620  -3.407  1.00  0.00    -0.264 OA
HETATM    8  H   UNL     1       2.787  -3.163  -1.325  1.00  0.00     0.190 HD
BRANCH   6   9
HETATM    9  C   UNL     1       2.464  -1.110  -2.849  1.00  0.00     0.121 A 
HETATM   10  N   UNL     1       2.389   0.012  -3.625  1.00  0.00    -0.272 N 
HETATM   11  N   UNL     1       1.208   0.644  -3.566  1.00  0.00    -0.174 NA
HETATM   12  H   UNL     1       3.125   0.398  -4.209  1.00  0.00     0.189 HD
HETATM   13  C   UNL     1       0.464  -0.096  -2.727  1.00  0.00     0.089 A 
HETATM   14  C   UNL     1       1.220  -1.209  -2.259  1.00  0.00     0.071 A 
BRANCH  13  15
HETATM   15  C   UNL     1      -0.916   0.271  -2.385  1.00  0.00    -0.006 A 
HETATM   16  C   UNL     1      -1.778  -0.643  -1.760  1.00  0.00     0.014 A 
HETATM   17  C   UNL     1      -3.086  -0.278  -1.427  1.00  0.00     0.001 A 
HETATM   18  C   UNL     1      -3.549   1.003  -1.713  1.00  0.00     0.000 A 
HETATM   19  C   UNL     1      -2.708   1.921  -2.337  1.00  0.00     0.001 A 
HETATM   20  C   UNL     1      -1.401   1.556  -2.672  1.00  0.00     0.014 A 
ENDBRANCH  13  15
ENDBRANCH   6   9
ENDBRANCH   1   5
BRANCH   2  21
HETATM   21  C   UNL     1       5.846  -5.576  -0.505  1.00  0.00     0.134 C 
BRANCH  21  22
HETATM   22  C   UNL     1       5.702  -6.929  -1.208  1.00  0.00     0.128 C 
BRANCH  22  23
HETATM   23  N   UNL     1       5.653  -6.933  -2.670  1.00  0.00    -0.334 N 
HETATM   24  C   UNL     1       6.235  -6.037  -3.505  1.00  0.00     0.314 C 
HETATM   25  N   UNL     1       6.137  -6.392  -4.808  1.00  0.00    -0.352 N 
HETATM   26  O   UNL     1       6.755  -4.983  -3.173  1.00  0.00    -0.248 OA
HETATM   27  H   UNL     1       6.207  -7.370  -5.047  1.00  0.00     0.160 HD
HETATM   28  H   UNL     1       6.627  -5.767  -5.438  1.00  0.00     0.160 HD
HETATM   29  H   UNL     1       5.255  -7.755  -3.099  1.00  0.00     0.165 HD
ENDBRANCH  22  23
BRANCH  22  30
HETATM   30  C   UNL     1       6.774  -7.897  -0.725  1.00  0.00    -0.035 A 
HETATM   31  C   UNL     1       6.424  -8.971   0.110  1.00  0.00     0.011 A 
HETATM   32  C   UNL     1       7.399  -9.854   0.580  1.00  0.00     0.024 A 
HETATM   33  C   UNL     1       8.731  -9.671   0.220  1.00  0.00     0.034 A 
HETATM   34 CL   UNL     1       9.931 -10.758   0.802  1.00  0.00    -0.084 Cl
HETATM   35  C   UNL     1       9.098  -8.611  -0.605  1.00  0.00     0.024 A 
HETATM   36  C   UNL     1       8.124  -7.725  -1.073  1.00  0.00     0.011 A 
ENDBRANCH  22  30
ENDBRANCH  21  22
ENDBRANCH   2  21
TORSDOF 7
