REMARK  4 active torsions:
REMARK  status: ('A' for Active; 'I' for Inactive)
REMARK    1  A    between atoms: C_2  and  C_3 
REMARK    2  A    between atoms: N_16  and  C_17 
REMARK    3  A    between atoms: C_17  and  C_18 
REMARK       I    between atoms: C_18  and  N_19 
REMARK    4  A    between atoms: N_19  and  C_20 
ROOT
HETATM    1  C   UNL     1       0.595   0.622   0.865  1.00  0.00     0.054 C 
HETATM    2  C   UNL     1       2.031   0.450   0.365  1.00  0.00     0.140 A 
HETATM    3  N   UNL     1       2.855   1.505   0.924  1.00  0.00    -0.321 N 
HETATM    4  C   UNL     1       3.878   1.024   1.705  1.00  0.00     0.326 A 
HETATM    5  O   UNL     1       4.756   1.722   2.178  1.00  0.00    -0.247 OA
HETATM    6  N   UNL     1       3.751  -0.326   1.801  1.00  0.00    -0.259 N 
HETATM    7  C   UNL     1       2.668  -0.762   1.090  1.00  0.00     0.261 A 
HETATM    8  O   UNL     1       2.273  -1.923   1.071  1.00  0.00    -0.270 OA
HETATM    9  H   UNL     1       2.836   2.474   0.634  1.00  0.00     0.165 HD
ENDROOT
BRANCH   6  10
HETATM   10  C   UNL     1       4.656  -1.178   2.540  1.00  0.00     0.240 C 
BRANCH  10  11
HETATM   11  C   UNL     1       4.146  -1.389   3.963  1.00  0.00     0.240 C 
HETATM   12  N   UNL     1       2.948  -2.091   4.022  1.00  0.00    -0.325 N 
HETATM   13  H   UNL     1       2.608  -2.465   3.141  1.00  0.00     0.169 HD
HETATM   14  O   UNL     1       4.820  -1.031   4.925  1.00  0.00    -0.271 OA
BRANCH  12  15
HETATM   15  C   UNL     1       2.220  -2.436   5.194  1.00  0.00     0.047 A 
HETATM   16  C   UNL     1       1.199  -3.437   5.132  1.00  0.00     0.019 A 
HETATM   17  C   UNL     1       0.479  -3.764   6.308  1.00  0.00     0.069 A 
HETATM   18  C   UNL     1       0.849  -4.177   3.976  1.00  0.00     0.017 A 
HETATM   19  N   UNL     1      -0.482  -4.703   6.354  1.00  0.00    -0.260 NA
HETATM   20  C   UNL     1       0.767  -3.100   7.488  1.00  0.00     0.032 A 
HETATM   21  C   UNL     1      -0.771  -5.380   5.226  1.00  0.00     0.117 A 
HETATM   22  C   UNL     1      -0.140  -5.156   4.023  1.00  0.00     0.020 A 
HETATM   23  C   UNL     1       1.751  -2.120   7.552  1.00  0.00     0.005 A 
HETATM   24  C   UNL     1       2.473  -1.791   6.411  1.00  0.00     0.030 A 
ENDBRANCH  12  15
ENDBRANCH  10  11
ENDBRANCH   6  10
BRANCH   2  25
HETATM   25  C   UNL     1       2.217   0.376  -1.151  1.00  0.00    -0.020 A 
HETATM   26  C   UNL     1       3.507   0.475  -1.719  1.00  0.00     0.022 A 
HETATM   27  C   UNL     1       3.720   0.451  -3.110  1.00  0.00    -0.025 A 
HETATM   28  C   UNL     1       2.616   0.311  -3.973  1.00  0.00    -0.026 A 
HETATM   29  C   UNL     1       5.009   0.572  -3.657  1.00  0.00     0.012 A 
HETATM   30  C   UNL     1       1.333   0.193  -3.420  1.00  0.00     0.013 A 
HETATM   31  C   UNL     1       2.825   0.296  -5.363  1.00  0.00     0.012 A 
HETATM   32  C   UNL     1       1.137   0.224  -2.034  1.00  0.00     0.011 A 
HETATM   33  C   UNL     1       4.111   0.419  -5.892  1.00  0.00     0.001 A 
HETATM   34  C   UNL     1       5.202   0.557  -5.039  1.00  0.00     0.001 A 
ENDBRANCH   2  25
TORSDOF 4
