REMARK  8 active torsions:
REMARK  status: ('A' for Active; 'I' for Inactive)
REMARK    1  A    between atoms: C_2  and  N_3 
REMARK    2  A    between atoms: C_11  and  C_12 
REMARK    3  A    between atoms: C_14  and  O_15 
REMARK    4  A    between atoms: O_15  and  C_16 
REMARK    5  A    between atoms: C_18  and  O_19 
REMARK    6  A    between atoms: O_19  and  C_20 
REMARK    7  A    between atoms: C_20  and  C_21 
REMARK    8  A    between atoms: C_31  and  O_32 
ROOT
HETATM    1  N   UNL     1       2.875  -1.002   0.230  1.00  0.00    -0.067 N 
HETATM    2  H   UNL     1       2.502  -1.956   0.306  1.00  0.00     0.280 HD
HETATM    3  C   UNL     1       3.901  -1.050  -0.906  1.00  0.00     0.281 C 
HETATM    4  C   UNL     1       4.790   0.144  -0.861  1.00  0.00     0.018 A 
HETATM    5  C   UNL     1       4.985   0.947   0.250  1.00  0.00    -0.024 A 
HETATM    6  C   UNL     1       5.884   2.021  -0.046  1.00  0.00     0.057 A 
HETATM    7  C   UNL     1       6.313   1.980  -1.351  1.00  0.00     0.087 A 
HETATM    8  N   UNL     1       7.123   2.916  -1.870  1.00  0.00    -0.357 N 
HETATM    9  C   UNL     1       7.772   3.848  -0.960  1.00  0.00     0.243 C 
HETATM   10  N   UNL     1       7.225   3.978   0.401  1.00  0.00    -0.235 NA
HETATM   11  C   UNL     1       6.365   3.107   0.766  1.00  0.00     0.173 C 
HETATM   12  S   UNL     1       5.683   0.661  -2.214  1.00  0.00    -0.074 SA
HETATM   13  C   UNL     1       4.266   0.687   1.542  1.00  0.00     0.068 C 
HETATM   14  C   UNL     1       3.579  -0.691   1.552  1.00  0.00     0.240 C 
HETATM   15  H   UNL     1       7.565   2.807  -2.778  1.00  0.00     0.162 HD
ENDROOT
BRANCH   9  16
HETATM   16  C   UNL     1       7.810   5.228  -1.602  1.00  0.00    -0.012 A 
HETATM   17  C   UNL     1       6.658   5.785  -2.199  1.00  0.00     0.050 A 
HETATM   18  C   UNL     1       6.667   7.085  -2.711  1.00  0.00     0.103 A 
HETATM   19  C   UNL     1       7.843   7.835  -2.602  1.00  0.00     0.112 A 
HETATM   20  C   UNL     1       8.991   7.311  -2.004  1.00  0.00     0.041 A 
HETATM   21  C   UNL     1       8.975   6.008  -1.513  1.00  0.00     0.014 A 
BRANCH  18  22
HETATM   22  O   UNL     1       5.596   7.711  -3.290  1.00  0.00    -0.349 OA
BRANCH  22  23
HETATM   23  C   UNL     1       4.490   6.891  -3.663  1.00  0.00     0.171 C 
HETATM   24  C   UNL     1       3.527   7.738  -4.475  1.00  0.00     0.034 C 
ENDBRANCH  22  23
ENDBRANCH  18  22
BRANCH  19  25
HETATM   25  O   UNL     1       7.814   9.186  -2.984  1.00  0.00    -0.272 OA
BRANCH  25  26
HETATM   26  C   UNL     1       8.714   9.567  -3.959  1.00  0.00     0.298 C 
HETATM   27  O   UNL     1       9.479   8.845  -4.581  1.00  0.00    -0.259 OA
BRANCH  26  28
HETATM   28  C   UNL     1       8.676  11.049  -4.107  1.00  0.00     0.039 A 
HETATM   29  C   UNL     1       9.691  11.665  -4.851  1.00  0.00     0.017 A 
HETATM   30  C   UNL     1       9.720  13.055  -4.988  1.00  0.00     0.001 A 
HETATM   31  C   UNL     1       8.733  13.835  -4.387  1.00  0.00     0.000 A 
HETATM   32  C   UNL     1       7.713  13.230  -3.654  1.00  0.00     0.001 A 
HETATM   33  C   UNL     1       7.681  11.840  -3.514  1.00  0.00     0.017 A 
ENDBRANCH  26  28
ENDBRANCH  25  26
ENDBRANCH  19  25
ENDBRANCH   9  16
BRANCH  11  34
HETATM   34  O   UNL     1       5.855   3.202   2.006  1.00  0.00    -0.344 OA
HETATM   35  H   UNL     1       6.266   3.987   2.411  1.00  0.00     0.219 HD
ENDBRANCH  11  34
BRANCH   1  36
HETATM   36  C   UNL     1       1.705  -0.104  -0.114  1.00  0.00     0.231 C 
HETATM   37  C   UNL     1       0.587  -0.251   0.901  1.00  0.00     0.034 C 
ENDBRANCH   1  36
TORSDOF 8
