REMARK  5 active torsions:
REMARK  status: ('A' for Active; 'I' for Inactive)
REMARK    1  A    between atoms: C_6  and  N_7 
REMARK       I    between atoms: N_7  and  C_8 
REMARK    2  A    between atoms: C_8  and  C_9 
REMARK    3  A    between atoms: C_9  and  O_10 
REMARK    4  A    between atoms: O_10  and  C_11 
REMARK    5  A    between atoms: C_19  and  C_20 
ROOT
HETATM    1  C   UNL     1       1.080   0.143  -0.104  1.00  0.00     0.073 C 
HETATM    2  C   UNL     1       2.488  -0.182  -0.442  1.00  0.00     0.065 A 
HETATM    3  N   UNL     1       3.291   0.764  -0.945  1.00  0.00    -0.177 NA
HETATM    4  N   UNL     1       4.454   0.126  -1.152  1.00  0.00    -0.262 N 
HETATM    5  H   UNL     1       5.236   0.664  -1.514  1.00  0.00     0.191 HD
HETATM    6  C   UNL     1       4.442  -1.194  -0.787  1.00  0.00     0.137 A 
HETATM    7  C   UNL     1       3.161  -1.428  -0.320  1.00  0.00     0.046 A 
ENDROOT
BRANCH   6   8
HETATM    8  N   UNL     1       5.527  -2.047  -0.819  1.00  0.00    -0.309 N 
HETATM    9  C   UNL     1       6.666  -1.957  -1.574  1.00  0.00     0.247 C 
HETATM   10  O   UNL     1       7.640  -2.647  -1.260  1.00  0.00    -0.271 OA
HETATM   11  H   UNL     1       5.519  -2.836  -0.182  1.00  0.00     0.170 HD
BRANCH   9  12
HETATM   12  C   UNL     1       6.651  -1.171  -2.885  1.00  0.00     0.278 C 
BRANCH  12  13
HETATM   13  O   UNL     1       6.718   0.236  -2.724  1.00  0.00    -0.342 OA
BRANCH  13  14
HETATM   14  C   UNL     1       6.671   0.970  -3.885  1.00  0.00     0.069 A 
HETATM   15  C   UNL     1       6.705   2.357  -3.706  1.00  0.00     0.040 A 
HETATM   16  C   UNL     1       6.647   3.215  -4.807  1.00  0.00     0.045 A 
HETATM   17  C   UNL     1       6.561   2.682  -6.086  1.00  0.00     0.116 A 
HETATM   18  F   UNL     1       6.507   3.501  -7.144  1.00  0.00    -0.206 F 
HETATM   19  C   UNL     1       6.531   1.308  -6.282  1.00  0.00     0.045 A 
HETATM   20  C   UNL     1       6.587   0.448  -5.181  1.00  0.00     0.040 A 
ENDBRANCH  13  14
ENDBRANCH  12  13
ENDBRANCH   9  12
ENDBRANCH   6   8
BRANCH   7  21
HETATM   21  C   UNL     1       2.644  -2.738   0.020  1.00  0.00    -0.020 A 
HETATM   22  C   UNL     1       3.123  -3.443   1.130  1.00  0.00     0.014 A 
HETATM   23  C   UNL     1       2.651  -4.732   1.395  1.00  0.00     0.020 A 
HETATM   24  C   UNL     1       1.699  -5.310   0.556  1.00  0.00     0.011 A 
HETATM   25 BR   UNL     1       1.078  -7.062   0.903  1.00  0.00    -0.051 Br
HETATM   26  C   UNL     1       1.205  -4.610  -0.542  1.00  0.00     0.020 A 
HETATM   27  C   UNL     1       1.678  -3.324  -0.809  1.00  0.00     0.014 A 
ENDBRANCH   7  21
TORSDOF 5
