REMARK  6 active torsions:
REMARK  status: ('A' for Active; 'I' for Inactive)
REMARK    1  A    between atoms: C_2  and  N_3 
REMARK    2  A    between atoms: C_2  and  C_11 
REMARK       I    between atoms: N_3  and  C_4 
REMARK    3  A    between atoms: C_4  and  C_5 
REMARK    4  A    between atoms: C_14  and  O_15 
REMARK    5  A    between atoms: O_15  and  C_16 
REMARK    6  A    between atoms: C_16  and  C_17 
ROOT
HETATM    1  C   UNL     1       4.956  -0.712   0.156  1.00  0.00    -0.036 A 
HETATM    2  C   UNL     1       4.722  -1.359   1.380  1.00  0.00     0.012 A 
HETATM    3  C   UNL     1       5.611  -1.217   2.453  1.00  0.00     0.037 A 
HETATM    4  C   UNL     1       6.749  -0.425   2.318  1.00  0.00     0.069 A 
HETATM    5  C   UNL     1       6.965   0.259   1.121  1.00  0.00     0.037 A 
HETATM    6  C   UNL     1       6.079   0.122   0.051  1.00  0.00     0.012 A 
ENDROOT
BRANCH   1   7
HETATM    7  C   UNL     1       3.983  -0.897  -0.998  1.00  0.00     0.113 C 
HETATM    8  C   UNL     1       4.704  -1.157  -2.327  1.00  0.00     0.037 C 
BRANCH   7   9
HETATM    9  N   UNL     1       3.099   0.255  -1.075  1.00  0.00    -0.352 N 
HETATM   10  C   UNL     1       1.959   0.247  -1.841  1.00  0.00     0.225 C 
HETATM   11  O   UNL     1       1.607  -0.699  -2.532  1.00  0.00    -0.273 OA
HETATM   12  H   UNL     1       3.331   1.063  -0.515  1.00  0.00     0.163 HD
BRANCH  10  13
HETATM   13  C   UNL     1       1.189   1.512  -1.809  1.00  0.00     0.119 A 
HETATM   14  C   UNL     1      -0.308   1.537  -1.649  1.00  0.00     0.126 A 
HETATM   15 CL   UNL     1      -1.262   0.072  -1.529  1.00  0.00    -0.101 Cl
HETATM   16 CL   UNL     1      -0.994   2.873  -0.714  1.00  0.00    -0.101 Cl
HETATM   17  C   UNL     1       0.305   1.880  -2.978  1.00  0.00     0.060 A 
ENDBRANCH  10  13
ENDBRANCH   7   9
ENDBRANCH   1   7
BRANCH   4  18
HETATM   18  O   UNL     1       7.709  -0.227   3.269  1.00  0.00    -0.347 OA
BRANCH  18  19
HETATM   19  C   UNL     1       7.728  -1.139   4.367  1.00  0.00     0.215 C 
BRANCH  19  20
HETATM   20  C   UNL     1       9.062  -1.034   5.053  1.00  0.00    -0.017 A 
HETATM   21  C   UNL     1       9.156  -0.794   6.420  1.00  0.00     0.125 A 
HETATM   22  N   UNL     1      10.323  -0.726   7.101  1.00  0.00    -0.272 NA
HETATM   23  C   UNL     1      11.454  -0.902   6.386  1.00  0.00     0.116 A 
HETATM   24  C   UNL     1      11.475  -1.148   5.025  1.00  0.00     0.020 A 
HETATM   25  C   UNL     1      10.258  -1.218   4.352  1.00  0.00     0.012 A 
ENDBRANCH  19  20
ENDBRANCH  18  19
ENDBRANCH   4  18
TORSDOF 6
