REMARK  5 active torsions:
REMARK  status: ('A' for Active; 'I' for Inactive)
REMARK    1  A    between atoms: C_3  and  O_4 
REMARK    2  A    between atoms: O_4  and  C_5 
REMARK    3  A    between atoms: C_5  and  C_6 
REMARK       I    between atoms: C_6  and  N_7 
REMARK    4  A    between atoms: N_7  and  N_8 
REMARK    5  A    between atoms: C_9  and  C_10 
ROOT
HETATM    1  C   UNL     1       0.964   4.059  -0.243  1.00  0.00     0.261 C 
HETATM    2  N   UNL     1       2.099   4.821   0.038  1.00  0.00    -0.246 N 
HETATM    3  O   UNL     1      -0.162   4.511  -0.428  1.00  0.00    -0.269 OA
HETATM    4  H   UNL     1       3.002   4.377   0.160  1.00  0.00     0.192 HD
ENDROOT
BRANCH   2   5
HETATM    5  N   UNL     1       2.004   6.179   0.132  1.00  0.00    -0.184 NA
HETATM    6  C   UNL     1       3.117   6.808   0.333  1.00  0.00     0.153 C 
BRANCH   6   7
HETATM    7  C   UNL     1       3.143   8.254   0.450  1.00  0.00     0.018 A 
HETATM    8  C   UNL     1       4.320   9.066   0.567  1.00  0.00     0.004 A 
HETATM    9  C   UNL     1       3.906  10.395   0.647  1.00  0.00     0.043 A 
HETATM   10  C   UNL     1       5.706   8.796   0.605  1.00  0.00     0.014 A 
HETATM   11  C   UNL     1       4.801  11.465   0.763  1.00  0.00     0.030 A 
HETATM   12  N   UNL     1       2.533  10.394   0.587  1.00  0.00    -0.358 N 
HETATM   13  C   UNL     1       6.166  11.169   0.797  1.00  0.00     0.002 A 
HETATM   14  C   UNL     1       6.615   9.854   0.720  1.00  0.00     0.001 A 
HETATM   15  H   UNL     1       1.961  11.227   0.624  1.00  0.00     0.166 HD
HETATM   16  C   UNL     1       2.053   9.114   0.472  1.00  0.00     0.018 A 
HETATM   17  C   UNL     1       0.591   8.846   0.393  1.00  0.00     0.069 C 
ENDBRANCH   6   7
ENDBRANCH   2   5
BRANCH   1  18
HETATM   18  C   UNL     1       1.302   2.567  -0.304  1.00  0.00     0.280 C 
BRANCH  18  19
HETATM   19  O   UNL     1       0.160   1.752  -0.555  1.00  0.00    -0.341 OA
BRANCH  19  20
HETATM   20  C   UNL     1       0.517   0.627  -1.255  1.00  0.00     0.081 A 
HETATM   21  C   UNL     1       0.996  -0.506  -0.576  1.00  0.00    -0.027 A 
HETATM   22  C   UNL     1       1.133  -0.539   0.918  1.00  0.00     0.051 C 
HETATM   23  C   UNL     1       1.390  -1.622  -1.328  1.00  0.00     0.028 A 
HETATM   24  C   UNL     1       1.261  -1.615  -2.717  1.00  0.00     0.012 A 
HETATM   25  C   UNL     1       0.734  -0.506  -3.378  1.00  0.00     0.028 A 
HETATM   26 BR   UNL     1       1.799  -3.130  -3.713  1.00  0.00    -0.051 Br
HETATM   27  C   UNL     1       0.340   0.624  -2.650  1.00  0.00    -0.027 A 
HETATM   28  C   UNL     1      -0.228   1.819  -3.362  1.00  0.00     0.051 C 
ENDBRANCH  19  20
ENDBRANCH  18  19
ENDBRANCH   1  18
TORSDOF 5
