REMARK  7 active torsions:
REMARK  status: ('A' for Active; 'I' for Inactive)
REMARK    1  A    between atoms: C_2  and  C_3 
REMARK    2  A    between atoms: C_3  and  N_4 
REMARK       I    between atoms: N_4  and  C_5 
REMARK    3  A    between atoms: C_5  and  C_6 
REMARK    4  A    between atoms: C_8  and  N_9 
REMARK       I    between atoms: N_9  and  C_10 
REMARK    5  A    between atoms: C_10  and  C_11 
REMARK    6  A    between atoms: C_13  and  O_14 
REMARK    7  A    between atoms: O_14  and  C_15 
ROOT
HETATM    1  N   UNL     1       0.475   4.476   0.535  1.00  0.00    -0.323 N 
HETATM    2  C   UNL     1      -0.160   3.267   0.305  1.00  0.00     0.256 C 
HETATM    3  O   UNL     1       0.372   2.267  -0.172  1.00  0.00    -0.267 OA
HETATM    4  H   UNL     1      -0.092   5.287   0.736  1.00  0.00     0.169 HD
ENDROOT
BRANCH   1   5
HETATM    5  C   UNL     1       1.865   4.723   0.419  1.00  0.00     0.035 A 
HETATM    6  C   UNL     1       2.809   3.710   0.235  1.00  0.00     0.046 A 
HETATM    7  C   UNL     1       4.172   4.012   0.102  1.00  0.00     0.034 A 
HETATM    8  C   UNL     1       4.601   5.337   0.211  1.00  0.00     0.017 A 
HETATM    9  C   UNL     1       3.669   6.353   0.424  1.00  0.00     0.003 A 
HETATM   10  C   UNL     1       2.308   6.047   0.523  1.00  0.00     0.029 A 
BRANCH   7  11
HETATM   11  C   UNL     1       5.183   2.940  -0.128  1.00  0.00     0.251 C 
HETATM   12  N   UNL     1       4.718   1.790  -0.735  1.00  0.00    -0.357 N 
HETATM   13  H   UNL     1       3.815   1.817  -1.192  1.00  0.00     0.162 HD
HETATM   14  O   UNL     1       6.353   3.115   0.189  1.00  0.00    -0.268 OA
BRANCH  12  15
HETATM   15  C   UNL     1       5.608   0.702  -1.079  1.00  0.00     0.122 C 
BRANCH  15  16
HETATM   16  C   UNL     1       4.845  -0.588  -1.363  1.00  0.00     0.015 C 
HETATM   17  C   UNL     1       4.148  -1.141  -0.128  1.00  0.00     0.006 C 
ENDBRANCH  15  16
ENDBRANCH  12  15
ENDBRANCH   7  11
ENDBRANCH   1   5
BRANCH   2  18
HETATM   18  C   UNL     1      -1.614   3.176   0.644  1.00  0.00     0.037 A 
HETATM   19  C   UNL     1      -2.301   4.137   1.383  1.00  0.00     0.075 A 
HETATM   20  C   UNL     1      -3.628   3.887   1.690  1.00  0.00     0.165 A 
HETATM   21  N   UNL     1      -4.301   2.782   1.315  1.00  0.00    -0.237 NA
HETATM   22  C   UNL     1      -3.621   1.873   0.593  1.00  0.00     0.120 A 
HETATM   23  C   UNL     1      -2.295   2.021   0.238  1.00  0.00     0.036 A 
BRANCH  20  24
HETATM   24  O   UNL     1      -4.293   4.851   2.425  1.00  0.00    -0.329 OA
BRANCH  24  25
HETATM   25  C   UNL     1      -5.450   4.387   3.163  1.00  0.00     0.130 C 
HETATM   26  C   UNL     1      -6.778   4.190   2.389  1.00  0.00     0.032 C 
HETATM   27  C   UNL     1      -7.194   5.601   2.832  1.00  0.00     0.005 C 
HETATM   28  C   UNL     1      -6.178   5.484   3.980  1.00  0.00     0.032 C 
ENDBRANCH  24  25
ENDBRANCH  20  24
ENDBRANCH   2  18
TORSDOF 7
