REMARK  7 active torsions:
REMARK  status: ('A' for Active; 'I' for Inactive)
REMARK    1  A    between atoms: C_2  and  N_3 
REMARK    2  A    between atoms: C_11  and  C_12 
REMARK    3  A    between atoms: C_14  and  O_15 
REMARK    4  A    between atoms: C_17  and  O_18 
REMARK    5  A    between atoms: O_18  and  C_19 
REMARK    6  A    between atoms: C_19  and  C_20 
REMARK    7  A    between atoms: C_31  and  O_32 
ROOT
HETATM    1  N   UNL     1       2.953  -1.127   0.278  1.00  0.00    -0.067 N 
HETATM    2  H   UNL     1       2.573  -2.078   0.362  1.00  0.00     0.280 HD
HETATM    3  C   UNL     1       3.974  -1.191  -0.861  1.00  0.00     0.281 C 
HETATM    4  C   UNL     1       4.872  -0.003  -0.828  1.00  0.00     0.018 A 
HETATM    5  C   UNL     1       5.076   0.808   0.275  1.00  0.00    -0.024 A 
HETATM    6  C   UNL     1       5.979   1.876  -0.033  1.00  0.00     0.057 A 
HETATM    7  C   UNL     1       6.405   1.818  -1.338  1.00  0.00     0.087 A 
HETATM    8  N   UNL     1       7.220   2.746  -1.867  1.00  0.00    -0.357 N 
HETATM    9  C   UNL     1       7.898   3.659  -0.959  1.00  0.00     0.243 C 
HETATM   10  N   UNL     1       7.335   3.828   0.392  1.00  0.00    -0.235 NA
HETATM   11  C   UNL     1       6.464   2.970   0.765  1.00  0.00     0.173 C 
HETATM   12  S   UNL     1       5.766   0.496  -2.187  1.00  0.00    -0.074 SA
HETATM   13  C   UNL     1       4.360   0.563   1.572  1.00  0.00     0.068 C 
HETATM   14  C   UNL     1       3.664  -0.811   1.595  1.00  0.00     0.240 C 
HETATM   15  H   UNL     1       7.663   2.618  -2.772  1.00  0.00     0.162 HD
ENDROOT
BRANCH   9  16
HETATM   16  C   UNL     1       8.003   5.021  -1.628  1.00  0.00    -0.012 A 
HETATM   17  C   UNL     1       6.851   5.674  -2.111  1.00  0.00     0.050 A 
HETATM   18  C   UNL     1       6.930   6.955  -2.665  1.00  0.00     0.102 A 
HETATM   19  C   UNL     1       8.177   7.599  -2.710  1.00  0.00     0.112 A 
HETATM   20  C   UNL     1       9.330   6.959  -2.259  1.00  0.00     0.041 A 
HETATM   21  C   UNL     1       9.240   5.676  -1.715  1.00  0.00     0.014 A 
BRANCH  18  22
HETATM   22  O   UNL     1       5.865   7.664  -3.157  1.00  0.00    -0.353 OA
HETATM   23  C   UNL     1       4.628   6.977  -3.288  1.00  0.00     0.210 C 
ENDBRANCH  18  22
BRANCH  19  24
HETATM   24  O   UNL     1       8.169   8.922  -3.228  1.00  0.00    -0.272 OA
BRANCH  24  25
HETATM   25  C   UNL     1       9.188   9.850  -3.097  1.00  0.00     0.300 C 
HETATM   26  O   UNL     1      10.325   9.685  -2.688  1.00  0.00    -0.259 OA
BRANCH  25  27
HETATM   27  C   UNL     1       8.713  11.126  -3.655  1.00  0.00     0.061 A 
HETATM   28  C   UNL     1       7.591  11.795  -3.154  1.00  0.00     0.050 A 
HETATM   29 CL   UNL     1       6.672  11.214  -1.812  1.00  0.00    -0.083 Cl
HETATM   30  C   UNL     1       7.208  13.016  -3.720  1.00  0.00     0.025 A 
HETATM   31  C   UNL     1       7.945  13.569  -4.770  1.00  0.00     0.002 A 
HETATM   32  C   UNL     1       9.075  12.911  -5.254  1.00  0.00     0.001 A 
HETATM   33  C   UNL     1       9.464  11.693  -4.695  1.00  0.00     0.019 A 
ENDBRANCH  25  27
ENDBRANCH  24  25
ENDBRANCH  19  24
ENDBRANCH   9  16
BRANCH  11  34
HETATM   34  O   UNL     1       5.944   3.091   1.999  1.00  0.00    -0.344 OA
HETATM   35  H   UNL     1       6.358   3.880   2.394  1.00  0.00     0.219 HD
ENDBRANCH  11  34
BRANCH   1  36
HETATM   36  C   UNL     1       1.788  -0.223  -0.069  1.00  0.00     0.231 C 
HETATM   37  C   UNL     1       0.672  -0.354   0.950  1.00  0.00     0.034 C 
ENDBRANCH   1  36
TORSDOF 7
