REMARK  7 active torsions:
REMARK  status: ('A' for Active; 'I' for Inactive)
REMARK    1  A    between atoms: C_6  and  C_7 
REMARK       I    between atoms: C_7  and  N_8 
REMARK    2  A    between atoms: N_8  and  C_9 
REMARK    3  A    between atoms: C_9  and  C_10 
REMARK       I    between atoms: C_10  and  N_11 
REMARK    4  A    between atoms: N_11  and  N_12 
REMARK       I    between atoms: N_12  and  C_13 
REMARK    5  A    between atoms: C_13  and  C_14 
REMARK    6  A    between atoms: C_14  and  N_15 
REMARK    7  A    between atoms: N_15  and  C_16 
ROOT
HETATM    1  C   UNL     1       7.736  -3.769  -0.514  1.00  0.00     0.253 C 
HETATM    2  N   UNL     1       8.698  -3.350  -1.408  1.00  0.00    -0.266 N 
HETATM    3  O   UNL     1       7.602  -3.264   0.602  1.00  0.00    -0.270 OA
HETATM    4  H   UNL     1       8.830  -3.764  -2.330  1.00  0.00     0.190 HD
ENDROOT
BRANCH   2   5
HETATM    5  N   UNL     1       9.428  -2.196  -1.104  1.00  0.00    -0.266 N 
HETATM    6  C   UNL     1       9.618  -1.271  -2.115  1.00  0.00     0.258 C 
HETATM    7  O   UNL     1       9.372  -1.515  -3.299  1.00  0.00    -0.269 OA
HETATM    8  H   UNL     1       9.415  -1.920  -0.122  1.00  0.00     0.190 HD
BRANCH   6   9
HETATM    9  C   UNL     1      10.175   0.083  -1.638  1.00  0.00     0.173 C 
HETATM   10  C   UNL     1       9.097   0.851  -0.880  1.00  0.00     0.042 C 
BRANCH   9  11
HETATM   11  N   UNL     1      10.596   0.872  -2.796  1.00  0.00    -0.356 N 
HETATM   12  H   UNL     1      10.272   0.504  -3.690  1.00  0.00     0.162 HD
BRANCH  11  13
HETATM   13  C   UNL     1      11.772   1.532  -2.767  1.00  0.00     0.168 A 
HETATM   14  S   UNL     1      12.437   2.167  -4.219  1.00  0.00    -0.050 SA
HETATM   15  C   UNL     1      13.787   2.776  -3.345  1.00  0.00     0.037 A 
HETATM   16  C   UNL     1      13.637   2.443  -1.999  1.00  0.00     0.076 A 
HETATM   17  C   UNL     1      14.900   3.493  -3.813  1.00  0.00     0.021 A 
HETATM   18  N   UNL     1      12.483   1.745  -1.686  1.00  0.00    -0.223 NA
HETATM   19  C   UNL     1      14.641   2.830  -1.089  1.00  0.00     0.033 A 
HETATM   20  C   UNL     1      15.758   3.539  -1.544  1.00  0.00     0.002 A 
HETATM   21  C   UNL     1      15.881   3.868  -2.890  1.00  0.00     0.002 A 
ENDBRANCH  11  13
ENDBRANCH   9  11
ENDBRANCH   6   9
ENDBRANCH   2   5
BRANCH   1  22
HETATM   22  C   UNL     1       6.908  -4.959  -0.985  1.00  0.00     0.227 C 
BRANCH  22  23
HETATM   23  N   UNL     1       7.229  -6.120  -0.179  1.00  0.00    -0.348 N 
HETATM   24  C   UNL     1       8.297  -6.920  -0.528  1.00  0.00     0.252 C 
HETATM   25  O   UNL     1       8.960  -6.733  -1.542  1.00  0.00    -0.268 OA
HETATM   26  H   UNL     1       6.936  -6.101   0.790  1.00  0.00     0.163 HD
BRANCH  24  27
HETATM   27  C   UNL     1       8.648  -8.009   0.424  1.00  0.00     0.032 A 
HETATM   28  C   UNL     1       9.972  -8.463   0.463  1.00  0.00     0.024 A 
HETATM   29  C   UNL     1      10.358  -9.490   1.341  1.00  0.00    -0.055 A 
HETATM   30  C   UNL     1       9.386 -10.093   2.166  1.00  0.00    -0.056 A 
HETATM   31  C   UNL     1      11.791  -9.948   1.346  1.00  0.00     0.049 C 
HETATM   32  C   UNL     1       9.740 -11.202   3.118  1.00  0.00     0.049 C 
HETATM   33  C   UNL     1       8.060  -9.632   2.117  1.00  0.00     0.008 A 
HETATM   34  C   UNL     1       7.690  -8.601   1.251  1.00  0.00     0.017 A 
ENDBRANCH  24  27
ENDBRANCH  22  23
ENDBRANCH   1  22
TORSDOF 7
