REMARK  8 active torsions:
REMARK  status: ('A' for Active; 'I' for Inactive)
REMARK    1  A    between atoms: N_5  and  C_6 
REMARK    2  A    between atoms: C_6  and  C_7 
REMARK       I    between atoms: C_7  and  N_8 
REMARK    3  A    between atoms: N_8  and  C_9 
REMARK    4  A    between atoms: N_19  and  C_20 
REMARK    5  A    between atoms: C_20  and  C_21 
REMARK    6  A    between atoms: C_24  and  C_25 
REMARK       I    between atoms: C_25  and  N_26 
REMARK    7  A    between atoms: N_26  and  C_27 
REMARK    8  A    between atoms: C_27  and  C_28 
ROOT
HETATM    1  C   UNL     1      -2.478   0.383   0.731  1.00  0.00     0.001 A 
HETATM    2  C   UNL     1      -1.328   1.153   0.592  1.00  0.00     0.019 A 
HETATM    3  C   UNL     1      -0.084   0.529   0.405  1.00  0.00     0.059 A 
HETATM    4  C   UNL     1       0.028  -0.859   0.348  1.00  0.00     0.055 A 
HETATM    5  N   UNL     1       1.309  -1.447   0.160  1.00  0.00    -0.290 N 
HETATM    6  C   UNL     1       2.470  -0.687   0.124  1.00  0.00     0.332 C 
HETATM    7  O   UNL     1       3.575  -1.234   0.157  1.00  0.00    -0.246 OA
HETATM    8  N   UNL     1       2.327   0.690   0.105  1.00  0.00    -0.261 N 
HETATM    9  C   UNL     1       1.121   1.359   0.256  1.00  0.00     0.264 C 
HETATM   10  O   UNL     1       1.014   2.583   0.285  1.00  0.00    -0.267 OA
HETATM   11  C   UNL     1      -1.142  -1.622   0.495  1.00  0.00     0.031 A 
HETATM   12  C   UNL     1      -2.384  -1.003   0.684  1.00  0.00     0.002 A 
ENDROOT
BRANCH   8  13
HETATM   13  C   UNL     1       3.531   1.498  -0.051  1.00  0.00     0.175 C 
BRANCH  13  14
HETATM   14  C   UNL     1       3.882   1.721  -1.509  1.00  0.00    -0.040 A 
HETATM   15  C   UNL     1       3.207   2.685  -2.271  1.00  0.00     0.010 A 
HETATM   16  C   UNL     1       3.528   2.894  -3.620  1.00  0.00     0.017 A 
HETATM   17  C   UNL     1       4.536   2.140  -4.230  1.00  0.00     0.032 A 
HETATM   18  C   UNL     1       5.210   1.174  -3.467  1.00  0.00     0.017 A 
HETATM   19  C   UNL     1       4.884   0.962  -2.124  1.00  0.00     0.010 A 
BRANCH  17  20
HETATM   20  C   UNL     1       4.943   2.297  -5.662  1.00  0.00     0.251 C 
HETATM   21  N   UNL     1       4.154   3.079  -6.479  1.00  0.00    -0.353 N 
HETATM   22  H   UNL     1       3.389   3.622  -6.113  1.00  0.00     0.163 HD
HETATM   23  O   UNL     1       5.945   1.722  -6.074  1.00  0.00    -0.268 OA
BRANCH  21  24
HETATM   24  C   UNL     1       4.493   3.277  -7.873  1.00  0.00     0.161 C 
BRANCH  24  25
HETATM   25  C   UNL     1       3.272   3.432  -8.751  1.00  0.00    -0.038 A 
HETATM   26  C   UNL     1       3.330   4.277  -9.873  1.00  0.00     0.048 A 
HETATM   27  C   UNL     1       2.229   4.341 -10.703  1.00  0.00     0.105 A 
HETATM   28  C   UNL     1       1.093   3.608 -10.459  1.00  0.00     0.105 A 
HETATM   29  O   UNL     1       2.129   5.091 -11.833  1.00  0.00    -0.323 OA
HETATM   30  O   UNL     1       0.133   3.807 -11.401  1.00  0.00    -0.323 OA
HETATM   31  C   UNL     1       0.995   2.765  -9.375  1.00  0.00     0.040 A 
HETATM   32  C   UNL     1       0.811   4.721 -12.288  1.00  0.00     0.352 A 
HETATM   33  C   UNL     1       2.102   2.668  -8.524  1.00  0.00     0.012 A 
ENDBRANCH  24  25
ENDBRANCH  21  24
ENDBRANCH  17  20
ENDBRANCH  13  14
ENDBRANCH   8  13
BRANCH   5  34
HETATM   34  C   UNL     1       1.435  -2.898  -0.038  1.00  0.00     0.237 C 
BRANCH  34  35
HETATM   35  C   UNL     1       1.432  -3.736   1.246  1.00  0.00     0.240 C 
HETATM   36  N   UNL     1       2.193  -3.202   2.270  1.00  0.00    -0.326 N 
HETATM   37  H   UNL     1       2.636  -2.311   2.077  1.00  0.00     0.169 HD
HETATM   38  O   UNL     1       0.872  -4.830   1.257  1.00  0.00    -0.271 OA
BRANCH  36  39
HETATM   39  C   UNL     1       2.466  -3.774   3.530  1.00  0.00     0.036 A 
HETATM   40  C   UNL     1       2.057  -5.052   3.917  1.00  0.00     0.053 A 
HETATM   41  C   UNL     1       2.397  -5.544   5.180  1.00  0.00     0.036 A 
HETATM   42 CL   UNL     1       1.910  -7.131   5.639  1.00  0.00    -0.084 Cl
HETATM   43  C   UNL     1       3.133  -4.769   6.073  1.00  0.00     0.024 A 
HETATM   44  C   UNL     1       3.538  -3.491   5.699  1.00  0.00     0.004 A 
HETATM   45  C   UNL     1       3.210  -2.999   4.432  1.00  0.00     0.029 A 
ENDBRANCH  36  39
ENDBRANCH  34  35
ENDBRANCH   5  34
TORSDOF 8
