REMARK  2 active torsions:
REMARK  status: ('A' for Active; 'I' for Inactive)
REMARK    1  A    between atoms: O_2  and  C_3 
REMARK    2  A    between atoms: C_5  and  N_6 
REMARK       I    between atoms: N_6  and  C_7 
REMARK       I    between atoms: C_7  and  N_8 
ROOT
HETATM    1  N   UNL     1       2.032   4.735   1.502  1.00  0.00    -0.307 N 
HETATM    2  C   UNL     1       0.780   4.903   0.959  1.00  0.00     0.323 C 
HETATM    3  N   UNL     1      -0.074   3.817   1.124  1.00  0.00    -0.328 N 
HETATM    4  C   UNL     1       0.339   2.464   1.539  1.00  0.00     0.185 C 
HETATM    5  C   UNL     1      -0.333   1.466   0.659  1.00  0.00     0.035 A 
HETATM    6  C   UNL     1      -1.317   1.714  -0.278  1.00  0.00    -0.020 A 
HETATM    7  C   UNL     1      -1.824   3.097  -0.511  1.00  0.00     0.061 C 
HETATM    8  C   UNL     1      -1.486   3.970   0.714  1.00  0.00     0.132 C 
HETATM    9  N   UNL     1      -0.070   0.124   0.650  1.00  0.00    -0.357 N 
HETATM   10  H   UNL     1       0.607  -0.352   1.230  1.00  0.00     0.166 HD
HETATM   11  C   UNL     1      -0.866  -0.502  -0.286  1.00  0.00     0.043 A 
HETATM   12  C   UNL     1      -1.659   0.479  -0.888  1.00  0.00    -0.001 A 
HETATM   13  C   UNL     1      -0.937  -1.854  -0.645  1.00  0.00     0.030 A 
HETATM   14  C   UNL     1      -1.843  -2.211  -1.648  1.00  0.00     0.002 A 
HETATM   15  C   UNL     1      -2.644  -1.254  -2.267  1.00  0.00     0.001 A 
HETATM   16  C   UNL     1      -2.563   0.093  -1.897  1.00  0.00     0.014 A 
HETATM   17  O   UNL     1       0.413   5.925   0.385  1.00  0.00    -0.247 OA
HETATM   18  H   UNL     1       2.120   4.037   2.225  1.00  0.00     0.170 HD
ENDROOT
BRANCH   1  19
HETATM   19  C   UNL     1       3.170   5.568   1.365  1.00  0.00     0.060 A 
HETATM   20  C   UNL     1       3.230   6.646   0.473  1.00  0.00     0.068 A 
HETATM   21  C   UNL     1       4.385   7.430   0.376  1.00  0.00     0.070 A 
HETATM   22  C   UNL     1       5.499   7.119   1.158  1.00  0.00     0.038 A 
HETATM   23  C   UNL     1       5.464   6.043   2.042  1.00  0.00     0.029 A 
HETATM   24  C   UNL     1       4.305   5.274   2.145  1.00  0.00     0.061 A 
HETATM   25 CL   UNL     1       4.304   3.942   3.254  1.00  0.00    -0.082 Cl
BRANCH  21  26
HETATM   26  O   UNL     1       4.554   8.511  -0.446  1.00  0.00    -0.356 OA
HETATM   27  C   UNL     1       3.402   8.972  -1.144  1.00  0.00     0.210 C 
ENDBRANCH  21  26
ENDBRANCH   1  19
TORSDOF 2
