REMARK  8 active torsions:
REMARK  status: ('A' for Active; 'I' for Inactive)
REMARK    1  A    between atoms: O_2  and  C_3 
REMARK    2  A    between atoms: C_4  and  O_5 
REMARK    3  A    between atoms: C_6  and  C_7 
REMARK    4  A    between atoms: C_7  and  C_8 
REMARK    5  A    between atoms: C_11  and  C_12 
REMARK    6  A    between atoms: C_12  and  N_13 
REMARK    7  A    between atoms: C_16  and  N_17 
REMARK       I    between atoms: N_17  and  C_18 
REMARK       I    between atoms: C_18  and  N_19 
REMARK    8  A    between atoms: N_19  and  C_20 
ROOT
HETATM    1  N   UNL     1       6.857   0.915  -1.670  1.00  0.00    -0.065 N 
HETATM    2  H   UNL     1       7.804   1.273  -1.489  1.00  0.00     0.280 HD
HETATM    3  C   UNL     1       6.923   0.077  -2.938  1.00  0.00     0.260 C 
HETATM    4  C   UNL     1       6.176  -1.225  -2.592  1.00  0.00     0.113 C 
HETATM    5  C   UNL     1       6.588  -1.418  -1.139  1.00  0.00     0.054 C 
HETATM    6  C   UNL     1       6.479  -0.022  -0.545  1.00  0.00     0.237 C 
ENDROOT
BRANCH   1   7
HETATM    7  C   UNL     1       5.969   2.128  -1.795  1.00  0.00     0.273 C 
BRANCH   7   8
HETATM    8  C   UNL     1       6.300   3.158  -0.746  1.00  0.00    -0.029 A 
HETATM    9  C   UNL     1       7.334   4.085  -0.976  1.00  0.00     0.019 A 
HETATM   10  C   UNL     1       7.731   5.001   0.015  1.00  0.00    -0.018 A 
HETATM   11  C   UNL     1       7.090   4.957   1.255  1.00  0.00     0.105 A 
HETATM   12  C   UNL     1       6.031   4.076   1.476  1.00  0.00     0.102 A 
HETATM   13  C   UNL     1       5.645   3.167   0.492  1.00  0.00     0.048 A 
BRANCH  10  14
HETATM   14  C   UNL     1       8.863   5.965  -0.261  1.00  0.00     0.068 C 
BRANCH  14  15
HETATM   15  C   UNL     1      10.207   5.358   0.031  1.00  0.00    -0.032 C 
HETATM   16  C   UNL     1      11.173   5.174  -0.879  1.00  0.00     0.007 C 
ENDBRANCH  14  15
ENDBRANCH  10  14
BRANCH  11  17
HETATM   17  O   UNL     1       7.533   5.764   2.264  1.00  0.00    -0.357 OA
HETATM   18  H   UNL     1       7.120   5.447   3.088  1.00  0.00     0.218 HD
ENDBRANCH  11  17
BRANCH  12  19
HETATM   19  O   UNL     1       5.398   4.023   2.690  1.00  0.00    -0.353 OA
HETATM   20  C   UNL     1       4.431   5.075   2.800  1.00  0.00     0.210 C 
ENDBRANCH  12  19
ENDBRANCH   7   8
ENDBRANCH   1   7
BRANCH   4  21
HETATM   21  N   UNL     1       4.715  -1.172  -2.711  1.00  0.00    -0.337 N 
HETATM   22  C   UNL     1       4.157  -0.842  -3.938  1.00  0.00     0.321 C 
HETATM   23  N   UNL     1       2.800  -1.051  -3.947  1.00  0.00    -0.309 N 
HETATM   24  O   UNL     1       4.849  -0.396  -4.841  1.00  0.00    -0.247 OA
HETATM   25  H   UNL     1       2.373  -1.353  -3.084  1.00  0.00     0.170 HD
HETATM   26  H   UNL     1       4.225  -1.948  -2.280  1.00  0.00     0.164 HD
BRANCH  23  27
HETATM   27  C   UNL     1       1.914  -0.868  -5.032  1.00  0.00     0.036 A 
HETATM   28  C   UNL     1       2.310  -0.423  -6.298  1.00  0.00     0.032 A 
HETATM   29  C   UNL     1       1.370  -0.274  -7.323  1.00  0.00     0.044 A 
HETATM   30  C   UNL     1       0.036  -0.574  -7.084  1.00  0.00     0.116 A 
HETATM   31  F   UNL     1      -0.861  -0.433  -8.068  1.00  0.00    -0.206 F 
HETATM   32  C   UNL     1      -0.378  -1.020  -5.837  1.00  0.00     0.044 A 
HETATM   33  C   UNL     1       0.560  -1.165  -4.811  1.00  0.00     0.032 A 
ENDBRANCH  23  27
ENDBRANCH   4  21
TORSDOF 8
