REMARK  3 active torsions:
REMARK  status: ('A' for Active; 'I' for Inactive)
REMARK    1  A    between atoms: C_7  and  C_8 
REMARK       I    between atoms: C_8  and  N_9 
REMARK    2  A    between atoms: C_19  and  C_20 
REMARK    3  A    between atoms: C_22  and  O_23 
ROOT
HETATM    1  C   UNL     1       3.925  -2.114   0.681  1.00  0.00     0.258 C 
HETATM    2  N   UNL     1       4.486  -3.364   0.416  1.00  0.00    -0.340 N 
HETATM    3  C   UNL     1       4.879  -4.394   1.371  1.00  0.00     0.123 C 
HETATM    4  C   UNL     1       5.274  -5.618   0.494  1.00  0.00     0.221 C 
HETATM    5  N   UNL     1       6.683  -6.086   0.878  1.00  0.00    -0.064 N 
HETATM    6  H   UNL     1       6.946  -6.889   0.290  1.00  0.00     0.280 HD
HETATM    7  C   UNL     1       7.783  -5.041   0.750  1.00  0.00     0.236 C 
HETATM    8  C   UNL     1       7.327  -3.770   1.453  1.00  0.00     0.034 C 
HETATM    9  C   UNL     1       6.071  -4.049   2.296  1.00  0.00     0.014 C 
HETATM   10  C   UNL     1       6.358  -5.279   3.190  1.00  0.00     0.034 C 
HETATM   11  C   UNL     1       6.653  -6.524   2.340  1.00  0.00     0.236 C 
HETATM   12  C   UNL     1       4.997  -5.236  -0.988  1.00  0.00     0.070 C 
HETATM   13  C   UNL     1       4.144  -3.966  -0.863  1.00  0.00     0.138 C 
HETATM   14  O   UNL     1       3.725  -1.303  -0.216  1.00  0.00    -0.267 OA
ENDROOT
BRANCH   1  15
HETATM   15  C   UNL     1       3.464  -1.876   2.022  1.00  0.00     0.089 C 
HETATM   16  C   UNL     1       2.192  -2.205   2.562  1.00  0.00     0.076 C 
HETATM   17  C   UNL     1       1.037  -2.826   1.869  1.00  0.00     0.074 C 
HETATM   18  N   UNL     1       2.111  -1.866   3.852  1.00  0.00    -0.132 NA
HETATM   19  O   UNL     1       3.288  -1.198   4.137  1.00  0.00    -0.217 OA
HETATM   20  C   UNL     1       4.078  -1.170   3.030  1.00  0.00     0.092 C 
HETATM   21  C   UNL     1       5.347  -0.433   3.169  1.00  0.00     0.080 C 
ENDBRANCH   1  15
BRANCH  12  22
HETATM   22  C   UNL     1       6.158  -5.143  -1.955  1.00  0.00    -0.048 A 
HETATM   23  C   UNL     1       6.746  -3.920  -2.329  1.00  0.00     0.044 A 
HETATM   24  C   UNL     1       7.817  -3.902  -3.219  1.00  0.00     0.066 A 
HETATM   25  C   UNL     1       8.324  -5.079  -3.751  1.00  0.00     0.036 A 
HETATM   26  C   UNL     1       7.740  -6.295  -3.409  1.00  0.00     0.003 A 
HETATM   27  C   UNL     1       6.662  -6.329  -2.522  1.00  0.00     0.008 A 
BRANCH  24  28
HETATM   28  O   UNL     1       8.411  -2.733  -3.585  1.00  0.00    -0.361 OA
HETATM   29  H   UNL     1       7.816  -1.988  -3.398  1.00  0.00     0.217 HD
ENDBRANCH  24  28
ENDBRANCH  12  22
TORSDOF 3
