REMARK  5 active torsions:
REMARK  status: ('A' for Active; 'I' for Inactive)
REMARK    1  A    between atoms: C_8  and  C_9 
REMARK       I    between atoms: C_9  and  N_10 
REMARK    2  A    between atoms: N_10  and  C_11 
REMARK    3  A    between atoms: C_14  and  N_15 
REMARK       I    between atoms: N_15  and  C_16 
REMARK       I    between atoms: C_16  and  N_17 
REMARK    4  A    between atoms: N_17  and  C_18 
REMARK    5  A    between atoms: C_18  and  C_19 
ROOT
HETATM    1  C   UNL     1       2.550  -3.433  -0.197  1.00  0.00     0.035 A 
HETATM    2  C   UNL     1       1.298  -3.709  -0.746  1.00  0.00     0.032 A 
HETATM    3  C   UNL     1       0.191  -2.892  -0.457  1.00  0.00     0.032 A 
HETATM    4  C   UNL     1       0.324  -1.780   0.373  1.00  0.00     0.036 A 
HETATM    5  C   UNL     1       1.571  -1.530   0.956  1.00  0.00     0.032 A 
HETATM    6  C   UNL     1       2.673  -2.343   0.669  1.00  0.00     0.032 A 
ENDROOT
BRANCH   1   7
HETATM    7  N   UNL     1       3.718  -4.187  -0.438  1.00  0.00    -0.322 N 
HETATM    8  C   UNL     1       3.888  -5.252  -1.308  1.00  0.00     0.274 C 
HETATM    9  O   UNL     1       3.013  -5.684  -2.049  1.00  0.00    -0.266 OA
HETATM   10  H   UNL     1       4.545  -3.858   0.039  1.00  0.00     0.169 HD
BRANCH   8  11
HETATM   11  C   UNL     1       5.229  -5.802  -1.292  1.00  0.00     0.126 A 
HETATM   12  N   UNL     1       5.816  -6.553  -2.302  1.00  0.00    -0.300 N 
HETATM   13  C   UNL     1       5.320  -6.967  -3.544  1.00  0.00     0.106 A 
HETATM   14  C   UNL     1       7.112  -6.849  -1.880  1.00  0.00     0.134 A 
HETATM   15  C   UNL     1       6.101  -7.679  -4.380  1.00  0.00    -0.046 A 
HETATM   16  C   UNL     1       5.652  -8.170  -5.721  1.00  0.00     0.049 C 
HETATM   17  C   UNL     1       7.463  -7.993  -3.957  1.00  0.00     0.012 A 
HETATM   18  C   UNL     1       7.941  -7.595  -2.764  1.00  0.00     0.051 A 
HETATM   19  N   UNL     1       7.360  -6.368  -0.683  1.00  0.00    -0.240 NA
HETATM   20  C   UNL     1       6.205  -5.742  -0.309  1.00  0.00     0.155 A 
ENDBRANCH   8  11
ENDBRANCH   1   7
BRANCH   4  21
HETATM   21  N   UNL     1      -0.714  -0.900   0.721  1.00  0.00    -0.309 N 
HETATM   22  C   UNL     1      -1.957  -0.661   0.223  1.00  0.00     0.320 C 
HETATM   23  N   UNL     1      -2.267  -1.174  -0.994  1.00  0.00    -0.339 N 
HETATM   24  O   UNL     1      -2.718   0.056   0.870  1.00  0.00    -0.247 OA
HETATM   25  H   UNL     1      -1.488  -1.372  -1.600  1.00  0.00     0.164 HD
HETATM   26  H   UNL     1      -0.548  -0.304   1.524  1.00  0.00     0.170 HD
BRANCH  23  27
HETATM   27  C   UNL     1      -3.520  -0.874  -1.646  1.00  0.00     0.150 C 
BRANCH  27  28
HETATM   28  C   UNL     1      -4.321  -2.120  -1.881  1.00  0.00    -0.018 C 
HETATM   29  C   UNL     1      -4.184  -3.310  -1.278  1.00  0.00     0.008 C 
ENDBRANCH  27  28
ENDBRANCH  23  27
ENDBRANCH   4  21
TORSDOF 5
