REMARK  7 active torsions:
REMARK  status: ('A' for Active; 'I' for Inactive)
REMARK    1  A    between atoms: C_2  and  C_3 
REMARK    2  A    between atoms: N_10  and  C_11 
REMARK    3  A    between atoms: C_11  and  C_12 
REMARK       I    between atoms: C_12  and  N_13 
REMARK    4  A    between atoms: N_13  and  C_14 
REMARK    5  A    between atoms: C_17  and  C_18 
REMARK       I    between atoms: C_18  and  N_19 
REMARK    6  A    between atoms: N_19  and  C_20 
REMARK    7  A    between atoms: C_21  and  O_22 
ROOT
HETATM    1  C   UNL     1       4.400  -7.157   2.521  1.00  0.00     0.240 C 
HETATM    2  N   UNL     1       4.424  -5.900   3.090  1.00  0.00    -0.326 N 
HETATM    3  O   UNL     1       4.400  -8.222   3.140  1.00  0.00    -0.271 OA
HETATM    4  H   UNL     1       4.448  -5.111   2.456  1.00  0.00     0.169 HD
ENDROOT
BRANCH   2   5
HETATM    5  C   UNL     1       4.394  -5.599   4.474  1.00  0.00     0.034 A 
HETATM    6  C   UNL     1       4.375  -6.566   5.485  1.00  0.00     0.030 A 
HETATM    7  C   UNL     1       4.301  -6.203   6.837  1.00  0.00     0.019 A 
HETATM    8  C   UNL     1       4.252  -4.856   7.201  1.00  0.00     0.032 A 
HETATM    9  C   UNL     1       4.280  -3.880   6.196  1.00  0.00     0.019 A 
HETATM   10  C   UNL     1       4.359  -4.250   4.845  1.00  0.00     0.030 A 
BRANCH   8  11
HETATM   11  C   UNL     1       4.080  -4.429   8.621  1.00  0.00     0.256 C 
HETATM   12  N   UNL     1       4.632  -5.270   9.569  1.00  0.00    -0.321 N 
HETATM   13  H   UNL     1       5.270  -5.996   9.264  1.00  0.00     0.169 HD
HETATM   14  O   UNL     1       3.489  -3.376   8.838  1.00  0.00    -0.267 OA
BRANCH  12  15
HETATM   15  C   UNL     1       4.478  -5.209  10.975  1.00  0.00     0.068 A 
HETATM   16  C   UNL     1       5.248  -6.104  11.751  1.00  0.00     0.095 A 
HETATM   17  C   UNL     1       5.109  -6.112  13.143  1.00  0.00     0.039 A 
HETATM   18  C   UNL     1       4.215  -5.238  13.765  1.00  0.00     0.003 A 
HETATM   19  C   UNL     1       3.457  -4.356  13.001  1.00  0.00     0.002 A 
HETATM   20  C   UNL     1       3.587  -4.341  11.611  1.00  0.00     0.032 A 
BRANCH  16  21
HETATM   21  O   UNL     1       6.094  -6.930  11.044  1.00  0.00    -0.354 OA
HETATM   22  C   UNL     1       7.000  -7.720  11.807  1.00  0.00     0.210 C 
ENDBRANCH  16  21
ENDBRANCH  12  15
ENDBRANCH   8  11
ENDBRANCH   2   5
BRANCH   1  23
HETATM   23  C   UNL     1       4.447  -7.214   0.995  1.00  0.00     0.240 C 
BRANCH  23  24
HETATM   24  N   UNL     1       4.281  -5.997   0.229  1.00  0.00    -0.259 N 
HETATM   25  C   UNL     1       5.313  -5.248  -0.239  1.00  0.00     0.326 C 
HETATM   26  N   UNL     1       4.820  -4.353  -1.161  1.00  0.00    -0.324 N 
HETATM   27  O   UNL     1       6.488  -5.337   0.069  1.00  0.00    -0.247 OA
HETATM   28  C   UNL     1       3.471  -4.697  -1.577  1.00  0.00     0.116 C 
HETATM   29  H   UNL     1       5.474  -3.823  -1.725  1.00  0.00     0.165 HD
HETATM   30  C   UNL     1       3.520  -5.518  -2.878  1.00  0.00     0.041 C 
HETATM   31  C   UNL     1       3.119  -5.649  -0.409  1.00  0.00     0.256 C 
HETATM   32  C   UNL     1       2.582  -3.462  -1.691  1.00  0.00     0.041 C 
HETATM   33  C   UNL     1       2.128  -5.813  -3.436  1.00  0.00     0.007 C 
HETATM   34  C   UNL     1       1.283  -4.547  -3.635  1.00  0.00    -0.015 C 
HETATM   35  C   UNL     1       1.216  -3.747  -2.322  1.00  0.00     0.007 C 
HETATM   36  O   UNL     1       2.015  -6.121  -0.179  1.00  0.00    -0.270 OA
BRANCH  34  37
HETATM   37  C   UNL     1       1.801  -3.731  -4.837  1.00  0.00     0.000 C 
HETATM   38  C   UNL     1       0.829  -2.655  -5.300  1.00  0.00     0.005 C 
ENDBRANCH  34  37
ENDBRANCH  23  24
ENDBRANCH   1  23
TORSDOF 7
