REMARK  5 active torsions:
REMARK  status: ('A' for Active; 'I' for Inactive)
REMARK    1  A    between atoms: C_4  and  C_5 
REMARK    2  A    between atoms: N_7  and  C_8 
REMARK    3  A    between atoms: C_8  and  C_9 
REMARK    4  A    between atoms: C_9  and  N_10 
REMARK       I    between atoms: N_10  and  C_11 
REMARK    5  A    between atoms: C_11  and  C_12 
ROOT
HETATM    1  N   UNL     1       5.735  -4.608  -0.663  1.00  0.00    -0.359 N 
HETATM    2  C   UNL     1       4.929  -5.727  -0.633  1.00  0.00     0.230 C 
HETATM    3  O   UNL     1       3.706  -5.657  -0.505  1.00  0.00    -0.272 OA
HETATM    4  H   UNL     1       6.738  -4.745  -0.612  1.00  0.00     0.162 HD
ENDROOT
BRANCH   1   5
HETATM    5  C   UNL     1       5.229  -3.273  -0.385  1.00  0.00     0.144 C 
BRANCH   5   6
HETATM    6  C   UNL     1       4.153  -2.773  -1.353  1.00  0.00     0.174 C 
BRANCH   6   7
HETATM    7  N   UNL     1       3.869  -1.354  -1.148  1.00  0.00    -0.233 N 
HETATM    8  N   UNL     1       3.023  -1.053  -0.102  1.00  0.00    -0.169 NA
HETATM    9  C   UNL     1       2.782   0.197   0.152  1.00  0.00     0.087 A 
HETATM   10  C   UNL     1       3.331   1.317  -0.643  1.00  0.00     0.040 A 
HETATM   11  C   UNL     1       4.184   1.005  -1.619  1.00  0.00     0.078 A 
HETATM   12  C   UNL     1       4.545  -0.400  -1.894  1.00  0.00     0.263 A 
HETATM   13  O   UNL     1       5.391  -0.640  -2.752  1.00  0.00    -0.267 OA
BRANCH   9  14
HETATM   14  C   UNL     1       1.883   0.544   1.292  1.00  0.00    -0.006 A 
HETATM   15  C   UNL     1       2.057   1.711   2.048  1.00  0.00     0.014 A 
HETATM   16  C   UNL     1       1.199   1.991   3.115  1.00  0.00     0.001 A 
HETATM   17  C   UNL     1       0.172   1.106   3.438  1.00  0.00     0.000 A 
HETATM   18  C   UNL     1       0.003  -0.066   2.701  1.00  0.00     0.001 A 
HETATM   19  C   UNL     1       0.858  -0.349   1.635  1.00  0.00     0.014 A 
ENDBRANCH   9  14
ENDBRANCH   6   7
ENDBRANCH   5   6
ENDBRANCH   1   5
BRANCH   2  20
HETATM   20  C   UNL     1       5.646  -7.089  -0.699  1.00  0.00     0.149 C 
HETATM   21  C   UNL     1       6.055  -7.532   0.687  1.00  0.00    -0.007 A 
HETATM   22  C   UNL     1       7.406  -7.655   1.016  1.00  0.00     0.083 A 
HETATM   23  C   UNL     1       5.087  -7.808   1.668  1.00  0.00     0.011 A 
HETATM   24  C   UNL     1       7.789  -8.031   2.305  1.00  0.00     0.038 A 
HETATM   25  O   UNL     1       8.426  -7.420   0.127  1.00  0.00    -0.310 OA
HETATM   26  C   UNL     1       6.822  -8.299   3.274  1.00  0.00     0.003 A 
HETATM   27  C   UNL     1       5.470  -8.189   2.954  1.00  0.00     0.001 A 
HETATM   28  C   UNL     1       8.112  -7.264  -1.201  1.00  0.00     0.083 A 
HETATM   29  C   UNL     1       6.805  -7.110  -1.672  1.00  0.00    -0.007 A 
HETATM   30  C   UNL     1       9.190  -7.256  -2.089  1.00  0.00     0.038 A 
HETATM   31  C   UNL     1       6.591  -6.961  -3.052  1.00  0.00     0.011 A 
HETATM   32  C   UNL     1       7.669  -6.959  -3.938  1.00  0.00     0.001 A 
HETATM   33  C   UNL     1       8.968  -7.105  -3.457  1.00  0.00     0.003 A 
ENDBRANCH   2  20
TORSDOF 5
