REMARK  5 active torsions:
REMARK  status: ('A' for Active; 'I' for Inactive)
REMARK    1  A    between atoms: N_4  and  C_5 
REMARK    2  A    between atoms: C_16  and  N_17 
REMARK       I    between atoms: N_17  and  C_18 
REMARK    3  A    between atoms: C_18  and  C_19 
REMARK       I    between atoms: C_19  and  N_20 
REMARK    4  A    between atoms: N_20  and  C_21 
REMARK    5  A    between atoms: C_21  and  C_22 
ROOT
HETATM    1  C   UNL     1       1.082   0.467  -0.200  1.00  0.00     0.072 C 
HETATM    2  C   UNL     1       2.549   0.246  -0.164  1.00  0.00     0.055 C 
HETATM    3  N   UNL     1       3.382   1.263   0.073  1.00  0.00    -0.156 NA
HETATM    4  N   UNL     1       4.635   0.699   0.028  1.00  0.00    -0.045 N 
HETATM    5  C   UNL     1       4.562  -0.690  -0.082  1.00  0.00     0.152 C 
HETATM    6  C   UNL     1       3.237  -0.973  -0.335  1.00  0.00     0.079 C 
ENDROOT
BRANCH   5   7
HETATM    7  N   UNL     1       5.603  -1.603  -0.035  1.00  0.00    -0.303 N 
HETATM    8  C   UNL     1       6.704  -1.556   0.803  1.00  0.00     0.315 C 
HETATM    9  O   UNL     1       7.655  -2.324   0.661  1.00  0.00    -0.262 OA
HETATM   10  H   UNL     1       5.494  -2.492  -0.506  1.00  0.00     0.171 HD
BRANCH   8  11
HETATM   11  C   UNL     1       6.689  -0.636   2.046  1.00  0.00     0.310 C 
HETATM   12  N   UNL     1       7.941  -0.274   2.488  1.00  0.00    -0.349 N 
HETATM   13  H   UNL     1       8.737  -0.685   2.010  1.00  0.00     0.163 HD
HETATM   14  O   UNL     1       5.640  -0.321   2.590  1.00  0.00    -0.262 OA
BRANCH  12  15
HETATM   15  C   UNL     1       8.136   0.405   3.742  1.00  0.00     0.163 C 
BRANCH  15  16
HETATM   16  C   UNL     1       8.994   1.632   3.593  1.00  0.00    -0.019 A 
HETATM   17  C   UNL     1      10.396   1.578   3.554  1.00  0.00     0.042 A 
HETATM   18 CL   UNL     1      11.251   0.078   3.607  1.00  0.00    -0.084 Cl
HETATM   19  C   UNL     1      11.150   2.753   3.467  1.00  0.00     0.024 A 
HETATM   20  C   UNL     1      10.515   3.993   3.403  1.00  0.00     0.002 A 
HETATM   21  C   UNL     1       9.125   4.059   3.404  1.00  0.00     0.001 A 
HETATM   22  C   UNL     1       8.370   2.889   3.493  1.00  0.00     0.010 A 
ENDBRANCH  15  16
ENDBRANCH  12  15
ENDBRANCH   8  11
ENDBRANCH   5   7
BRANCH   4  23
HETATM   23  C   UNL     1       5.752   1.558  -0.067  1.00  0.00     0.732 A 
HETATM   24  N   UNL     1       6.959   1.155  -0.302  1.00  0.00    -0.067 NA
HETATM   25  C   UNL     1       7.925   2.128  -0.409  1.00  0.00     0.065 A 
HETATM   26  C   UNL     1       7.683   3.449  -0.312  1.00  0.00     0.036 A 
HETATM   27  C   UNL     1       9.318   1.613  -0.694  1.00  0.00     0.060 C 
HETATM   28  C   UNL     1       8.724   4.517  -0.469  1.00  0.00     0.046 C 
HETATM   29  C   UNL     1       6.290   3.879  -0.038  1.00  0.00     0.268 A 
HETATM   30  C   UNL     1      10.155   3.977  -0.481  1.00  0.00     0.005 C 
HETATM   31  C   UNL     1      10.258   2.676  -1.265  1.00  0.00     0.006 C 
HETATM   32  O   UNL     1       5.979   5.060   0.067  1.00  0.00    -0.267 OA
HETATM   33  N   UNL     1       5.389   2.869   0.079  1.00  0.00    -0.152 N 
HETATM   34  H   UNL     1       4.411   3.089   0.235  1.00  0.00     0.188 HD
ENDBRANCH   4  23
TORSDOF 5
