REMARK  4 active torsions:
REMARK  status: ('A' for Active; 'I' for Inactive)
REMARK    1  A    between atoms: C_2  and  C_3 
REMARK    2  A    between atoms: C_4  and  C_5 
REMARK       I    between atoms: C_5  and  N_6 
REMARK    3  A    between atoms: N_6  and  C_7 
REMARK    4  A    between atoms: C_14  and  C_15 
REMARK       I    between atoms: C_15  and  N_16 
ROOT
HETATM    1  C   UNL     1      -1.835   4.718  -2.487  1.00  0.00     0.035 A 
HETATM    2  C   UNL     1      -1.742   4.891  -3.875  1.00  0.00     0.046 A 
HETATM    3  C   UNL     1      -2.887   5.281  -4.607  1.00  0.00     0.030 A 
HETATM    4  C   UNL     1      -4.080   5.486  -3.926  1.00  0.00     0.063 A 
HETATM    5  N   UNL     1      -4.988   5.841  -4.884  1.00  0.00    -0.277 N 
HETATM    6  H   UNL     1      -5.968   6.064  -4.748  1.00  0.00     0.189 HD
HETATM    7  N   UNL     1      -4.493   5.890  -6.130  1.00  0.00    -0.168 NA
HETATM    8  C   UNL     1      -3.193   5.548  -5.976  1.00  0.00     0.156 A 
HETATM    9  C   UNL     1      -4.207   5.330  -2.545  1.00  0.00     0.034 A 
HETATM   10  C   UNL     1      -3.059   4.944  -1.843  1.00  0.00     0.032 A 
ENDROOT
BRANCH   1  11
HETATM   11  N   UNL     1      -0.757   4.314  -1.670  1.00  0.00    -0.327 N 
HETATM   12  C   UNL     1       0.521   3.977  -2.063  1.00  0.00     0.227 C 
HETATM   13  O   UNL     1       0.963   3.980  -3.202  1.00  0.00    -0.273 OA
HETATM   14  H   UNL     1      -0.966   4.226  -0.688  1.00  0.00     0.169 HD
BRANCH  12  15
HETATM   15  C   UNL     1       1.444   3.535  -0.972  1.00  0.00     0.087 A 
HETATM   16  C   UNL     1       1.048   2.338  -0.119  1.00  0.00     0.032 A 
HETATM   17  C   UNL     1       1.222   3.703   0.507  1.00  0.00     0.025 A 
BRANCH  16  18
HETATM   18  C   UNL     1       2.050   1.243   0.151  1.00  0.00    -0.053 A 
HETATM   19  C   UNL     1       2.289   0.782   1.457  1.00  0.00     0.009 A 
HETATM   20  C   UNL     1       3.195  -0.253   1.710  1.00  0.00     0.024 A 
HETATM   21  C   UNL     1       3.875  -0.849   0.652  1.00  0.00     0.034 A 
HETATM   22  C   UNL     1       3.655  -0.419  -0.652  1.00  0.00     0.024 A 
HETATM   23 CL   UNL     1       4.986  -2.125   0.959  1.00  0.00    -0.084 Cl
HETATM   24  C   UNL     1       2.746   0.615  -0.897  1.00  0.00     0.009 A 
ENDBRANCH  16  18
ENDBRANCH  12  15
ENDBRANCH   1  11
BRANCH   8  25
HETATM   25  C   UNL     1      -2.283   5.484  -7.128  1.00  0.00     0.270 C 
HETATM   26  N   UNL     1      -2.877   5.781  -8.325  1.00  0.00    -0.365 N 
HETATM   27  H   UNL     1      -3.863   6.016  -8.332  1.00  0.00     0.159 HD
HETATM   28  H   UNL     1      -2.331   5.765  -9.171  1.00  0.00     0.159 HD
HETATM   29  O   UNL     1      -1.093   5.196  -7.066  1.00  0.00    -0.266 OA
ENDBRANCH   8  25
TORSDOF 4
