REMARK  7 active torsions:
REMARK  status: ('A' for Active; 'I' for Inactive)
REMARK    1  A    between atoms: O_2  and  C_3 
REMARK    2  A    between atoms: C_3  and  C_4 
REMARK    3  A    between atoms: C_5  and  N_6 
REMARK       I    between atoms: N_6  and  C_7 
REMARK    4  A    between atoms: C_7  and  C_8 
REMARK    5  A    between atoms: C_8  and  N_9 
REMARK    6  A    between atoms: C_11  and  C_12 
REMARK    7  A    between atoms: C_20  and  O_21 
ROOT
HETATM    1  N   UNL     1      -2.224  -0.566   1.273  1.00  0.00    -0.054 N 
HETATM    2  H   UNL     1      -1.959  -1.156   0.480  1.00  0.00     0.281 HD
HETATM    3  C   UNL     1      -1.002   0.277   1.638  1.00  0.00     0.228 C 
HETATM    4  C   UNL     1      -0.556   1.155   0.421  1.00  0.00     0.055 C 
HETATM    5  C   UNL     1      -1.738   1.989  -0.134  1.00  0.00     0.065 C 
HETATM    6  C   UNL     1      -2.979   1.122  -0.375  1.00  0.00     0.066 C 
HETATM    7  C   UNL     1      -3.369   0.317   0.846  1.00  0.00     0.239 C 
HETATM    8  C   UNL     1       0.140   0.416  -0.734  1.00  0.00     0.010 C 
HETATM    9  C   UNL     1       0.671   1.376  -1.808  1.00  0.00     0.001 C 
HETATM   10  C   UNL     1       0.090   2.784  -1.727  1.00  0.00     0.003 C 
HETATM   11  C   UNL     1      -1.405   2.744  -1.443  1.00  0.00     0.038 C 
ENDROOT
BRANCH   1  12
HETATM   12  C   UNL     1      -2.705  -1.546   2.378  1.00  0.00     0.338 C 
BRANCH  12  13
HETATM   13  C   UNL     1      -3.059  -0.941   3.745  1.00  0.00     0.248 C 
HETATM   14  N   UNL     1      -4.093  -1.438   4.487  1.00  0.00    -0.319 N 
HETATM   15  H   UNL     1      -3.978  -1.302   5.495  1.00  0.00     0.169 HD
HETATM   16  O   UNL     1      -2.314  -0.103   4.261  1.00  0.00    -0.271 OA
BRANCH  14  17
HETATM   17  C   UNL     1      -5.369  -1.839   4.118  1.00  0.00     0.094 A 
HETATM   18  C   UNL     1      -6.322  -2.431   4.943  1.00  0.00     0.080 A 
HETATM   19  C   UNL     1      -7.584  -2.583   4.238  1.00  0.00    -0.026 A 
HETATM   20  C   UNL     1      -7.518  -2.048   2.965  1.00  0.00    -0.008 A 
HETATM   21  C   UNL     1      -8.874  -3.151   4.776  1.00  0.00     0.041 C 
HETATM   22  S   UNL     1      -5.986  -1.446   2.590  1.00  0.00    -0.075 SA
HETATM   23  C   UNL     1      -8.653  -1.981   1.988  1.00  0.00     0.047 C 
HETATM   24  C   UNL     1      -9.991  -2.143   2.720  1.00  0.00     0.005 C 
HETATM   25  C   UNL     1      -9.946  -3.331   3.688  1.00  0.00     0.005 C 
BRANCH  18  26
HETATM   26  C   UNL     1      -6.014  -2.807   6.331  1.00  0.00     0.296 C 
HETATM   27  O   UNL     1      -4.929  -2.563   6.848  1.00  0.00    -0.259 OA
BRANCH  26  28
HETATM   28  O   UNL     1      -7.036  -3.445   6.963  1.00  0.00    -0.322 OA
HETATM   29  C   UNL     1      -6.751  -3.854   8.302  1.00  0.00     0.213 C 
ENDBRANCH  26  28
ENDBRANCH  18  26
ENDBRANCH  14  17
ENDBRANCH  12  13
ENDBRANCH   1  12
BRANCH   3  30
HETATM   30  C   UNL     1       0.168  -0.500   2.232  1.00  0.00    -0.027 A 
HETATM   31  C   UNL     1       0.620  -1.727   1.713  1.00  0.00     0.012 A 
HETATM   32  C   UNL     1       1.718  -2.379   2.281  1.00  0.00     0.043 A 
HETATM   33  C   UNL     1       2.373  -1.811   3.366  1.00  0.00     0.116 A 
HETATM   34  F   UNL     1       3.428  -2.438   3.901  1.00  0.00    -0.206 F 
HETATM   35  C   UNL     1       1.951  -0.603   3.898  1.00  0.00     0.043 A 
HETATM   36  C   UNL     1       0.854   0.052   3.333  1.00  0.00     0.012 A 
ENDBRANCH   3  30
BRANCH   5  37
HETATM   37  O   UNL     1      -2.098   2.937   0.874  1.00  0.00    -0.389 OA
HETATM   38  H   UNL     1      -1.522   3.723   0.795  1.00  0.00     0.210 HD
ENDBRANCH   5  37
TORSDOF 7
