REMARK  4 active torsions:
REMARK  status: ('A' for Active; 'I' for Inactive)
REMARK    1  A    between atoms: C_3  and  C_4 
REMARK    2  A    between atoms: C_15  and  C_16 
REMARK       I    between atoms: C_16  and  N_17 
REMARK    3  A    between atoms: N_17  and  C_18 
REMARK    4  A    between atoms: C_18  and  C_19 
ROOT
HETATM    1  C   UNL     1       0.842  -0.190  -0.578  1.00  0.00     0.055 C 
HETATM    2  C   UNL     1       2.335  -0.087  -0.484  1.00  0.00     0.024 A 
HETATM    3  C   UNL     1       3.071   1.038  -0.414  1.00  0.00     0.096 A 
HETATM    4  O   UNL     1       4.443   1.082  -0.258  1.00  0.00    -0.307 OA
HETATM    5  C   UNL     1       5.164  -0.084  -0.266  1.00  0.00     0.106 A 
HETATM    6  C   UNL     1       4.534  -1.323  -0.389  1.00  0.00     0.050 A 
HETATM    7  C   UNL     1       3.065  -1.378  -0.465  1.00  0.00     0.193 A 
HETATM    8  O   UNL     1       2.477  -2.452  -0.522  1.00  0.00    -0.287 OA
HETATM    9  C   UNL     1       6.562  -0.027  -0.139  1.00  0.00     0.066 A 
HETATM   10  C   UNL     1       7.299  -1.227  -0.177  1.00  0.00     0.020 A 
HETATM   11  C   UNL     1       6.661  -2.459  -0.326  1.00  0.00     0.002 A 
HETATM   12  C   UNL     1       5.275  -2.509  -0.423  1.00  0.00     0.018 A 
ENDROOT
BRANCH   9  13
HETATM   13  C   UNL     1       7.344   1.228   0.097  1.00  0.00     0.255 C 
HETATM   14  N   UNL     1       6.718   2.433  -0.116  1.00  0.00    -0.349 N 
HETATM   15  H   UNL     1       5.747   2.450  -0.405  1.00  0.00     0.163 HD
HETATM   16  O   UNL     1       8.509   1.151   0.477  1.00  0.00    -0.268 OA
BRANCH  14  17
HETATM   17  C   UNL     1       7.330   3.696   0.256  1.00  0.00     0.114 C 
HETATM   18  C   UNL     1       6.913   4.086   1.677  1.00  0.00     0.037 C 
BRANCH  17  19
HETATM   19  C   UNL     1       7.006   4.741  -0.791  1.00  0.00    -0.033 A 
HETATM   20  C   UNL     1       5.809   5.464  -0.801  1.00  0.00     0.028 A 
HETATM   21  C   UNL     1       5.595   6.389  -1.813  1.00  0.00     0.116 A 
HETATM   22  N   UNL     1       6.471   6.633  -2.809  1.00  0.00    -0.273 NA
HETATM   23  C   UNL     1       7.613   5.914  -2.798  1.00  0.00     0.116 A 
HETATM   24  C   UNL     1       7.918   4.970  -1.830  1.00  0.00     0.028 A 
ENDBRANCH  17  19
ENDBRANCH  14  17
ENDBRANCH   9  13
BRANCH   3  25
HETATM   25  C   UNL     1       2.484   2.383  -0.506  1.00  0.00    -0.002 A 
HETATM   26  C   UNL     1       2.454   3.222   0.613  1.00  0.00     0.014 A 
HETATM   27  C   UNL     1       1.911   4.504   0.514  1.00  0.00     0.001 A 
HETATM   28  C   UNL     1       1.403   4.959  -0.702  1.00  0.00     0.000 A 
HETATM   29  C   UNL     1       1.439   4.133  -1.824  1.00  0.00     0.001 A 
HETATM   30  C   UNL     1       1.981   2.851  -1.728  1.00  0.00     0.014 A 
ENDBRANCH   3  25
TORSDOF 4
