REMARK  10 active torsions:
REMARK  status: ('A' for Active; 'I' for Inactive)
REMARK    1  A    between atoms: C_2  and  O_3 
REMARK    2  A    between atoms: O_3  and  C_4 
REMARK    3  A    between atoms: C_4  and  C_5 
REMARK    4  A    between atoms: C_10  and  N_11 
REMARK       I    between atoms: N_11  and  C_12 
REMARK    5  A    between atoms: C_12  and  C_13 
REMARK    6  A    between atoms: C_13  and  C_14 
REMARK    7  A    between atoms: C_14  and  N_15 
REMARK    8  A    between atoms: C_19  and  C_20 
REMARK    9  A    between atoms: C_20  and  O_21 
REMARK   10  A    between atoms: O_21  and  C_22 
ROOT
HETATM    1  N   UNL     1       3.271  -3.006  -2.482  1.00  0.00    -0.324 N 
HETATM    2  C   UNL     1       4.056  -2.619  -1.449  1.00  0.00     0.223 C 
HETATM    3  O   UNL     1       4.410  -1.437  -1.392  1.00  0.00    -0.273 OA
HETATM    4  H   UNL     1       3.091  -2.203  -3.093  1.00  0.00     0.169 HD
ENDROOT
BRANCH   1   5
HETATM    5  C   UNL     1       2.691  -4.191  -2.933  1.00  0.00     0.080 A 
HETATM    6  C   UNL     1       1.974  -4.142  -4.130  1.00  0.00     0.137 A 
HETATM    7  N   UNL     1       1.543  -5.409  -4.417  1.00  0.00    -0.349 N 
HETATM    8  H   UNL     1       1.006  -5.652  -5.241  1.00  0.00     0.166 HD
HETATM    9  C   UNL     1       1.909  -6.284  -3.431  1.00  0.00     0.045 A 
HETATM   10  C   UNL     1       2.614  -5.556  -2.461  1.00  0.00     0.021 A 
HETATM   11  C   UNL     1       1.644  -7.659  -3.347  1.00  0.00     0.032 A 
HETATM   12  C   UNL     1       3.033  -6.298  -1.332  1.00  0.00     0.035 A 
HETATM   13  C   UNL     1       2.768  -7.671  -1.226  1.00  0.00     0.012 A 
HETATM   14  C   UNL     1       2.089  -8.349  -2.222  1.00  0.00     0.021 A 
HETATM   15 BR   UNL     1       3.351  -8.599   0.319  1.00  0.00    -0.051 Br
BRANCH   6  16
HETATM   16  C   UNL     1       1.689  -3.004  -4.977  1.00  0.00     0.312 C 
HETATM   17  O   UNL     1       2.103  -1.872  -4.768  1.00  0.00    -0.258 OA
BRANCH  16  18
HETATM   18  O   UNL     1       0.886  -3.381  -6.009  1.00  0.00    -0.317 OA
BRANCH  18  19
HETATM   19  C   UNL     1       0.463  -2.325  -6.886  1.00  0.00     0.175 C 
HETATM   20  C   UNL     1       1.476  -2.128  -7.997  1.00  0.00     0.034 C 
ENDBRANCH  18  19
ENDBRANCH  16  18
ENDBRANCH   6  16
ENDBRANCH   1   5
BRANCH   2  21
HETATM   21  C   UNL     1       4.501  -3.566  -0.378  1.00  0.00     0.131 C 
BRANCH  21  22
HETATM   22  C   UNL     1       5.370  -2.816   0.626  1.00  0.00     0.244 C 
BRANCH  22  23
HETATM   23  N   UNL     1       5.956  -3.728   1.712  1.00  0.00    -0.071 N 
HETATM   24  H   UNL     1       6.592  -4.387   1.241  1.00  0.00     0.279 HD
HETATM   25  C   UNL     1       6.802  -2.875   2.643  1.00  0.00     0.235 C 
HETATM   26  C   UNL     1       7.404  -3.722   3.753  1.00  0.00     0.042 C 
HETATM   27  C   UNL     1       6.327  -4.467   4.543  1.00  0.00     0.088 C 
HETATM   28  C   UNL     1       5.535  -5.348   3.571  1.00  0.00     0.042 C 
HETATM   29  C   UNL     1       4.906  -4.542   2.438  1.00  0.00     0.235 C 
BRANCH  27  30
HETATM   30  C   UNL     1       5.390  -3.518   5.281  1.00  0.00     0.263 C 
HETATM   31  O   UNL     1       4.171  -3.577   5.202  1.00  0.00    -0.265 OA
BRANCH  30  32
HETATM   32  O   UNL     1       6.087  -2.581   5.970  1.00  0.00    -0.322 OA
BRANCH  32  33
HETATM   33  C   UNL     1       5.297  -1.591   6.654  1.00  0.00     0.174 C 
HETATM   34  C   UNL     1       4.919  -0.476   5.695  1.00  0.00     0.034 C 
ENDBRANCH  32  33
ENDBRANCH  30  32
ENDBRANCH  27  30
ENDBRANCH  22  23
ENDBRANCH  21  22
ENDBRANCH   2  21
TORSDOF 10
