REMARK  3 active torsions:
REMARK  status: ('A' for Active; 'I' for Inactive)
REMARK    1  A    between atoms: C_11  and  N_12 
REMARK       I    between atoms: N_12  and  C_13 
REMARK    2  A    between atoms: C_13  and  C_14 
REMARK    3  A    between atoms: C_18  and  C_19 
ROOT
HETATM    1  N   UNL     1       0.972   2.087  -1.642  1.00  0.00    -0.351 N 
HETATM    2  C   UNL     1       0.367   2.643  -2.759  1.00  0.00     0.272 C 
HETATM    3  O   UNL     1       0.910   2.723  -3.854  1.00  0.00    -0.266 OA
HETATM    4  H   UNL     1       0.449   2.329  -0.798  1.00  0.00     0.163 HD
ENDROOT
BRANCH   1   5
HETATM    5  C   UNL     1       2.386   1.784  -1.575  1.00  0.00     0.089 C 
HETATM    6  C   UNL     1       2.875   0.755  -2.604  1.00  0.00     0.063 C 
HETATM    7  C   UNL     1       2.427  -0.687  -2.344  1.00  0.00     0.121 C 
HETATM    8  N   UNL     1       2.721  -1.056  -0.903  1.00  0.00    -0.059 N 
HETATM    9  C   UNL     1       0.956  -0.961  -2.674  1.00  0.00     0.046 C 
HETATM   10  C   UNL     1       3.277  -1.642  -3.208  1.00  0.00     0.046 C 
HETATM   11  C   UNL     1       2.396  -0.092   0.218  1.00  0.00     0.121 C 
HETATM   12  H   UNL     1       3.730  -1.256  -0.849  1.00  0.00     0.279 HD
HETATM   13  H   UNL     1       2.275  -1.963  -0.702  1.00  0.00     0.279 HD
HETATM   14  C   UNL     1       0.923  -0.228   0.620  1.00  0.00     0.046 C 
HETATM   15  C   UNL     1       3.244  -0.545   1.426  1.00  0.00     0.046 C 
HETATM   16  C   UNL     1       2.805   1.339  -0.171  1.00  0.00     0.063 C 
ENDBRANCH   1   5
BRANCH   2  17
HETATM   17  C   UNL     1      -0.996   3.116  -2.486  1.00  0.00     0.146 A 
HETATM   18  N   UNL     1      -1.555   2.973  -1.266  1.00  0.00    -0.169 NA
HETATM   19  N   UNL     1      -2.783   3.509  -1.417  1.00  0.00    -0.277 N 
HETATM   20  H   UNL     1      -3.417   3.493  -0.625  1.00  0.00     0.189 HD
HETATM   21  C   UNL     1      -3.036   4.010  -2.669  1.00  0.00     0.063 A 
HETATM   22  C   UNL     1      -1.884   3.752  -3.385  1.00  0.00     0.071 A 
BRANCH  21  23
HETATM   23  C   UNL     1      -4.300   4.639  -3.056  1.00  0.00    -0.008 A 
HETATM   24  C   UNL     1      -5.115   5.284  -2.114  1.00  0.00     0.014 A 
HETATM   25  C   UNL     1      -6.320   5.879  -2.500  1.00  0.00     0.001 A 
HETATM   26  C   UNL     1      -6.724   5.840  -3.831  1.00  0.00     0.000 A 
HETATM   27  C   UNL     1      -5.924   5.208  -4.779  1.00  0.00     0.001 A 
HETATM   28  C   UNL     1      -4.720   4.613  -4.394  1.00  0.00     0.014 A 
ENDBRANCH  21  23
ENDBRANCH   2  17
TORSDOF 3
