REMARK  6 active torsions:
REMARK  status: ('A' for Active; 'I' for Inactive)
REMARK    1  A    between atoms: C_4  and  O_5 
REMARK    2  A    between atoms: O_5  and  C_6 
REMARK    3  A    between atoms: C_6  and  C_7 
REMARK       I    between atoms: C_7  and  N_8 
REMARK    4  A    between atoms: N_8  and  N_9 
REMARK       I    between atoms: N_9  and  C_10 
REMARK    5  A    between atoms: C_10  and  C_11 
REMARK    6  A    between atoms: C_12  and  C_13 
ROOT
HETATM    1  N   UNL     1       7.429   2.708  -0.992  1.00  0.00    -0.263 N 
HETATM    2  C   UNL     1       8.336   2.837   0.045  1.00  0.00     0.274 C 
HETATM    3  O   UNL     1       8.493   3.907   0.631  1.00  0.00    -0.266 OA
HETATM    4  H   UNL     1       7.074   1.784  -1.238  1.00  0.00     0.190 HD
ENDROOT
BRANCH   1   5
HETATM    5  N   UNL     1       6.525   3.769  -1.202  1.00  0.00    -0.265 N 
HETATM    6  C   UNL     1       5.179   3.442  -1.231  1.00  0.00     0.260 C 
HETATM    7  O   UNL     1       4.797   2.272  -1.217  1.00  0.00    -0.269 OA
HETATM    8  H   UNL     1       6.841   4.681  -0.872  1.00  0.00     0.190 HD
BRANCH   6   9
HETATM    9  C   UNL     1       4.249   4.649  -1.306  1.00  0.00     0.280 C 
BRANCH   9  10
HETATM   10  O   UNL     1       3.207   4.352  -2.233  1.00  0.00    -0.342 OA
BRANCH  10  11
HETATM   11  C   UNL     1       2.221   5.298  -2.250  1.00  0.00     0.069 A 
HETATM   12  C   UNL     1       2.467   6.643  -2.533  1.00  0.00     0.043 A 
HETATM   13  C   UNL     1       1.404   7.555  -2.592  1.00  0.00    -0.059 A 
HETATM   14  C   UNL     1       1.650   8.993  -2.940  1.00  0.00     0.048 C 
HETATM   15  C   UNL     1       0.096   7.093  -2.397  1.00  0.00     0.007 A 
HETATM   16  C   UNL     1      -0.147   5.743  -2.137  1.00  0.00     0.003 A 
HETATM   17  C   UNL     1       0.916   4.845  -2.073  1.00  0.00     0.037 A 
ENDBRANCH  10  11
ENDBRANCH   9  10
ENDBRANCH   6   9
ENDBRANCH   1   5
BRANCH   2  18
HETATM   18  C   UNL     1       9.055   1.618   0.379  1.00  0.00     0.081 A 
HETATM   19  C   UNL     1       9.726   1.273   1.596  1.00  0.00     0.104 A 
HETATM   20  N   UNL     1      10.332   0.077   1.485  1.00  0.00    -0.174 NA
HETATM   21  N   UNL     1      10.034  -0.346   0.254  1.00  0.00    -0.288 N 
HETATM   22  H   UNL     1      10.395  -1.247  -0.044  1.00  0.00     0.188 HD
HETATM   23  C   UNL     1       9.271   0.532  -0.452  1.00  0.00     0.128 A 
BRANCH  19  24
HETATM   24  C   UNL     1       9.802   2.012   2.857  1.00  0.00    -0.004 A 
HETATM   25  C   UNL     1       8.662   2.598   3.423  1.00  0.00     0.015 A 
HETATM   26  C   UNL     1       8.746   3.284   4.639  1.00  0.00     0.024 A 
HETATM   27  C   UNL     1       9.969   3.379   5.298  1.00  0.00     0.034 A 
HETATM   28 CL   UNL     1      10.070   4.221   6.795  1.00  0.00    -0.084 Cl
HETATM   29  C   UNL     1      11.110   2.791   4.756  1.00  0.00     0.024 A 
HETATM   30  C   UNL     1      11.024   2.105   3.541  1.00  0.00     0.015 A 
ENDBRANCH  19  24
ENDBRANCH   2  18
TORSDOF 6
