REMARK  5 active torsions:
REMARK  status: ('A' for Active; 'I' for Inactive)
REMARK    1  A    between atoms: C_4  and  N_5 
REMARK    2  A    between atoms: N_8  and  C_10 
REMARK    3  A    between atoms: N_13  and  C_15 
REMARK    4  A    between atoms: C_15  and  C_16 
REMARK    5  A    between atoms: C_17  and  O_18 
ROOT
HETATM    1  C   UNL     1       6.368   0.107   2.018  1.00  0.00     0.191 C 
HETATM    2  C   UNL     1       7.178   1.396   2.203  1.00  0.00     0.061 C 
HETATM    3  C   UNL     1       8.364   1.583   1.256  1.00  0.00     0.237 C 
HETATM    4  N   UNL     1       9.156   0.326   1.041  1.00  0.00    -0.067 N 
HETATM    5  H   UNL     1       9.771   0.165   1.864  1.00  0.00     0.280 HD
HETATM    6  C   UNL     1       8.357  -0.929   0.823  1.00  0.00     0.237 C 
HETATM    7  C   UNL     1       7.325  -1.081   1.919  1.00  0.00     0.061 C 
ENDROOT
BRANCH   1   8
HETATM    8  N   UNL     1       5.289   0.179   0.921  1.00  0.00    -0.064 N 
HETATM    9  C   UNL     1       5.565   1.023  -0.341  1.00  0.00     0.255 C 
HETATM   10  C   UNL     1       4.381   1.000  -1.333  1.00  0.00     0.150 C 
HETATM   11  N   UNL     1       4.071  -0.397  -1.678  1.00  0.00    -0.378 N 
HETATM   12  C   UNL     1       3.563  -1.129  -0.502  1.00  0.00     0.150 C 
HETATM   13  C   UNL     1       4.665  -1.215   0.577  1.00  0.00     0.255 C 
HETATM   14  H   UNL     1       4.494   0.673   1.358  1.00  0.00     0.280 HD
BRANCH  11  15
HETATM   15  C   UNL     1       4.912  -1.040  -2.603  1.00  0.00     0.030 A 
HETATM   16  C   UNL     1       5.224  -2.409  -2.535  1.00  0.00     0.029 A 
HETATM   17  C   UNL     1       6.108  -3.021  -3.437  1.00  0.00     0.002 A 
HETATM   18  C   UNL     1       6.683  -2.284  -4.462  1.00  0.00     0.000 A 
HETATM   19  C   UNL     1       6.350  -0.945  -4.601  1.00  0.00     0.002 A 
HETATM   20  C   UNL     1       5.469  -0.342  -3.692  1.00  0.00     0.029 A 
ENDBRANCH  11  15
ENDBRANCH   1   8
BRANCH   4  21
HETATM   21  C   UNL     1      10.194   0.539  -0.073  1.00  0.00     0.276 C 
BRANCH  21  22
HETATM   22  C   UNL     1      11.094  -0.640  -0.298  1.00  0.00     0.002 A 
HETATM   23  C   UNL     1      11.932  -1.105   0.721  1.00  0.00     0.073 A 
HETATM   24  C   UNL     1      12.762  -2.207   0.528  1.00  0.00     0.038 A 
HETATM   25  C   UNL     1      12.747  -2.871  -0.700  1.00  0.00     0.022 A 
HETATM   26  C   UNL     1      11.910  -2.425  -1.720  1.00  0.00     0.011 A 
HETATM   27 BR   UNL     1      11.858  -3.344  -3.370  1.00  0.00    -0.051 Br
HETATM   28  C   UNL     1      11.091  -1.312  -1.530  1.00  0.00     0.030 A 
BRANCH  23  29
HETATM   29  O   UNL     1      11.880  -0.471   1.933  1.00  0.00    -0.360 OA
HETATM   30  H   UNL     1      12.668  -0.753   2.447  1.00  0.00     0.217 HD
ENDBRANCH  23  29
ENDBRANCH  21  22
ENDBRANCH   4  21
TORSDOF 5
