REMARK  3 active torsions:
REMARK  status: ('A' for Active; 'I' for Inactive)
REMARK    1  A    between atoms: O_2  and  C_3 
REMARK    2  A    between atoms: C_5  and  N_15 
REMARK    3  A    between atoms: C_8  and  C_9 
ROOT
HETATM    1  C   UNL     1       3.790  -1.662  -0.551  1.00  0.00     0.177 A 
HETATM    2  N   UNL     1       4.483  -1.172  -1.605  1.00  0.00    -0.206 NA
HETATM    3  C   UNL     1       4.189  -1.581  -2.849  1.00  0.00     0.135 A 
HETATM    4  C   UNL     1       3.182  -2.516  -3.063  1.00  0.00     0.052 A 
HETATM    5  C   UNL     1       2.460  -3.014  -1.973  1.00  0.00     0.020 A 
HETATM    6  C   UNL     1       2.751  -2.585  -0.675  1.00  0.00     0.030 A 
ENDROOT
BRANCH   3   7
HETATM    7  N   UNL     1       4.933  -1.044  -3.922  1.00  0.00    -0.302 N 
HETATM    8  C   UNL     1       4.760  -1.432  -5.297  1.00  0.00     0.135 C 
HETATM    9  C   UNL     1       5.494  -0.354  -6.076  1.00  0.00     0.040 C 
HETATM   10  C   UNL     1       6.631   0.057  -5.133  1.00  0.00     0.051 C 
HETATM   11  C   UNL     1       7.852  -0.896  -5.224  1.00  0.00     0.058 C 
HETATM   12  C   UNL     1       7.130   1.496  -5.372  1.00  0.00     0.058 C 
HETATM   13  C   UNL     1       5.977  -0.118  -3.769  1.00  0.00     0.234 C 
HETATM   14  C   UNL     1       8.891  -0.043  -5.878  1.00  0.00    -0.051 A 
HETATM   15  C   UNL     1      10.144  -0.437  -6.321  1.00  0.00     0.007 A 
HETATM   16  C   UNL     1       8.489   1.289  -5.960  1.00  0.00    -0.051 A 
HETATM   17  C   UNL     1      10.997   0.531  -6.857  1.00  0.00     0.001 A 
HETATM   18  C   UNL     1      10.592   1.871  -6.939  1.00  0.00     0.001 A 
HETATM   19  C   UNL     1       9.330   2.258  -6.486  1.00  0.00     0.007 A 
HETATM   20  O   UNL     1       6.381   0.431  -2.756  1.00  0.00    -0.272 OA
ENDBRANCH   3   7
BRANCH   1  21
HETATM   21  O   UNL     1       4.125  -1.202   0.708  1.00  0.00    -0.339 OA
HETATM   22  C   UNL     1       5.244  -0.317   0.707  1.00  0.00     0.211 C 
ENDBRANCH   1  21
BRANCH   6  23
HETATM   23  C   UNL     1       2.005  -3.102   0.463  1.00  0.00     0.015 A 
HETATM   24  C   UNL     1       2.385  -3.315   1.810  1.00  0.00     0.152 A 
HETATM   25  N   UNL     1       1.395  -3.812   2.557  1.00  0.00    -0.187 NA
HETATM   26  N   UNL     1       0.368  -3.899   1.699  1.00  0.00    -0.289 N 
HETATM   27  H   UNL     1      -0.521  -4.242   2.048  1.00  0.00     0.188 HD
HETATM   28  C   UNL     1       0.681  -3.496   0.433  1.00  0.00     0.123 A 
ENDBRANCH   6  23
TORSDOF 3
