REMARK  8 active torsions:
REMARK  status: ('A' for Active; 'I' for Inactive)
REMARK    1  A    between atoms: C_4  and  C_5 
REMARK    2  A    between atoms: C_9  and  C_10 
REMARK       I    between atoms: C_10  and  N_11 
REMARK    3  A    between atoms: N_11  and  C_12 
REMARK    4  A    between atoms: C_12  and  C_13 
REMARK    5  A    between atoms: C_13  and  C_14 
REMARK    6  A    between atoms: C_14  and  C_15 
REMARK    7  A    between atoms: C_15  and  O_16 
REMARK    8  A    between atoms: O_16  and  C_17 
ROOT
HETATM    1  C   UNL     1       6.142  -1.429  -0.646  1.00  0.00     0.270 C 
HETATM    2  N   UNL     1       5.970  -2.788  -0.597  1.00  0.00    -0.345 N 
HETATM    3  O   UNL     1       5.204  -0.642  -0.586  1.00  0.00    -0.266 OA
HETATM    4  H   UNL     1       6.773  -3.395  -0.538  1.00  0.00     0.163 HD
ENDROOT
BRANCH   2   5
HETATM    5  C   UNL     1       4.665  -3.368  -0.418  1.00  0.00     0.217 C 
BRANCH   5   6
HETATM    6  C   UNL     1       4.802  -4.882  -0.428  1.00  0.00    -0.085 C 
BRANCH   6   7
HETATM    7  C   UNL     1       4.920  -6.180  -0.436  1.00  0.00    -0.078 C 
BRANCH   7   8
HETATM    8  C   UNL     1       5.057  -7.694  -0.445  1.00  0.00     0.269 C 
BRANCH   8   9
HETATM    9  O   UNL     1       3.803  -8.263  -0.078  1.00  0.00    -0.339 OA
BRANCH   9  10
HETATM   10  C   UNL     1       3.716  -9.628  -0.087  1.00  0.00     0.072 A 
HETATM   11  C   UNL     1       4.752 -10.517  -0.383  1.00  0.00     0.069 A 
HETATM   12  C   UNL     1       4.558 -11.894  -0.370  1.00  0.00     0.069 A 
HETATM   13  C   UNL     1       3.279 -12.393  -0.046  1.00  0.00    -0.007 A 
HETATM   14  N   UNL     1       5.590 -12.704  -0.666  1.00  0.00    -0.260 NA
HETATM   15  C   UNL     1       2.234 -11.507   0.257  1.00  0.00     0.016 A 
HETATM   16  C   UNL     1       3.095 -13.781  -0.038  1.00  0.00     0.015 A 
HETATM   17  C   UNL     1       2.457 -10.132   0.235  1.00  0.00     0.038 A 
HETATM   18  C   UNL     1       4.159 -14.620  -0.345  1.00  0.00     0.020 A 
HETATM   19  C   UNL     1       5.375 -14.038  -0.649  1.00  0.00     0.117 A 
ENDBRANCH   9  10
ENDBRANCH   8   9
ENDBRANCH   7   8
ENDBRANCH   6   7
ENDBRANCH   5   6
ENDBRANCH   2   5
BRANCH   1  20
HETATM   20  C   UNL     1       7.508  -0.994  -0.754  1.00  0.00     0.120 A 
HETATM   21  N   UNL     1       7.849   0.328  -0.708  1.00  0.00    -0.272 N 
HETATM   22  N   UNL     1       9.168   0.561  -0.790  1.00  0.00    -0.174 NA
HETATM   23  H   UNL     1       7.216   1.116  -0.605  1.00  0.00     0.189 HD
HETATM   24  C   UNL     1       9.718  -0.655  -0.937  1.00  0.00     0.089 A 
HETATM   25  C   UNL     1       8.708  -1.657  -0.918  1.00  0.00     0.071 A 
BRANCH  24  26
HETATM   26  C   UNL     1      11.166  -0.840  -1.075  1.00  0.00    -0.006 A 
HETATM   27  C   UNL     1      12.054   0.137  -0.603  1.00  0.00     0.014 A 
HETATM   28  C   UNL     1      13.436  -0.040  -0.713  1.00  0.00     0.001 A 
HETATM   29  C   UNL     1      13.946  -1.195  -1.302  1.00  0.00     0.000 A 
HETATM   30  C   UNL     1      13.076  -2.170  -1.784  1.00  0.00     0.001 A 
HETATM   31  C   UNL     1      11.694  -1.995  -1.671  1.00  0.00     0.014 A 
ENDBRANCH  24  26
ENDBRANCH   1  20
TORSDOF 8
