REMARK  11 active torsions:
REMARK  status: ('A' for Active; 'I' for Inactive)
REMARK    1  A    between atoms: C_2  and  O_3 
REMARK    2  A    between atoms: O_3  and  C_4 
REMARK    3  A    between atoms: C_7  and  N_8 
REMARK       I    between atoms: N_8  and  C_9 
REMARK    4  A    between atoms: C_9  and  C_10 
REMARK    5  A    between atoms: C_10  and  C_11 
REMARK    6  A    between atoms: N_12  and  C_13 
REMARK    7  A    between atoms: C_13  and  C_14 
REMARK    8  A    between atoms: C_14  and  C_15 
REMARK    9  A    between atoms: C_15  and  N_16 
REMARK   10  A    between atoms: C_20  and  C_21 
REMARK       I    between atoms: C_21  and  N_22 
REMARK   11  A    between atoms: N_28  and  C_29 
ROOT
HETATM    1  C   UNL     1       6.804  -0.041  -1.230  1.00  0.00     0.188 C 
HETATM    2  N   UNL     1       6.665  -1.060  -0.196  1.00  0.00    -0.344 N 
HETATM    3  C   UNL     1       5.918  -0.568   0.893  1.00  0.00     0.184 C 
HETATM    4  S   UNL     1       5.171  -1.565   2.012  1.00  0.00    -0.040 SA
HETATM    5  N   UNL     1       5.873   0.819   0.782  1.00  0.00    -0.257 N 
HETATM    6  C   UNL     1       6.370   1.195  -0.452  1.00  0.00     0.254 C 
HETATM    7  O   UNL     1       6.420   2.313  -0.955  1.00  0.00    -0.270 OA
ENDROOT
BRANCH   2   8
HETATM    8  C   UNL     1       7.066  -2.447  -0.464  1.00  0.00     0.128 C 
BRANCH   8   9
HETATM    9  C   UNL     1       8.023  -3.007   0.604  1.00  0.00     0.048 C 
BRANCH   9  10
HETATM   10  C   UNL     1       7.474  -4.255   1.304  1.00  0.00     0.236 C 
BRANCH  10  11
HETATM   11  N   UNL     1       8.010  -5.533   0.672  1.00  0.00    -0.071 N 
HETATM   12  H   UNL     1       8.039  -5.405  -0.347  1.00  0.00     0.279 HD
HETATM   13  C   UNL     1       9.412  -5.844   1.159  1.00  0.00     0.235 C 
HETATM   14  C   UNL     1       9.936  -7.092   0.459  1.00  0.00     0.042 C 
HETATM   15  C   UNL     1       9.029  -8.299   0.703  1.00  0.00     0.081 C 
HETATM   16  C   UNL     1       7.586  -7.968   0.311  1.00  0.00     0.042 C 
HETATM   17  C   UNL     1       7.058  -6.685   0.945  1.00  0.00     0.235 C 
BRANCH  15  18
HETATM   18  C   UNL     1       9.125  -8.733   2.158  1.00  0.00     0.219 C 
HETATM   19  N   UNL     1      10.278  -9.360   2.510  1.00  0.00    -0.370 N 
HETATM   20  H   UNL     1      10.871  -9.827   1.835  1.00  0.00     0.159 HD
HETATM   21  H   UNL     1      10.331  -9.711   3.462  1.00  0.00     0.159 HD
HETATM   22  O   UNL     1       8.277  -8.447   2.994  1.00  0.00    -0.273 OA
ENDBRANCH  15  18
ENDBRANCH  10  11
ENDBRANCH   9  10
ENDBRANCH   8   9
ENDBRANCH   2   8
BRANCH   1  23
HETATM   23  C   UNL     1       5.837  -0.248  -2.389  1.00  0.00     0.138 C 
BRANCH  23  24
HETATM   24  C   UNL     1       6.310   0.440  -3.655  1.00  0.00     0.224 C 
HETATM   25  N   UNL     1       6.133   1.806  -3.637  1.00  0.00    -0.327 N 
HETATM   26  H   UNL     1       5.983   2.254  -2.733  1.00  0.00     0.169 HD
HETATM   27  O   UNL     1       6.782  -0.231  -4.569  1.00  0.00    -0.273 OA
BRANCH  25  28
HETATM   28  C   UNL     1       6.183   2.695  -4.728  1.00  0.00     0.034 A 
HETATM   29  C   UNL     1       6.281   2.296  -6.059  1.00  0.00     0.032 A 
HETATM   30  C   UNL     1       6.232   3.251  -7.083  1.00  0.00     0.039 A 
HETATM   31  C   UNL     1       6.086   4.609  -6.793  1.00  0.00     0.068 A 
HETATM   32  C   UNL     1       6.014   5.012  -5.462  1.00  0.00     0.039 A 
HETATM   33  C   UNL     1       6.058   4.060  -4.438  1.00  0.00     0.032 A 
BRANCH  31  34
HETATM   34  O   UNL     1       6.022   5.430  -7.884  1.00  0.00    -0.352 OA
BRANCH  34  35
HETATM   35  C   UNL     1       5.744   6.809  -7.640  1.00  0.00     0.171 C 
HETATM   36  C   UNL     1       5.588   7.506  -8.979  1.00  0.00     0.034 C 
ENDBRANCH  34  35
ENDBRANCH  31  34
ENDBRANCH  25  28
ENDBRANCH  23  24
ENDBRANCH   1  23
BRANCH   5  37
HETATM   37  C   UNL     1       5.427   1.766   1.758  1.00  0.00     0.045 A 
HETATM   38  C   UNL     1       4.903   3.014   1.377  1.00  0.00     0.032 A 
HETATM   39  C   UNL     1       4.505   3.963   2.329  1.00  0.00     0.026 A 
HETATM   40  C   UNL     1       4.627   3.681   3.683  1.00  0.00     0.034 A 
HETATM   41 CL   UNL     1       4.147   4.843   4.853  1.00  0.00    -0.084 Cl
HETATM   42  C   UNL     1       5.152   2.461   4.091  1.00  0.00     0.026 A 
HETATM   43  C   UNL     1       5.555   1.519   3.135  1.00  0.00     0.032 A 
ENDBRANCH   5  37
TORSDOF 11
