REMARK  6 active torsions:
REMARK  status: ('A' for Active; 'I' for Inactive)
REMARK    1  A    between atoms: C_3  and  C_4 
REMARK    2  A    between atoms: C_4  and  C_5 
REMARK       I    between atoms: C_5  and  N_6 
REMARK    3  A    between atoms: N_6  and  C_7 
REMARK    4  A    between atoms: C_7  and  C_8 
REMARK    5  A    between atoms: C_8  and  C_9 
REMARK    6  A    between atoms: C_28  and  O_29 
ROOT
HETATM    1  C   UNL     1       4.339   3.549  -0.115  1.00  0.00     0.222 C 
HETATM    2  N   UNL     1       4.052   4.617   0.706  1.00  0.00    -0.360 N 
HETATM    3  O   UNL     1       5.448   3.359  -0.609  1.00  0.00    -0.273 OA
HETATM    4  H   UNL     1       3.144   4.669   1.163  1.00  0.00     0.162 HD
ENDROOT
BRANCH   1   5
HETATM    5  C   UNL     1       3.174   2.616  -0.385  1.00  0.00     0.148 C 
BRANCH   5   6
HETATM    6  C   UNL     1       3.118   1.522   0.648  1.00  0.00     0.033 C 
HETATM    7  C   UNL     1       3.838   0.382   0.623  1.00  0.00    -0.036 C 
HETATM    8  C   UNL     1       4.869   0.068  -0.432  1.00  0.00     0.050 C 
HETATM    9  C   UNL     1       3.600  -0.637   1.667  1.00  0.00     0.005 A 
HETATM   10  C   UNL     1       2.525  -0.476   2.547  1.00  0.00     0.099 A 
HETATM   11  C   UNL     1       4.371  -1.799   1.793  1.00  0.00     0.017 A 
HETATM   12  O   UNL     1       1.787   0.727   2.539  1.00  0.00    -0.274 OA
HETATM   13  C   UNL     1       2.150  -1.454   3.490  1.00  0.00     0.006 A 
HETATM   14  C   UNL     1       2.148   1.794   1.737  1.00  0.00     0.295 C 
HETATM   15  O   UNL     1       1.654   2.909   1.891  1.00  0.00    -0.259 OA
HETATM   16  C   UNL     1       0.948  -1.259   4.369  1.00  0.00     0.054 C 
HETATM   17  C   UNL     1       2.958  -2.591   3.589  1.00  0.00     0.074 A 
HETATM   18  C   UNL     1       4.058  -2.763   2.754  1.00  0.00     0.038 A 
BRANCH  17  19
HETATM   19  O   UNL     1       2.739  -3.591   4.492  1.00  0.00    -0.360 OA
HETATM   20  H   UNL     1       2.045  -3.324   5.115  1.00  0.00     0.217 HD
ENDBRANCH  17  19
ENDBRANCH   5   6
ENDBRANCH   1   5
BRANCH   2  21
HETATM   21  C   UNL     1       5.049   5.644   0.960  1.00  0.00     0.127 C 
BRANCH  21  22
HETATM   22  C   UNL     1       5.157   6.630  -0.208  1.00  0.00     0.060 C 
BRANCH  22  23
HETATM   23  C   UNL     1       6.418   7.435  -0.183  1.00  0.00    -0.029 A 
HETATM   24  C   UNL     1       6.628   8.718   0.415  1.00  0.00    -0.000 A 
HETATM   25  C   UNL     1       7.950   9.089   0.156  1.00  0.00     0.043 A 
HETATM   26  C   UNL     1       5.814   9.606   1.148  1.00  0.00     0.038 A 
HETATM   27  C   UNL     1       8.500  10.302   0.585  1.00  0.00     0.032 A 
HETATM   28  N   UNL     1       8.523   8.067  -0.564  1.00  0.00    -0.365 N 
HETATM   29  C   UNL     1       7.673  11.166   1.308  1.00  0.00     0.026 A 
HETATM   30  C   UNL     1       6.353  10.820   1.585  1.00  0.00     0.035 A 
HETATM   31 CL   UNL     1       5.362  11.909   2.481  1.00  0.00    -0.084 Cl
HETATM   32  H   UNL     1       9.478   8.061  -0.895  1.00  0.00     0.165 HD
HETATM   33  C   UNL     1       7.613   7.069  -0.772  1.00  0.00     0.096 A 
ENDBRANCH  22  23
ENDBRANCH  21  22
ENDBRANCH   2  21
TORSDOF 6
