REMARK  5 active torsions:
REMARK  status: ('A' for Active; 'I' for Inactive)
REMARK    1  A    between atoms: C_2  and  C_3 
REMARK    2  A    between atoms: C_3  and  N_4 
REMARK    3  A    between atoms: C_3  and  C_19 
REMARK       I    between atoms: N_4  and  C_5 
REMARK       I    between atoms: C_5  and  N_6 
REMARK    4  A    between atoms: N_6  and  C_7 
REMARK    5  A    between atoms: C_12  and  C_13 
ROOT
HETATM    1  N   UNL     1       2.210  -2.473   0.424  1.00  0.00    -0.334 N 
HETATM    2  C   UNL     1       0.908  -2.423   0.771  1.00  0.00     0.321 C 
HETATM    3  N   UNL     1       0.062  -3.406   0.381  1.00  0.00    -0.306 N 
HETATM    4  O   UNL     1       0.434  -1.492   1.423  1.00  0.00    -0.247 OA
HETATM    5  H   UNL     1       2.575  -3.361   0.126  1.00  0.00     0.165 HD
HETATM    6  H   UNL     1      -0.869  -3.153   0.694  1.00  0.00     0.171 HD
ENDROOT
BRANCH   1   7
HETATM    7  C   UNL     1       3.173  -1.519   0.948  1.00  0.00     0.122 C 
BRANCH   7   8
HETATM    8  C   UNL     1       3.566  -1.849   2.404  1.00  0.00     0.026 C 
HETATM    9  C   UNL     1       4.197  -3.224   2.593  1.00  0.00     0.007 C 
ENDBRANCH   7   8
BRANCH   7  10
HETATM   10  C   UNL     1       4.359  -1.424   0.034  1.00  0.00     0.001 A 
HETATM   11  C   UNL     1       4.808  -2.277  -0.959  1.00  0.00     0.122 A 
HETATM   12  N   UNL     1       5.936  -1.712  -1.478  1.00  0.00    -0.285 N 
HETATM   13  C   UNL     1       6.757  -2.231  -2.545  1.00  0.00     0.179 C 
HETATM   14  N   UNL     1       6.271  -0.552  -0.892  1.00  0.00    -0.185 NA
HETATM   15  C   UNL     1       5.311  -0.372   0.016  1.00  0.00     0.149 A 
ENDBRANCH   7  10
ENDBRANCH   1   7
BRANCH   3  16
HETATM   16  C   UNL     1       0.159  -4.627  -0.319  1.00  0.00     0.075 A 
HETATM   17  C   UNL     1       1.317  -5.238  -0.807  1.00  0.00     0.143 A 
HETATM   18  F   UNL     1       2.532  -4.706  -0.632  1.00  0.00    -0.204 F 
HETATM   19  C   UNL     1       1.267  -6.461  -1.481  1.00  0.00     0.045 A 
HETATM   20  C   UNL     1       0.050  -7.110  -1.674  1.00  0.00     0.019 A 
HETATM   21  C   UNL     1      -1.131  -6.534  -1.196  1.00  0.00     0.050 A 
HETATM   22  C   UNL     1      -1.061  -5.299  -0.520  1.00  0.00     0.049 A 
BRANCH  21  23
HETATM   23  C   UNL     1      -2.461  -7.231  -1.359  1.00  0.00     0.417 C 
HETATM   24  F   UNL     1      -2.441  -8.223  -2.291  1.00  0.00    -0.166 F 
HETATM   25  F   UNL     1      -2.883  -7.809  -0.202  1.00  0.00    -0.166 F 
HETATM   26  F   UNL     1      -3.455  -6.381  -1.738  1.00  0.00    -0.166 F 
ENDBRANCH  21  23
ENDBRANCH   3  16
TORSDOF 5
