REMARK  3 active torsions:
REMARK  status: ('A' for Active; 'I' for Inactive)
REMARK    1  A    between atoms: C_2  and  C_3 
REMARK    2  A    between atoms: C_9  and  N_10 
REMARK    3  A    between atoms: C_12  and  C_13 
ROOT
HETATM    1  C   UNL     1       1.296   2.444  -0.198  1.00  0.00    -0.006 A 
HETATM    2  C   UNL     1       0.630   3.660   0.170  1.00  0.00     0.063 A 
HETATM    3  C   UNL     1       1.356   4.850   0.058  1.00  0.00     0.165 A 
HETATM    4  N   UNL     1       0.844   6.037   0.343  1.00  0.00    -0.222 NA
HETATM    5  C   UNL     1      -0.417   6.083   0.760  1.00  0.00     0.237 A 
HETATM    6  N   UNL     1      -1.216   5.034   0.936  1.00  0.00    -0.229 NA
HETATM    7  C   UNL     1      -0.685   3.840   0.652  1.00  0.00     0.117 A 
HETATM    8  N   UNL     1       2.624   4.873  -0.341  1.00  0.00    -0.228 NA
HETATM    9  C   UNL     1       3.274   3.733  -0.657  1.00  0.00     0.070 A 
HETATM   10  C   UNL     1       2.633   2.509  -0.611  1.00  0.00     0.046 A 
ENDROOT
BRANCH   9  11
HETATM   11  C   UNL     1       4.691   3.890  -1.043  1.00  0.00    -0.004 A 
HETATM   12  C   UNL     1       5.656   2.910  -0.735  1.00  0.00     0.053 A 
HETATM   13  C   UNL     1       6.969   3.126  -1.107  1.00  0.00     0.106 A 
HETATM   14  C   UNL     1       7.361   4.264  -1.767  1.00  0.00     0.105 A 
HETATM   15  O   UNL     1       8.007   2.280  -0.869  1.00  0.00    -0.323 OA
HETATM   16  O   UNL     1       8.694   4.278  -2.032  1.00  0.00    -0.323 OA
HETATM   17  C   UNL     1       6.463   5.253  -2.091  1.00  0.00     0.040 A 
HETATM   18  C   UNL     1       9.101   3.026  -1.443  1.00  0.00     0.352 A 
HETATM   19  C   UNL     1       5.125   5.061  -1.721  1.00  0.00     0.017 A 
ENDBRANCH   9  11
BRANCH   1  20
HETATM   20  C   UNL     1       0.661   1.116  -0.183  1.00  0.00    -0.025 A 
HETATM   21  C   UNL     1      -0.300   0.764  -1.145  1.00  0.00     0.014 A 
HETATM   22  C   UNL     1      -0.887  -0.505  -1.141  1.00  0.00     0.024 A 
HETATM   23  C   UNL     1      -0.507  -1.439  -0.182  1.00  0.00     0.034 A 
HETATM   24  C   UNL     1       0.453  -1.116   0.774  1.00  0.00     0.024 A 
HETATM   25 CL   UNL     1      -1.226  -3.002  -0.177  1.00  0.00    -0.084 Cl
HETATM   26  C   UNL     1       1.034   0.155   0.772  1.00  0.00     0.014 A 
ENDBRANCH   1  20
BRANCH   7  27
HETATM   27  N   UNL     1      -1.580   2.790   0.851  1.00  0.00    -0.286 NA
HETATM   28  H   UNL     1      -2.431   3.180   1.248  1.00  0.00     0.125 HD
HETATM   29  H   UNL     1      -1.195   2.055   1.433  1.00  0.00     0.125 HD
ENDBRANCH   7  27
TORSDOF 3
