REMARK  6 active torsions:
REMARK  status: ('A' for Active; 'I' for Inactive)
REMARK    1  A    between atoms: C_2  and  C_3 
REMARK    2  A    between atoms: C_2  and  C_9 
REMARK    3  A    between atoms: C_9  and  C_10 
REMARK    4  A    between atoms: C_10  and  C_11 
REMARK       I    between atoms: C_11  and  N_12 
REMARK    5  A    between atoms: N_12  and  C_13 
REMARK    6  A    between atoms: C_20  and  C_21 
REMARK       I    between atoms: C_21  and  N_22 
ROOT
HETATM    1  C   UNL     1       5.577   1.274  -2.603  1.00  0.00     0.035 A 
HETATM    2  C   UNL     1       6.738   1.883  -2.107  1.00  0.00     0.046 A 
HETATM    3  C   UNL     1       7.729   1.090  -1.497  1.00  0.00     0.030 A 
HETATM    4  C   UNL     1       7.563  -0.288  -1.473  1.00  0.00     0.063 A 
HETATM    5  N   UNL     1       8.669  -0.773  -0.832  1.00  0.00    -0.277 N 
HETATM    6  H   UNL     1       8.892  -1.743  -0.640  1.00  0.00     0.189 HD
HETATM    7  N   UNL     1       9.523   0.173  -0.404  1.00  0.00    -0.168 NA
HETATM    8  C   UNL     1       8.955   1.330  -0.811  1.00  0.00     0.156 A 
HETATM    9  C   UNL     1       6.453  -0.930  -2.027  1.00  0.00     0.034 A 
HETATM   10  C   UNL     1       5.458  -0.117  -2.589  1.00  0.00     0.032 A 
ENDROOT
BRANCH   1  11
HETATM   11  N   UNL     1       4.592   2.127  -3.119  1.00  0.00    -0.327 N 
HETATM   12  C   UNL     1       3.231   2.045  -3.133  1.00  0.00     0.222 C 
HETATM   13  O   UNL     1       2.612   2.878  -3.803  1.00  0.00    -0.273 OA
HETATM   14  H   UNL     1       4.908   3.023  -3.476  1.00  0.00     0.169 HD
BRANCH  12  15
HETATM   15  C   UNL     1       2.472   1.030  -2.298  1.00  0.00     0.104 C 
BRANCH  15  16
HETATM   16  C   UNL     1       2.783   0.995  -0.793  1.00  0.00     0.023 C 
BRANCH  16  17
HETATM   17  C   UNL     1       2.351   2.220   0.076  1.00  0.00    -0.020 C 
HETATM   18  C   UNL     1       3.190   3.466  -0.290  1.00  0.00     0.020 C 
HETATM   19  C   UNL     1       2.728   1.897   1.550  1.00  0.00     0.020 C 
BRANCH  17  20
HETATM   20  C   UNL     1       0.831   2.447   0.002  1.00  0.00    -0.050 A 
HETATM   21  C   UNL     1       0.268   3.644  -0.470  1.00  0.00     0.008 A 
HETATM   22  C   UNL     1      -1.118   3.830  -0.511  1.00  0.00     0.001 A 
HETATM   23  C   UNL     1      -1.974   2.821  -0.083  1.00  0.00     0.000 A 
HETATM   24  C   UNL     1      -1.445   1.622   0.380  1.00  0.00     0.001 A 
HETATM   25  C   UNL     1      -0.060   1.438   0.420  1.00  0.00     0.008 A 
ENDBRANCH  17  20
ENDBRANCH  16  17
ENDBRANCH  15  16
ENDBRANCH  12  15
ENDBRANCH   1  11
BRANCH   8  26
HETATM   26  C   UNL     1       9.565   2.634  -0.517  1.00  0.00     0.270 C 
HETATM   27  N   UNL     1      10.711   2.563   0.226  1.00  0.00    -0.365 N 
HETATM   28  H   UNL     1      11.038   1.653   0.529  1.00  0.00     0.159 HD
HETATM   29  H   UNL     1      11.178   3.410   0.509  1.00  0.00     0.159 HD
HETATM   30  O   UNL     1       9.103   3.712  -0.878  1.00  0.00    -0.266 OA
ENDBRANCH   8  26
TORSDOF 6
