REMARK  9 active torsions:
REMARK  status: ('A' for Active; 'I' for Inactive)
REMARK    1  A    between atoms: N_5  and  C_6 
REMARK    2  A    between atoms: C_6  and  C_7 
REMARK    3  A    between atoms: C_7  and  O_8 
REMARK    4  A    between atoms: C_7  and  C_9 
REMARK    5  A    between atoms: C_9  and  O_10 
REMARK    6  A    between atoms: O_10  and  C_11 
REMARK    7  A    between atoms: N_23  and  C_24 
REMARK    8  A    between atoms: C_24  and  C_25 
REMARK    9  A    between atoms: C_25  and  N_26 
ROOT
HETATM    1  C   UNL     1      -1.904  -1.413  -0.219  1.00  0.00     0.002 A 
HETATM    2  C   UNL     1      -0.588  -1.835  -0.039  1.00  0.00     0.032 A 
HETATM    3  C   UNL     1       0.392  -0.859   0.001  1.00  0.00     0.079 A 
HETATM    4  C   UNL     1       0.115   0.528  -0.130  1.00  0.00     0.079 A 
HETATM    5  N   UNL     1       1.320   1.239  -0.026  1.00  0.00    -0.179 N 
HETATM    6  C   UNL     1       2.355   0.244   0.034  1.00  0.00     0.681 A 
HETATM    7  N   UNL     1       3.684   0.499  -0.020  1.00  0.00    -0.234 N 
HETATM    8  H   UNL     1       4.392  -0.220  -0.060  1.00  0.00     0.174 HD
HETATM    9  H   UNL     1       4.023   1.454  -0.087  1.00  0.00     0.174 HD
HETATM   10  N   UNL     1       1.815  -1.043   0.126  1.00  0.00    -0.180 N 
HETATM   11  C   UNL     1      -1.190   0.924  -0.322  1.00  0.00     0.032 A 
HETATM   12  C   UNL     1      -2.198  -0.050  -0.361  1.00  0.00     0.002 A 
ENDROOT
BRANCH   5  13
HETATM   13  C   UNL     1       1.553   2.580  -0.590  1.00  0.00     0.181 C 
BRANCH  13  14
HETATM   14  C   UNL     1       0.659   3.760  -0.174  1.00  0.00     0.161 C 
BRANCH  14  15
HETATM   15  O   UNL     1      -0.459   3.837  -1.063  1.00  0.00    -0.392 OA
HETATM   16  H   UNL     1      -0.966   4.640  -0.818  1.00  0.00     0.210 HD
ENDBRANCH  14  15
BRANCH  14  17
HETATM   17  C   UNL     1       0.202   3.788   1.288  1.00  0.00     0.209 C 
BRANCH  17  18
HETATM   18  O   UNL     1      -0.408   5.073   1.503  1.00  0.00    -0.347 OA
BRANCH  18  19
HETATM   19  C   UNL     1      -1.532   5.001   2.284  1.00  0.00     0.090 A 
HETATM   20  C   UNL     1      -2.786   5.292   1.731  1.00  0.00     0.069 A 
HETATM   21 CL   UNL     1      -2.955   5.658   0.053  1.00  0.00    -0.081 Cl
HETATM   22  C   UNL     1      -3.930   5.268   2.529  1.00  0.00     0.050 A 
HETATM   23  C   UNL     1      -3.808   4.972   3.884  1.00  0.00     0.035 A 
HETATM   24 CL   UNL     1      -5.211   4.936   4.878  1.00  0.00    -0.084 Cl
HETATM   25  C   UNL     1      -2.558   4.706   4.447  1.00  0.00     0.026 A 
HETATM   26  C   UNL     1      -1.414   4.727   3.647  1.00  0.00     0.040 A 
ENDBRANCH  18  19
ENDBRANCH  17  18
ENDBRANCH  14  17
ENDBRANCH  13  14
ENDBRANCH   5  13
BRANCH  10  27
HETATM   27  C   UNL     1       2.504  -2.344   0.106  1.00  0.00     0.175 C 
BRANCH  27  28
HETATM   28  C   UNL     1       2.780  -2.894   1.520  1.00  0.00     0.256 C 
BRANCH  28  29
HETATM   29  N   UNL     1       3.227  -4.341   1.565  1.00  0.00    -0.066 N 
HETATM   30  H   UNL     1       3.550  -4.505   2.531  1.00  0.00     0.280 HD
HETATM   31  C   UNL     1       2.093  -5.357   1.365  1.00  0.00     0.261 C 
HETATM   32  C   UNL     1       2.636  -6.777   1.570  1.00  0.00     0.195 C 
HETATM   33  O   UNL     1       3.722  -7.029   0.673  1.00  0.00    -0.388 OA
HETATM   34  C   UNL     1       4.830  -6.156   0.913  1.00  0.00     0.195 C 
HETATM   35  C   UNL     1       4.421  -4.698   0.674  1.00  0.00     0.261 C 
ENDBRANCH  28  29
ENDBRANCH  27  28
ENDBRANCH  10  27
TORSDOF 9
