REMARK  10 active torsions:
REMARK  status: ('A' for Active; 'I' for Inactive)
REMARK    1  A    between atoms: C_4  and  C_5 
REMARK    2  A    between atoms: C_7  and  C_8 
REMARK    3  A    between atoms: C_8  and  C_9 
REMARK       I    between atoms: C_9  and  N_10 
REMARK    4  A    between atoms: N_10  and  C_11 
REMARK    5  A    between atoms: C_11  and  C_12 
REMARK    6  A    between atoms: C_12  and  N_13 
REMARK    7  A    between atoms: C_24  and  C_25 
REMARK    8  A    between atoms: C_25  and  O_26 
REMARK    9  A    between atoms: O_26  and  C_27 
REMARK   10  A    between atoms: C_27  and  C_28 
ROOT
HETATM    1  C   UNL     1       3.997   7.415  -0.391  1.00  0.00     0.166 C 
HETATM    2  N   UNL     1       3.944   5.943  -0.283  1.00  0.00    -0.318 N 
HETATM    3  C   UNL     1       3.037   5.043  -0.089  1.00  0.00     0.011 C 
HETATM    4  C   UNL     1       5.357   5.308  -0.331  1.00  0.00     0.170 C 
HETATM    5  S   UNL     1       5.266   3.616  -0.679  1.00  0.00    -0.086 SA
HETATM    6  C   UNL     1       3.527   3.609  -0.128  1.00  0.00     0.135 C 
HETATM    7  N   UNL     1       6.433   5.915   0.034  1.00  0.00    -0.229 NA
HETATM    8  C   UNL     1       6.266   7.146   0.648  1.00  0.00     0.048 C 
HETATM    9  C   UNL     1       7.416   7.528   1.550  1.00  0.00     0.071 C 
HETATM   10  C   UNL     1       5.116   7.848   0.535  1.00  0.00     0.069 C 
ENDROOT
BRANCH   3  11
HETATM   11  C   UNL     1       1.607   5.384   0.215  1.00  0.00     0.156 C 
BRANCH  11  12
HETATM   12  C   UNL     1       1.260   5.263   1.686  1.00  0.00     0.223 C 
HETATM   13  N   UNL     1      -0.039   4.906   1.940  1.00  0.00    -0.359 N 
HETATM   14  H   UNL     1      -0.678   4.868   1.149  1.00  0.00     0.162 HD
HETATM   15  O   UNL     1       2.090   5.480   2.564  1.00  0.00    -0.273 OA
BRANCH  13  16
HETATM   16  C   UNL     1      -0.715   4.931   3.242  1.00  0.00     0.150 C 
BRANCH  16  17
HETATM   17  C   UNL     1       0.042   4.391   4.475  1.00  0.00     0.253 C 
BRANCH  17  18
HETATM   18  N   UNL     1       1.099   5.344   4.998  1.00  0.00    -0.077 N 
HETATM   19  H   UNL     1       1.698   5.584   4.184  1.00  0.00     0.279 HD
HETATM   20  C   UNL     1       0.555   6.631   5.554  1.00  0.00     0.269 C 
HETATM   21  C   UNL     1       1.997   4.670   6.001  1.00  0.00     0.269 C 
ENDBRANCH  17  18
ENDBRANCH  16  17
ENDBRANCH  13  16
ENDBRANCH  11  12
ENDBRANCH   3  11
BRANCH   1  22
HETATM   22  C   UNL     1       4.181   7.920  -1.852  1.00  0.00    -0.024 A 
HETATM   23  C   UNL     1       4.966   9.089  -2.060  1.00  0.00     0.017 A 
HETATM   24  C   UNL     1       5.212   9.638  -3.327  1.00  0.00    -0.061 A 
HETATM   25  C   UNL     1       6.080  10.856  -3.479  1.00  0.00     0.048 C 
HETATM   26  C   UNL     1       4.686   9.008  -4.443  1.00  0.00     0.007 A 
HETATM   27  C   UNL     1       3.873   7.893  -4.283  1.00  0.00     0.008 A 
HETATM   28  C   UNL     1       3.576   7.358  -3.009  1.00  0.00    -0.053 A 
HETATM   29  C   UNL     1       2.607   6.209  -3.028  1.00  0.00     0.049 C 
ENDBRANCH   1  22
BRANCH  10  30
HETATM   30  C   UNL     1       4.771   8.986   1.404  1.00  0.00     0.294 C 
HETATM   31  O   UNL     1       3.731   8.975   2.044  1.00  0.00    -0.259 OA
BRANCH  30  32
HETATM   32  O   UNL     1       5.684   9.967   1.310  1.00  0.00    -0.313 OA
BRANCH  32  33
HETATM   33  C   UNL     1       5.443  11.142   2.104  1.00  0.00     0.217 C 
BRANCH  33  34
HETATM   34  C   UNL     1       4.874  12.246   1.251  1.00  0.00    -0.034 A 
HETATM   35  C   UNL     1       3.604  12.125   0.667  1.00  0.00     0.009 A 
HETATM   36  C   UNL     1       3.070  13.164  -0.097  1.00  0.00     0.001 A 
HETATM   37  C   UNL     1       3.793  14.341  -0.276  1.00  0.00     0.000 A 
HETATM   38  C   UNL     1       5.052  14.478   0.304  1.00  0.00     0.001 A 
HETATM   39  C   UNL     1       5.592  13.436   1.061  1.00  0.00     0.009 A 
ENDBRANCH  33  34
ENDBRANCH  32  33
ENDBRANCH  30  32
ENDBRANCH  10  30
TORSDOF 10
