REMARK  7 active torsions:
REMARK  status: ('A' for Active; 'I' for Inactive)
REMARK    1  A    between atoms: C_2  and  O_3 
REMARK    2  A    between atoms: O_3  and  C_4 
REMARK    3  A    between atoms: C_7  and  N_8 
REMARK    4  A    between atoms: C_9  and  O_10 
REMARK    5  A    between atoms: C_9  and  C_11 
REMARK       I    between atoms: C_11  and  N_12 
REMARK    6  A    between atoms: N_12  and  C_13 
REMARK    7  A    between atoms: C_13  and  C_14 
ROOT
HETATM    1  N   UNL     1       8.243  -2.057  -2.217  1.00  0.00    -0.254 N 
HETATM    2  C   UNL     1       9.179  -1.119  -2.861  1.00  0.00     0.256 C 
HETATM    3  C   UNL     1       9.999  -1.780  -3.946  1.00  0.00     0.034 A 
HETATM    4  C   UNL     1      10.273  -3.137  -3.810  1.00  0.00     0.048 A 
HETATM    5  N   UNL     1       9.707  -3.822  -2.738  1.00  0.00    -0.308 N 
HETATM    6  C   UNL     1       8.675  -3.354  -1.962  1.00  0.00     0.330 C 
HETATM    7  O   UNL     1       8.177  -4.136  -1.154  1.00  0.00    -0.246 OA
HETATM    8  C   UNL     1      10.569  -1.080  -5.021  1.00  0.00     0.015 A 
HETATM    9  C   UNL     1      11.385  -1.741  -5.940  1.00  0.00     0.001 A 
HETATM   10  C   UNL     1      11.655  -3.100  -5.782  1.00  0.00     0.002 A 
HETATM   11  C   UNL     1      11.105  -3.801  -4.709  1.00  0.00     0.030 A 
HETATM   12  H   UNL     1       9.898  -4.809  -2.613  1.00  0.00     0.170 HD
ENDROOT
BRANCH   2  13
HETATM   13  O   UNL     1       8.477  -0.035  -3.480  1.00  0.00    -0.359 OA
HETATM   14  H   UNL     1       8.404   0.640  -2.776  1.00  0.00     0.213 HD
ENDBRANCH   2  13
BRANCH   2  15
HETATM   15  C   UNL     1      10.129  -0.509  -1.744  1.00  0.00     0.279 C 
HETATM   16  N   UNL     1      11.027  -1.361  -1.136  1.00  0.00    -0.352 N 
HETATM   17  H   UNL     1      11.121  -2.314  -1.468  1.00  0.00     0.162 HD
HETATM   18  O   UNL     1      10.048   0.683  -1.427  1.00  0.00    -0.268 OA
BRANCH  16  19
HETATM   19  C   UNL     1      11.979  -0.883  -0.165  1.00  0.00     0.161 C 
BRANCH  19  20
HETATM   20  C   UNL     1      12.869  -2.003   0.303  1.00  0.00    -0.038 A 
HETATM   21  C   UNL     1      14.031  -2.330  -0.416  1.00  0.00     0.048 A 
HETATM   22  C   UNL     1      14.801  -3.382   0.034  1.00  0.00     0.105 A 
HETATM   23  C   UNL     1      14.456  -4.109   1.148  1.00  0.00     0.105 A 
HETATM   24  O   UNL     1      15.952  -3.827  -0.539  1.00  0.00    -0.323 OA
HETATM   25  O   UNL     1      15.347  -5.100   1.418  1.00  0.00    -0.323 OA
HETATM   26  C   UNL     1      13.318  -3.829   1.872  1.00  0.00     0.040 A 
HETATM   27  C   UNL     1      16.301  -4.905   0.354  1.00  0.00     0.352 A 
HETATM   28  C   UNL     1      12.516  -2.767   1.440  1.00  0.00     0.012 A 
ENDBRANCH  19  20
ENDBRANCH  16  19
ENDBRANCH   2  15
BRANCH   1  29
HETATM   29  C   UNL     1       7.102  -1.535  -1.529  1.00  0.00     0.043 A 
HETATM   30  C   UNL     1       6.904  -1.744  -0.160  1.00  0.00     0.032 A 
HETATM   31  C   UNL     1       5.774  -1.224   0.491  1.00  0.00     0.039 A 
HETATM   32  C   UNL     1       4.822  -0.502  -0.225  1.00  0.00     0.068 A 
HETATM   33  C   UNL     1       4.993  -0.326  -1.596  1.00  0.00     0.039 A 
HETATM   34  C   UNL     1       6.121  -0.837  -2.242  1.00  0.00     0.032 A 
BRANCH  32  35
HETATM   35  O   UNL     1       3.682   0.056   0.282  1.00  0.00    -0.352 OA
BRANCH  35  36
HETATM   36  C   UNL     1       3.599   0.175   1.701  1.00  0.00     0.171 C 
HETATM   37  C   UNL     1       2.375   1.014   2.021  1.00  0.00     0.034 C 
ENDBRANCH  35  36
ENDBRANCH  32  35
ENDBRANCH   1  29
TORSDOF 7
