REMARK  10 active torsions:
REMARK  status: ('A' for Active; 'I' for Inactive)
REMARK    1  A    between atoms: C_2  and  C_3 
REMARK    2  A    between atoms: C_3  and  C_4 
REMARK    3  A    between atoms: C_4  and  N_5 
REMARK    4  A    between atoms: C_4  and  C_22 
REMARK    5  A    between atoms: N_5  and  C_6 
REMARK    6  A    between atoms: C_8  and  C_9 
REMARK    7  A    between atoms: C_16  and  C_17 
REMARK       I    between atoms: C_22  and  N_23 
REMARK    8  A    between atoms: N_23  and  C_24 
REMARK    9  A    between atoms: C_24  and  C_25 
REMARK   10  A    between atoms: C_25  and  O_26 
ROOT
HETATM    1  C   UNL     1       0.212  -1.710  -1.504  1.00  0.00     0.108 A 
HETATM    2  N   UNL     1       0.979  -1.087  -2.404  1.00  0.00    -0.215 NA
HETATM    3  C   UNL     1       0.381  -0.533  -3.480  1.00  0.00     0.180 A 
HETATM    4  N   UNL     1      -0.945  -0.593  -3.708  1.00  0.00    -0.222 NA
HETATM    5  C   UNL     1      -1.705  -1.252  -2.804  1.00  0.00     0.146 A 
HETATM    6  C   UNL     1      -1.152  -1.819  -1.668  1.00  0.00     0.080 A 
ENDROOT
BRANCH   1   7
HETATM    7  N   UNL     1       0.795  -2.328  -0.381  1.00  0.00    -0.264 NA
HETATM    8  H   UNL     1       0.356  -1.951   0.454  1.00  0.00     0.130 HD
BRANCH   7   9
HETATM    9  C   UNL     1       2.281  -2.241  -0.318  1.00  0.00     0.154 C 
BRANCH   9  10
HETATM   10  C   UNL     1       2.768  -2.652   1.085  1.00  0.00     0.033 C 
BRANCH  10  11
HETATM   11  C   UNL     1       2.414  -1.670   2.222  1.00  0.00    -0.021 C 
HETATM   12  C   UNL     1       2.948  -0.258   1.973  1.00  0.00     0.009 C 
HETATM   13  C   UNL     1       2.965  -2.201   3.549  1.00  0.00     0.009 C 
ENDBRANCH  10  11
ENDBRANCH   9  10
BRANCH   9  14
HETATM   14  C   UNL     1       2.927  -3.208  -1.345  1.00  0.00     0.235 C 
HETATM   15  N   UNL     1       2.161  -4.327  -1.610  1.00  0.00    -0.358 N 
HETATM   16  H   UNL     1       1.172  -4.191  -1.410  1.00  0.00     0.162 HD
HETATM   17  O   UNL     1       4.050  -3.030  -1.811  1.00  0.00    -0.272 OA
BRANCH  15  18
HETATM   18  C   UNL     1       2.472  -5.196  -2.726  1.00  0.00     0.148 C 
BRANCH  18  19
HETATM   19  C   UNL     1       1.494  -6.366  -2.805  1.00  0.00     0.186 C 
BRANCH  19  20
HETATM   20  O   UNL     1       0.168  -5.849  -2.980  1.00  0.00    -0.394 OA
HETATM   21  C   UNL     1      -0.788  -6.891  -3.122  1.00  0.00     0.201 C 
ENDBRANCH  19  20
ENDBRANCH  18  19
ENDBRANCH  15  18
ENDBRANCH   9  14
ENDBRANCH   7   9
ENDBRANCH   1   7
BRANCH   3  22
HETATM   22  C   UNL     1       1.243   0.198  -4.444  1.00  0.00     0.104 A 
HETATM   23  N   UNL     1       0.623   0.878  -5.452  1.00  0.00    -0.257 NA
HETATM   24  C   UNL     1       1.390   1.564  -6.326  1.00  0.00     0.117 A 
HETATM   25  C   UNL     1       2.770   1.623  -6.259  1.00  0.00     0.019 A 
HETATM   26  C   UNL     1       3.404   0.932  -5.236  1.00  0.00     0.004 A 
HETATM   27  C   UNL     1       2.637   0.212  -4.322  1.00  0.00     0.036 A 
ENDBRANCH   3  22
BRANCH   5  28
HETATM   28  C   UNL     1      -3.201  -1.377  -3.024  1.00  0.00     0.434 C 
HETATM   29  F   UNL     1      -3.648  -0.887  -4.213  1.00  0.00    -0.165 F 
HETATM   30  F   UNL     1      -3.627  -2.674  -2.974  1.00  0.00    -0.165 F 
HETATM   31  F   UNL     1      -3.919  -0.728  -2.059  1.00  0.00    -0.165 F 
ENDBRANCH   5  28
TORSDOF 10
