REMARK  6 active torsions:
REMARK  status: ('A' for Active; 'I' for Inactive)
REMARK    1  A    between atoms: C_6  and  C_7 
REMARK       I    between atoms: C_7  and  N_8 
REMARK    2  A    between atoms: N_8  and  C_9 
REMARK    3  A    between atoms: C_9  and  C_10 
REMARK    4  A    between atoms: C_10  and  O_11 
REMARK    5  A    between atoms: C_10  and  C_12 
REMARK    6  A    between atoms: C_15  and  O_16 
ROOT
HETATM    1  C   UNL     1      -1.862  -2.838  -2.908  1.00  0.00     0.258 C 
HETATM    2  N   UNL     1      -0.838  -2.682  -2.009  1.00  0.00    -0.350 N 
HETATM    3  O   UNL     1      -1.937  -2.198  -3.952  1.00  0.00    -0.267 OA
HETATM    4  H   UNL     1      -0.796  -3.316  -1.212  1.00  0.00     0.163 HD
ENDROOT
BRANCH   2   5
HETATM    5  C   UNL     1       0.276  -1.759  -2.196  1.00  0.00     0.114 C 
HETATM    6  C   UNL     1       1.413  -2.489  -2.913  1.00  0.00     0.035 C 
BRANCH   5   7
HETATM    7  C   UNL     1       0.761  -1.171  -0.841  1.00  0.00     0.173 C 
BRANCH   7   8
HETATM    8  O   UNL     1       1.063  -2.225   0.084  1.00  0.00    -0.389 OA
HETATM    9  H   UNL     1       0.997  -1.842   0.976  1.00  0.00     0.210 HD
ENDBRANCH   7   8
BRANCH   7  10
HETATM   10  C   UNL     1      -0.221  -0.195  -0.216  1.00  0.00    -0.028 A 
HETATM   11  C   UNL     1       0.038   1.181  -0.251  1.00  0.00     0.012 A 
HETATM   12  C   UNL     1      -0.869   2.088   0.306  1.00  0.00     0.037 A 
HETATM   13  C   UNL     1      -2.053   1.642   0.896  1.00  0.00     0.068 A 
HETATM   14  C   UNL     1      -2.316   0.275   0.943  1.00  0.00     0.037 A 
HETATM   15  C   UNL     1      -1.406  -0.635   0.393  1.00  0.00     0.012 A 
BRANCH  13  16
HETATM   16  O   UNL     1      -2.856   2.633   1.391  1.00  0.00    -0.356 OA
HETATM   17  C   UNL     1      -4.150   2.243   1.834  1.00  0.00     0.210 C 
ENDBRANCH  13  16
ENDBRANCH   7  10
ENDBRANCH   5   7
ENDBRANCH   2   5
BRANCH   1  18
HETATM   18  C   UNL     1      -2.865  -3.820  -2.526  1.00  0.00     0.105 A 
HETATM   19  C   UNL     1      -4.042  -4.185  -3.234  1.00  0.00     0.071 A 
HETATM   20  C   UNL     1      -4.525  -3.646  -4.532  1.00  0.00     0.073 C 
HETATM   21  N   UNL     1      -4.751  -5.124  -2.598  1.00  0.00    -0.170 NA
HETATM   22  N   UNL     1      -4.049  -5.385  -1.475  1.00  0.00    -0.225 N 
HETATM   23  C   UNL     1      -2.893  -4.604  -1.385  1.00  0.00     0.168 A 
HETATM   24  C   UNL     1      -4.364  -6.299  -0.475  1.00  0.00     0.122 A 
HETATM   25  N   UNL     1      -2.035  -4.702  -0.314  1.00  0.00    -0.240 NA
HETATM   26  C   UNL     1      -2.361  -5.570   0.597  1.00  0.00     0.120 A 
HETATM   27  C   UNL     1      -3.564  -6.446   0.589  1.00  0.00     0.038 A 
ENDBRANCH   1  18
TORSDOF 6
