REMARK  5 active torsions:
REMARK  status: ('A' for Active; 'I' for Inactive)
REMARK    1  A    between atoms: O_2  and  C_3 
REMARK    2  A    between atoms: C_4  and  C_5 
REMARK    3  A    between atoms: C_5  and  C_6 
REMARK       I    between atoms: C_6  and  N_7 
REMARK    4  A    between atoms: N_7  and  C_8 
REMARK    5  A    between atoms: C_9  and  O_10 
ROOT
HETATM    1  C   UNL     1       5.521  -0.918  -2.782  1.00  0.00     0.071 A 
HETATM    2  C   UNL     1       4.801  -1.440  -1.690  1.00  0.00     0.096 A 
HETATM    3  C   UNL     1       4.661  -2.820  -1.485  1.00  0.00     0.054 A 
HETATM    4  C   UNL     1       5.204  -3.694  -2.440  1.00  0.00     0.014 A 
HETATM    5  C   UNL     1       5.853  -3.151  -3.544  1.00  0.00     0.089 A 
HETATM    6  O   UNL     1       6.303  -4.144  -4.363  1.00  0.00    -0.309 OA
HETATM    7  C   UNL     1       5.945  -5.328  -3.791  1.00  0.00     0.087 A 
HETATM    8  C   UNL     1       5.258  -5.108  -2.602  1.00  0.00     0.011 A 
HETATM    9  C   UNL     1       6.217  -6.593  -4.309  1.00  0.00     0.038 A 
HETATM   10  C   UNL     1       5.755  -7.687  -3.569  1.00  0.00     0.003 A 
HETATM   11  C   UNL     1       5.055  -7.507  -2.372  1.00  0.00     0.001 A 
HETATM   12  C   UNL     1       4.798  -6.222  -1.874  1.00  0.00     0.015 A 
HETATM   13  C   UNL     1       6.018  -1.782  -3.767  1.00  0.00     0.070 A 
ENDROOT
BRANCH   1  14
HETATM   14  N   UNL     1       5.693   0.471  -2.973  1.00  0.00    -0.324 N 
HETATM   15  C   UNL     1       5.984   1.357  -1.948  1.00  0.00     0.226 C 
HETATM   16  O   UNL     1       6.427   1.040  -0.845  1.00  0.00    -0.273 OA
HETATM   17  H   UNL     1       5.874   0.804  -3.914  1.00  0.00     0.169 HD
BRANCH  15  18
HETATM   18  C   UNL     1       5.656   2.803  -2.261  1.00  0.00     0.144 C 
BRANCH  18  19
HETATM   19  C   UNL     1       6.403   3.413  -3.420  1.00  0.00    -0.016 A 
HETATM   20  C   UNL     1       5.934   3.304  -4.736  1.00  0.00     0.074 A 
HETATM   21  C   UNL     1       6.623   3.892  -5.798  1.00  0.00     0.037 A 
HETATM   22  C   UNL     1       7.779   4.629  -5.549  1.00  0.00     0.003 A 
HETATM   23  C   UNL     1       8.259   4.751  -4.246  1.00  0.00     0.001 A 
HETATM   24  C   UNL     1       7.580   4.140  -3.188  1.00  0.00     0.010 A 
BRANCH  20  25
HETATM   25  O   UNL     1       4.834   2.528  -4.993  1.00  0.00    -0.355 OA
HETATM   26  C   UNL     1       3.695   3.349  -5.263  1.00  0.00     0.210 C 
ENDBRANCH  20  25
ENDBRANCH  18  19
ENDBRANCH  15  18
ENDBRANCH   1  14
BRANCH   2  27
HETATM   27  O   UNL     1       4.142  -0.623  -0.800  1.00  0.00    -0.354 OA
HETATM   28  C   UNL     1       2.859  -0.269  -1.318  1.00  0.00     0.210 C 
ENDBRANCH   2  27
TORSDOF 5
