REMARK  6 active torsions:
REMARK  status: ('A' for Active; 'I' for Inactive)
REMARK    1  A    between atoms: C_4  and  C_5 
REMARK    2  A    between atoms: C_7  and  N_8 
REMARK    3  A    between atoms: N_8  and  C_9 
REMARK    4  A    between atoms: C_9  and  C_10 
REMARK    5  A    between atoms: C_10  and  C_11 
REMARK    6  A    between atoms: C_11  and  N_12 
ROOT
HETATM    1  C   UNL     1       2.811   0.051  -0.273  1.00  0.00     0.162 C 
HETATM    2  N   UNL     1       3.462  -1.136  -0.290  1.00  0.00    -0.216 NA
HETATM    3  C   UNL     1       4.788  -1.088  -0.556  1.00  0.00     0.118 C 
HETATM    4  C   UNL     1       5.512   0.123  -0.584  1.00  0.00     0.033 A 
HETATM    5  C   UNL     1       4.739   1.281  -0.470  1.00  0.00     0.072 A 
HETATM    6  N   UNL     1       3.413   1.245  -0.339  1.00  0.00    -0.228 NA
HETATM    7  C   UNL     1       6.922   0.244  -0.711  1.00  0.00     0.017 A 
HETATM    8  C   UNL     1       7.535   1.495  -0.733  1.00  0.00     0.001 A 
HETATM    9  C   UNL     1       6.755   2.638  -0.630  1.00  0.00     0.002 A 
HETATM   10  C   UNL     1       5.370   2.519  -0.499  1.00  0.00     0.032 A 
ENDROOT
BRANCH   3  11
HETATM   11  N   UNL     1       5.486  -2.311  -0.699  1.00  0.00    -0.277 NA
HETATM   12  H   UNL     1       6.168  -2.182  -1.452  1.00  0.00     0.129 HD
BRANCH  11  13
HETATM   13  C   UNL     1       4.705  -3.519  -0.954  1.00  0.00     0.095 C 
BRANCH  13  14
HETATM   14  C   UNL     1       4.856  -4.499   0.209  1.00  0.00     0.042 C 
BRANCH  14  15
HETATM   15  C   UNL     1       4.682  -3.898   1.597  1.00  0.00     0.230 C 
BRANCH  15  16
HETATM   16  N   UNL     1       3.403  -3.171   1.719  1.00  0.00    -0.079 N 
HETATM   17  H   UNL     1       3.382  -2.387   1.035  1.00  0.00     0.274 HD
HETATM   18  H   UNL     1       2.586  -3.764   1.542  1.00  0.00     0.274 HD
HETATM   19  H   UNL     1       3.301  -2.740   2.645  1.00  0.00     0.274 HD
ENDBRANCH  15  16
ENDBRANCH  14  15
ENDBRANCH  13  14
ENDBRANCH  11  13
ENDBRANCH   3  11
BRANCH   1  20
HETATM   20  C   UNL     1       1.336   0.050  -0.167  1.00  0.00     0.012 A 
HETATM   21  C   UNL     1       0.607  -1.086   0.232  1.00  0.00     0.015 A 
HETATM   22  C   UNL     1      -0.789  -1.061   0.340  1.00  0.00     0.001 A 
HETATM   23  C   UNL     1      -1.492   0.098   0.029  1.00  0.00     0.000 A 
HETATM   24  C   UNL     1      -0.803   1.231  -0.388  1.00  0.00     0.001 A 
HETATM   25  C   UNL     1       0.592   1.206  -0.479  1.00  0.00     0.015 A 
ENDBRANCH   1  20
TORSDOF 6
