REMARK  8 active torsions:
REMARK  status: ('A' for Active; 'I' for Inactive)
REMARK    1  A    between atoms: C_8  and  C_9 
REMARK    2  A    between atoms: N_10  and  C_11 
REMARK    3  A    between atoms: C_11  and  C_12 
REMARK    4  A    between atoms: C_17  and  S_18 
REMARK    5  A    between atoms: S_18  and  C_19 
REMARK    6  A    between atoms: C_19  and  C_20 
REMARK       I    between atoms: C_20  and  N_21 
REMARK    7  A    between atoms: N_21  and  C_22 
REMARK    8  A    between atoms: C_30  and  O_31 
ROOT
HETATM    1  C   UNL     1       3.763  -1.394   0.136  1.00  0.00     0.167 A 
HETATM    2  N   UNL     1       5.021  -1.036  -0.326  1.00  0.00    -0.301 N 
HETATM    3  C   UNL     1       5.675  -2.223  -0.546  1.00  0.00     0.192 A 
HETATM    4  N   UNL     1       4.898  -3.230  -0.240  1.00  0.00    -0.122 NA
HETATM    5  N   UNL     1       3.708  -2.719   0.172  1.00  0.00    -0.128 NA
ENDROOT
BRANCH   1   6
HETATM    6  C   UNL     1       2.595  -0.559   0.462  1.00  0.00     0.046 A 
HETATM    7  C   UNL     1       2.693   0.700   1.070  1.00  0.00     0.030 A 
HETATM    8  C   UNL     1       1.549   1.461   1.390  1.00  0.00    -0.025 A 
HETATM    9  C   UNL     1       1.655   2.729   1.987  1.00  0.00     0.012 A 
HETATM   10  C   UNL     1       0.266   0.941   1.115  1.00  0.00    -0.023 A 
HETATM   11  C   UNL     1       0.513   3.464   2.312  1.00  0.00     0.001 A 
HETATM   12  C   UNL     1      -0.750   2.944   2.047  1.00  0.00     0.001 A 
HETATM   13  C   UNL     1      -0.874   1.689   1.451  1.00  0.00     0.012 A 
HETATM   14  C   UNL     1       0.156  -0.322   0.524  1.00  0.00     0.049 A 
HETATM   15  C   UNL     1       1.300  -1.056   0.215  1.00  0.00     0.080 A 
BRANCH  15  16
HETATM   16  O   UNL     1       1.070  -2.295  -0.333  1.00  0.00    -0.360 OA
HETATM   17  H   UNL     1       1.908  -2.802  -0.303  1.00  0.00     0.217 HD
ENDBRANCH  15  16
ENDBRANCH   1   6
BRANCH   2  18
HETATM   18  C   UNL     1       5.582   0.292  -0.494  1.00  0.00     0.198 C 
BRANCH  18  19
HETATM   19  C   UNL     1       4.892   1.089  -1.533  1.00  0.00     0.070 A 
HETATM   20  O   UNL     1       4.733   2.414  -1.246  1.00  0.00    -0.325 OA
HETATM   21  C   UNL     1       4.118   2.983  -2.313  1.00  0.00     0.142 A 
HETATM   22  C   UNL     1       3.882   2.043  -3.288  1.00  0.00     0.027 A 
HETATM   23  C   UNL     1       4.385   0.818  -2.787  1.00  0.00     0.036 A 
ENDBRANCH  18  19
ENDBRANCH   2  18
BRANCH   3  24
HETATM   24  S   UNL     1       7.287  -2.392  -1.145  1.00  0.00    -0.081 SA
BRANCH  24  25
HETATM   25  C   UNL     1       7.939  -3.647  -0.005  1.00  0.00     0.185 C 
BRANCH  25  26
HETATM   26  C   UNL     1       7.778  -5.070  -0.515  1.00  0.00     0.227 C 
HETATM   27  N   UNL     1       6.482  -5.494  -0.697  1.00  0.00    -0.356 N 
HETATM   28  H   UNL     1       5.728  -4.843  -0.479  1.00  0.00     0.162 HD
HETATM   29  O   UNL     1       8.750  -5.808  -0.663  1.00  0.00    -0.273 OA
BRANCH  27  30
HETATM   30  C   UNL     1       6.135  -6.874  -0.946  1.00  0.00     0.084 C 
HETATM   31  C   UNL     1       4.627  -7.081  -1.031  1.00  0.00     0.025 C 
HETATM   32  C   UNL     1       4.481  -8.447  -1.688  1.00  0.00     0.002 C 
HETATM   33  C   UNL     1       5.737  -8.638  -2.538  1.00  0.00     0.002 C 
HETATM   34  C   UNL     1       6.610  -7.409  -2.295  1.00  0.00     0.025 C 
ENDBRANCH  27  30
ENDBRANCH  25  26
ENDBRANCH  24  25
ENDBRANCH   3  24
TORSDOF 8
