REMARK  3 active torsions:
REMARK  status: ('A' for Active; 'I' for Inactive)
REMARK    1  A    between atoms: C_2  and  N_3 
REMARK    2  A    between atoms: N_3  and  C_4 
REMARK    3  A    between atoms: C_12  and  C_13 
ROOT
HETATM    1  C   UNL     1       2.328  -0.767   2.307  1.00  0.00     0.139 A 
HETATM    2  N   UNL     1       1.921  -2.006   2.657  1.00  0.00    -0.224 NA
HETATM    3  C   UNL     1       1.640  -2.276   3.937  1.00  0.00     0.236 A 
HETATM    4  N   UNL     1       1.704  -1.441   4.970  1.00  0.00    -0.234 NA
HETATM    5  C   UNL     1       2.078  -0.206   4.602  1.00  0.00     0.113 A 
HETATM    6  C   UNL     1       2.392   0.227   3.318  1.00  0.00     0.055 A 
HETATM    7  S   UNL     1       2.203   1.018   5.775  1.00  0.00    -0.081 SA
HETATM    8  C   UNL     1       2.638   2.173   4.605  1.00  0.00     0.062 A 
HETATM    9  C   UNL     1       2.694   1.655   3.320  1.00  0.00    -0.003 A 
ENDROOT
BRANCH   9  10
HETATM   10  C   UNL     1       3.017   2.524   2.126  1.00  0.00     0.188 C 
HETATM   11  O   UNL     1       4.112   1.985   1.362  1.00  0.00    -0.336 OA
HETATM   12  C   UNL     1       4.345   2.764   0.254  1.00  0.00     0.103 A 
HETATM   13  C   UNL     1       3.388   3.636  -0.279  1.00  0.00     0.102 A 
HETATM   14  C   UNL     1       5.603   2.660  -0.334  1.00  0.00     0.040 A 
HETATM   15  O   UNL     1       2.126   3.785   0.238  1.00  0.00    -0.345 OA
HETATM   16  C   UNL     1       3.709   4.433  -1.376  1.00  0.00     0.039 A 
HETATM   17  C   UNL     1       1.817   2.771   1.208  1.00  0.00     0.213 C 
HETATM   18  C   UNL     1       4.976   4.344  -1.954  1.00  0.00     0.003 A 
HETATM   19  C   UNL     1       5.921   3.456  -1.436  1.00  0.00     0.003 A 
ENDBRANCH   9  10
BRANCH   1  20
HETATM   20  N   UNL     1       2.659  -0.490   0.988  1.00  0.00    -0.366 N 
HETATM   21  H   UNL     1       3.405   0.204   0.941  1.00  0.00     0.162 HD
BRANCH  20  22
HETATM   22  C   UNL     1       2.738  -1.511  -0.068  1.00  0.00     0.021 C 
HETATM   23  C   UNL     1       1.367  -2.148  -0.337  1.00  0.00     0.037 C 
HETATM   24  C   UNL     1       3.800  -2.573   0.246  1.00  0.00     0.037 C 
HETATM   25  C   UNL     1       3.167  -0.772  -1.354  1.00  0.00     0.037 C 
ENDBRANCH  20  22
ENDBRANCH   1  20
TORSDOF 3
