REMARK  6 active torsions:
REMARK  status: ('A' for Active; 'I' for Inactive)
REMARK    1  A    between atoms: C_2  and  C_3 
REMARK    2  A    between atoms: C_3  and  N_4 
REMARK       I    between atoms: N_4  and  C_5 
REMARK    3  A    between atoms: C_5  and  C_6 
REMARK    4  A    between atoms: C_8  and  C_9 
REMARK    5  A    between atoms: C_9  and  N_10 
REMARK       I    between atoms: N_10  and  C_11 
REMARK    6  A    between atoms: C_11  and  C_12 
ROOT
HETATM    1  C   UNL     1      -0.325  -1.922  -0.845  1.00  0.00     0.161 C 
ENDROOT
BRANCH   1   2
HETATM    2  C   UNL     1      -0.508  -0.489  -0.429  1.00  0.00    -0.040 A 
HETATM    3  C   UNL     1       0.325   0.072   0.548  1.00  0.00     0.026 A 
HETATM    4  C   UNL     1       0.230   1.432   0.858  1.00  0.00     0.032 A 
HETATM    5  C   UNL     1      -0.722   2.239   0.229  1.00  0.00     0.017 A 
HETATM    6  C   UNL     1      -1.579   1.678  -0.718  1.00  0.00     0.002 A 
HETATM    7  C   UNL     1      -1.469   0.325  -1.049  1.00  0.00     0.009 A 
BRANCH   4   8
HETATM    8  C   UNL     1       1.194   1.994   1.830  1.00  0.00     0.252 C 
HETATM    9  N   UNL     1       1.880   3.103   1.383  1.00  0.00    -0.353 N 
HETATM   10  H   UNL     1       1.743   3.383   0.420  1.00  0.00     0.163 HD
HETATM   11  O   UNL     1       1.380   1.428   2.898  1.00  0.00    -0.268 OA
BRANCH   9  12
HETATM   12  C   UNL     1       3.010   3.696   2.089  1.00  0.00     0.080 C 
HETATM   13  C   UNL     1       2.582   4.315   3.419  1.00  0.00     0.032 C 
BRANCH  12  14
HETATM   14  C   UNL     1       4.185   2.721   2.283  1.00  0.00     0.020 C 
HETATM   15  C   UNL     1       4.707   2.148   0.972  1.00  0.00     0.007 C 
ENDBRANCH  12  14
ENDBRANCH   9  12
ENDBRANCH   4   8
ENDBRANCH   1   2
BRANCH   1  16
HETATM   16  N   UNL     1      -1.442  -2.754  -0.498  1.00  0.00    -0.351 N 
HETATM   17  C   UNL     1      -1.453  -4.075  -0.900  1.00  0.00     0.273 C 
HETATM   18  O   UNL     1      -0.653  -4.527  -1.714  1.00  0.00    -0.266 OA
HETATM   19  H   UNL     1      -2.038  -2.530   0.294  1.00  0.00     0.163 HD
BRANCH  17  20
HETATM   20  C   UNL     1      -2.478  -4.896  -0.237  1.00  0.00     0.157 A 
HETATM   21  N   UNL     1      -3.362  -4.367   0.637  1.00  0.00    -0.168 NA
HETATM   22  N   UNL     1      -4.102  -5.425   1.020  1.00  0.00    -0.277 N 
HETATM   23  H   UNL     1      -4.852  -5.271   1.685  1.00  0.00     0.189 HD
HETATM   24  C   UNL     1      -3.728  -6.614   0.457  1.00  0.00     0.063 A 
HETATM   25  C   UNL     1      -2.665  -6.303  -0.379  1.00  0.00     0.029 A 
HETATM   26  C   UNL     1      -4.219  -7.913   0.613  1.00  0.00     0.032 A 
HETATM   27  C   UNL     1      -2.046  -7.338  -1.107  1.00  0.00     0.023 A 
HETATM   28  C   UNL     1      -2.514  -8.657  -0.973  1.00  0.00    -0.061 A 
HETATM   29  C   UNL     1      -3.586  -8.929  -0.116  1.00  0.00     0.009 A 
HETATM   30  C   UNL     1      -1.828  -9.759  -1.727  1.00  0.00     0.048 C 
ENDBRANCH  17  20
ENDBRANCH   1  16
TORSDOF 6
