REMARK  3 active torsions:
REMARK  status: ('A' for Active; 'I' for Inactive)
REMARK       I    between atoms: C_2  and  N_3 
REMARK    1  A    between atoms: N_3  and  C_4 
REMARK    2  A    between atoms: C_7  and  C_8 
REMARK       I    between atoms: C_8  and  N_9 
REMARK    3  A    between atoms: N_9  and  C_10 
ROOT
HETATM    1  C   UNL     1       2.522   1.821  -1.554  1.00  0.00     0.034 A 
HETATM    2  C   UNL     1       1.367   1.494  -2.268  1.00  0.00     0.030 A 
HETATM    3  C   UNL     1       0.841   2.373  -3.226  1.00  0.00     0.019 A 
HETATM    4  C   UNL     1       1.477   3.590  -3.496  1.00  0.00     0.032 A 
HETATM    5  C   UNL     1       2.621   3.928  -2.762  1.00  0.00     0.019 A 
HETATM    6  C   UNL     1       3.137   3.053  -1.801  1.00  0.00     0.030 A 
ENDROOT
BRANCH   4   7
HETATM    7  C   UNL     1       0.993   4.566  -4.525  1.00  0.00     0.257 C 
HETATM    8  N   UNL     1       0.209   4.039  -5.533  1.00  0.00    -0.307 N 
HETATM    9  H   UNL     1       0.008   3.054  -5.528  1.00  0.00     0.170 HD
HETATM   10  O   UNL     1       1.345   5.734  -4.404  1.00  0.00    -0.267 OA
BRANCH   8  11
HETATM   11  C   UNL     1      -0.284   4.757  -6.634  1.00  0.00     0.130 A 
HETATM   12  N   UNL     1       0.042   6.048  -6.824  1.00  0.00    -0.242 NA
HETATM   13  C   UNL     1      -0.442   6.676  -7.922  1.00  0.00     0.142 A 
HETATM   14  C   UNL     1      -1.260   6.066  -8.856  1.00  0.00     0.051 A 
HETATM   15 CL   UNL     1      -1.836   6.920 -10.226  1.00  0.00    -0.083 Cl
HETATM   16  C   UNL     1      -1.601   4.737  -8.652  1.00  0.00     0.029 A 
HETATM   17  C   UNL     1      -1.103   4.071  -7.530  1.00  0.00     0.052 A 
ENDBRANCH   8  11
ENDBRANCH   4   7
BRANCH   1  18
HETATM   18  N   UNL     1       3.116   0.988  -0.585  1.00  0.00    -0.328 N 
HETATM   19  C   UNL     1       2.721  -0.284  -0.213  1.00  0.00     0.218 C 
HETATM   20  C   UNL     1       3.600  -0.883   0.858  1.00  0.00     0.117 C 
HETATM   21  O   UNL     1       1.787  -0.928  -0.679  1.00  0.00    -0.274 OA
HETATM   22  H   UNL     1       3.939   1.361  -0.130  1.00  0.00     0.169 HD
ENDBRANCH   1  18
TORSDOF 3
