REMARK  4 active torsions:
REMARK  status: ('A' for Active; 'I' for Inactive)
REMARK    1  A    between atoms: C_9  and  C_10 
REMARK    2  A    between atoms: C_13  and  O_14 
REMARK    3  A    between atoms: C_18  and  C_19 
REMARK       I    between atoms: C_19  and  N_20 
REMARK    4  A    between atoms: N_20  and  C_21 
ROOT
HETATM    1  C   UNL     1       1.194   0.187   0.820  1.00  0.00     0.070 C 
HETATM    2  C   UNL     1       2.525   0.062   0.123  1.00  0.00     0.037 C 
HETATM    3  N   UNL     1       3.139   1.265  -0.216  1.00  0.00    -0.192 N 
HETATM    4  C   UNL     1       4.429   1.346  -0.598  1.00  0.00     0.725 A 
HETATM    5  N   UNL     1       5.137   0.197  -0.825  1.00  0.00    -0.084 N 
HETATM    6  N   UNL     1       6.429   0.466  -1.108  1.00  0.00    -0.149 NA
HETATM    7  C   UNL     1       6.413   1.803  -1.082  1.00  0.00     0.275 A 
HETATM    8  N   UNL     1       5.208   2.382  -0.776  1.00  0.00    -0.054 NA
HETATM    9  C   UNL     1       4.568  -1.152  -0.721  1.00  0.00     0.202 C 
HETATM   10  C   UNL     1       3.166  -1.109  -0.120  1.00  0.00     0.062 C 
HETATM   11  H   UNL     1       2.674   2.125   0.064  1.00  0.00     0.184 HD
ENDROOT
BRANCH  10  12
HETATM   12  C   UNL     1       2.642  -2.443   0.275  1.00  0.00     0.256 C 
HETATM   13  N   UNL     1       1.395  -2.719  -0.244  1.00  0.00    -0.323 N 
HETATM   14  H   UNL     1       0.989  -2.021  -0.854  1.00  0.00     0.169 HD
HETATM   15  O   UNL     1       3.344  -3.170   0.964  1.00  0.00    -0.267 OA
BRANCH  13  16
HETATM   16  C   UNL     1       0.606  -3.862  -0.003  1.00  0.00     0.035 A 
HETATM   17  C   UNL     1       1.024  -4.952   0.766  1.00  0.00     0.031 A 
HETATM   18  C   UNL     1       0.171  -6.042   0.976  1.00  0.00     0.026 A 
HETATM   19  C   UNL     1      -1.105  -6.044   0.421  1.00  0.00     0.034 A 
HETATM   20 CL   UNL     1      -2.156  -7.379   0.689  1.00  0.00    -0.084 Cl
HETATM   21  C   UNL     1      -1.535  -4.968  -0.348  1.00  0.00     0.026 A 
HETATM   22  C   UNL     1      -0.679  -3.882  -0.563  1.00  0.00     0.031 A 
ENDBRANCH  13  16
ENDBRANCH  10  12
BRANCH   9  23
HETATM   23  C   UNL     1       4.585  -1.842  -2.083  1.00  0.00    -0.028 A 
HETATM   24  C   UNL     1       5.167  -3.111  -2.212  1.00  0.00     0.012 A 
HETATM   25  C   UNL     1       5.199  -3.755  -3.451  1.00  0.00     0.037 A 
HETATM   26  C   UNL     1       4.653  -3.151  -4.585  1.00  0.00     0.068 A 
HETATM   27  C   UNL     1       4.051  -1.900  -4.464  1.00  0.00     0.037 A 
HETATM   28  C   UNL     1       4.012  -1.252  -3.224  1.00  0.00     0.012 A 
BRANCH  26  29
HETATM   29  O   UNL     1       4.766  -3.881  -5.735  1.00  0.00    -0.356 OA
HETATM   30  C   UNL     1       4.389  -3.236  -6.944  1.00  0.00     0.210 C 
ENDBRANCH  26  29
ENDBRANCH   9  23
TORSDOF 4
