REMARK  6 active torsions:
REMARK  status: ('A' for Active; 'I' for Inactive)
REMARK    1  A    between atoms: C_7  and  N_8 
REMARK    2  A    between atoms: N_8  and  C_9 
REMARK    3  A    between atoms: C_9  and  C_10 
REMARK    4  A    between atoms: C_12  and  N_13 
REMARK       I    between atoms: N_13  and  C_14 
REMARK    5  A    between atoms: C_14  and  C_15 
REMARK    6  A    between atoms: C_15  and  N_16 
ROOT
HETATM    1  C   UNL     1      -6.316  -0.456  -0.788  1.00  0.00    -0.038 A 
HETATM    2  C   UNL     1      -6.989  -1.654  -0.508  1.00  0.00     0.038 A 
HETATM    3  C   UNL     1      -8.381  -1.720  -0.502  1.00  0.00     0.035 A 
HETATM    4  C   UNL     1      -9.113  -0.541  -0.649  1.00  0.00     0.029 A 
HETATM    5  C   UNL     1      -8.456   0.672  -0.876  1.00  0.00     0.003 A 
HETATM    6  C   UNL     1      -7.064   0.711  -0.970  1.00  0.00     0.009 A 
ENDROOT
BRANCH   1   7
HETATM    7  C   UNL     1      -4.824  -0.463  -0.945  1.00  0.00     0.176 C 
BRANCH   7   8
HETATM    8  N   UNL     1      -4.485  -0.439  -2.363  1.00  0.00    -0.222 N 
HETATM    9  H   UNL     1      -4.139   0.415  -2.773  1.00  0.00     0.178 HD
BRANCH   8  10
HETATM   10  C   UNL     1      -4.484  -1.533  -3.140  1.00  0.00     0.679 A 
HETATM   11  N   UNL     1      -4.040  -1.549  -4.389  1.00  0.00    -0.190 N 
HETATM   12  C   UNL     1      -4.146  -2.819  -4.921  1.00  0.00     0.076 A 
HETATM   13  H   UNL     1      -3.674  -0.753  -4.892  1.00  0.00     0.184 HD
HETATM   14  C   UNL     1      -4.707  -3.602  -3.915  1.00  0.00     0.076 A 
HETATM   15  C   UNL     1      -3.810  -3.332  -6.167  1.00  0.00     0.032 A 
HETATM   16  C   UNL     1      -4.987  -4.952  -4.077  1.00  0.00     0.032 A 
HETATM   17  N   UNL     1      -4.886  -2.756  -2.844  1.00  0.00    -0.190 N 
HETATM   18  C   UNL     1      -4.653  -5.490  -5.330  1.00  0.00     0.002 A 
HETATM   19  C   UNL     1      -4.077  -4.700  -6.349  1.00  0.00     0.002 A 
HETATM   20  H   UNL     1      -5.330  -3.047  -1.983  1.00  0.00     0.184 HD
ENDBRANCH   8  10
ENDBRANCH   7   8
ENDBRANCH   1   7
BRANCH   3  21
HETATM   21  N   UNL     1      -9.087  -2.930  -0.381  1.00  0.00    -0.326 N 
HETATM   22  C   UNL     1      -8.586  -4.211  -0.534  1.00  0.00     0.242 C 
HETATM   23  O   UNL     1      -7.413  -4.467  -0.831  1.00  0.00    -0.271 OA
HETATM   24  H   UNL     1     -10.110  -2.860  -0.319  1.00  0.00     0.169 HD
BRANCH  22  25
HETATM   25  C   UNL     1      -9.590  -5.350  -0.437  1.00  0.00     0.253 C 
BRANCH  25  26
HETATM   26  N   UNL     1     -10.844  -5.053   0.235  1.00  0.00    -0.273 N 
HETATM   27  N   UNL     1     -11.568  -3.966  -0.122  1.00  0.00    -0.185 NA
HETATM   28  C   UNL     1     -12.682  -4.074   0.610  1.00  0.00     0.140 A 
HETATM   29  C   UNL     1     -12.675  -5.216   1.430  1.00  0.00     0.040 A 
HETATM   30  C   UNL     1     -11.474  -5.832   1.164  1.00  0.00     0.114 A 
ENDBRANCH  25  26
ENDBRANCH  22  25
ENDBRANCH   3  21
TORSDOF 6
