REMARK  8 active torsions:
REMARK  status: ('A' for Active; 'I' for Inactive)
REMARK    1  A    between atoms: C_2  and  C_3 
REMARK    2  A    between atoms: C_6  and  N_7 
REMARK       I    between atoms: N_7  and  C_8 
REMARK    3  A    between atoms: C_8  and  C_9 
REMARK    4  A    between atoms: C_9  and  S_10 
REMARK    5  A    between atoms: S_10  and  C_11 
REMARK    6  A    between atoms: C_23  and  C_24 
REMARK    7  A    between atoms: C_24  and  C_25 
REMARK       I    between atoms: C_25  and  N_26 
REMARK    8  A    between atoms: N_26  and  C_27 
ROOT
HETATM    1  C   UNL     1       2.069  -4.980   0.892  1.00  0.00     0.178 C 
HETATM    2  N   UNL     1       1.599  -3.864   1.565  1.00  0.00    -0.241 N 
HETATM    3  C   UNL     1       1.265  -3.920   2.879  1.00  0.00     0.147 C 
HETATM    4  N   UNL     1       0.692  -2.878   3.401  1.00  0.00    -0.256 NA
HETATM    5  C   UNL     1       1.596  -5.145   3.608  1.00  0.00     0.039 A 
HETATM    6  C   UNL     1       2.174  -6.183   2.868  1.00  0.00     0.073 A 
HETATM    7  C   UNL     1       1.406  -5.246   4.989  1.00  0.00     0.018 A 
HETATM    8  C   UNL     1       1.804  -6.409   5.647  1.00  0.00     0.001 A 
HETATM    9  C   UNL     1       2.388  -7.451   4.926  1.00  0.00     0.002 A 
HETATM   10  C   UNL     1       2.571  -7.337   3.545  1.00  0.00     0.032 A 
HETATM   11  C   UNL     1       1.370  -2.578   1.134  1.00  0.00     0.257 C 
HETATM   12  O   UNL     1       1.722  -2.039   0.097  1.00  0.00    -0.270 OA
HETATM   13  C   UNL     1       0.663  -1.887   2.285  1.00  0.00     0.211 C 
HETATM   14  N   UNL     1       2.354  -6.104   1.473  1.00  0.00    -0.223 NA
ENDROOT
BRANCH   1  15
HETATM   15  S   UNL     1       2.195  -4.931  -0.847  1.00  0.00    -0.082 SA
BRANCH  15  16
HETATM   16  C   UNL     1       3.995  -4.857  -1.014  1.00  0.00     0.185 C 
BRANCH  16  17
HETATM   17  C   UNL     1       4.657  -6.207  -1.261  1.00  0.00     0.231 C 
HETATM   18  N   UNL     1       4.149  -7.252  -0.515  1.00  0.00    -0.327 N 
HETATM   19  H   UNL     1       3.291  -7.064   0.000  1.00  0.00     0.169 HD
HETATM   20  O   UNL     1       5.630  -6.272  -2.011  1.00  0.00    -0.272 OA
BRANCH  18  21
HETATM   21  C   UNL     1       4.713  -8.527  -0.314  1.00  0.00     0.034 A 
HETATM   22  C   UNL     1       5.967  -8.908  -0.786  1.00  0.00     0.030 A 
HETATM   23  C   UNL     1       6.516 -10.143  -0.420  1.00  0.00     0.010 A 
HETATM   24  C   UNL     1       5.818 -11.024   0.416  1.00  0.00    -0.055 A 
HETATM   25  C   UNL     1       4.536 -10.659   0.841  1.00  0.00     0.010 A 
HETATM   26  C   UNL     1       3.989  -9.426   0.474  1.00  0.00     0.030 A 
BRANCH  24  27
HETATM   27  C   UNL     1       6.441 -12.314   0.918  1.00  0.00     0.010 C 
HETATM   28  C   UNL     1       7.517 -12.008   1.965  1.00  0.00     0.015 C 
HETATM   29  C   UNL     1       7.009 -13.182  -0.207  1.00  0.00     0.015 C 
ENDBRANCH  24  27
ENDBRANCH  18  21
ENDBRANCH  16  17
ENDBRANCH  15  16
ENDBRANCH   1  15
BRANCH  13  30
HETATM   30  C   UNL     1       1.360  -0.612   2.738  1.00  0.00     0.140 C 
BRANCH  30  31
HETATM   31  C   UNL     1       0.469   0.420   3.412  1.00  0.00     0.220 C 
HETATM   32  N   UNL     1      -0.831   0.041   3.644  1.00  0.00    -0.356 N 
HETATM   33  H   UNL     1      -0.947  -0.943   3.864  1.00  0.00     0.162 HD
HETATM   34  O   UNL     1       0.916   1.527   3.703  1.00  0.00    -0.274 OA
BRANCH  32  35
HETATM   35  C   UNL     1      -1.863   0.920   4.200  1.00  0.00     0.084 C 
HETATM   36  C   UNL     1      -1.994   2.273   3.477  1.00  0.00     0.025 C 
HETATM   37  C   UNL     1      -2.466   2.117   2.033  1.00  0.00     0.002 C 
HETATM   38  C   UNL     1      -3.783   1.352   1.956  1.00  0.00     0.000 C 
HETATM   39  C   UNL     1      -3.718   0.021   2.701  1.00  0.00     0.002 C 
HETATM   40  C   UNL     1      -3.219   0.193   4.140  1.00  0.00     0.025 C 
ENDBRANCH  32  35
ENDBRANCH  30  31
ENDBRANCH  13  30
TORSDOF 8
