REMARK  5 active torsions:
REMARK  status: ('A' for Active; 'I' for Inactive)
REMARK    1  A    between atoms: C_9  and  N_10 
REMARK       I    between atoms: N_10  and  C_11 
REMARK    2  A    between atoms: C_11  and  C_12 
REMARK    3  A    between atoms: C_16  and  C_17 
REMARK    4  A    between atoms: C_17  and  O_18 
REMARK    5  A    between atoms: O_18  and  C_19 
ROOT
HETATM    1  C   UNL     1       6.754  -0.651   6.306  1.00  0.00     0.153 A 
HETATM    2  O   UNL     1       6.335   0.339   5.455  1.00  0.00    -0.304 OA
HETATM    3  C   UNL     1       6.712   1.527   5.998  1.00  0.00     0.087 A 
HETATM    4  C   UNL     1       7.393   1.319   7.191  1.00  0.00     0.009 A 
HETATM    5  C   UNL     1       7.423  -0.097   7.389  1.00  0.00     0.018 A 
HETATM    6  C   UNL     1       6.458   2.780   5.446  1.00  0.00     0.038 A 
HETATM    7  C   UNL     1       6.932   3.884   6.160  1.00  0.00     0.003 A 
HETATM    8  C   UNL     1       7.627   3.722   7.361  1.00  0.00     0.001 A 
HETATM    9  C   UNL     1       7.869   2.446   7.889  1.00  0.00     0.015 A 
ENDROOT
BRANCH   1  10
HETATM   10  C   UNL     1       6.439  -2.029   5.964  1.00  0.00     0.280 C 
HETATM   11  N   UNL     1       5.950  -2.154   4.673  1.00  0.00    -0.321 N 
HETATM   12  H   UNL     1       5.923  -1.282   4.153  1.00  0.00     0.169 HD
HETATM   13  O   UNL     1       6.586  -2.959   6.750  1.00  0.00    -0.265 OA
BRANCH  11  14
HETATM   14  C   UNL     1       5.490  -3.313   4.024  1.00  0.00     0.035 A 
HETATM   15  C   UNL     1       5.405  -4.563   4.643  1.00  0.00     0.039 A 
HETATM   16  C   UNL     1       4.900  -5.636   3.921  1.00  0.00    -0.022 A 
HETATM   17  C   UNL     1       4.674  -7.027   4.400  1.00  0.00     0.274 C 
HETATM   18  C   UNL     1       4.487  -5.491   2.597  1.00  0.00    -0.025 A 
HETATM   19  N   UNL     1       4.225  -7.803   3.164  1.00  0.00    -0.067 N 
HETATM   20  C   UNL     1       3.102  -8.746   3.416  1.00  0.00     0.270 C 
HETATM   21  H   UNL     1       5.044  -8.338   2.854  1.00  0.00     0.280 HD
HETATM   22  C   UNL     1       3.947  -6.775   2.072  1.00  0.00     0.273 C 
HETATM   23  C   UNL     1       4.573  -4.265   1.962  1.00  0.00     0.012 A 
HETATM   24  C   UNL     1       5.075  -3.176   2.684  1.00  0.00     0.030 A 
ENDBRANCH  11  14
ENDBRANCH   1  10
BRANCH   5  25
HETATM   25  C   UNL     1       8.065  -0.836   8.516  1.00  0.00     0.218 C 
BRANCH  25  26
HETATM   26  O   UNL     1       9.301  -1.403   8.079  1.00  0.00    -0.347 OA
BRANCH  26  27
HETATM   27  C   UNL     1      10.044  -2.078   9.006  1.00  0.00     0.069 A 
HETATM   28  C   UNL     1      11.250  -2.592   8.521  1.00  0.00     0.037 A 
HETATM   29  C   UNL     1      12.113  -3.299   9.361  1.00  0.00     0.003 A 
HETATM   30  C   UNL     1      11.773  -3.495  10.696  1.00  0.00     0.000 A 
HETATM   31  C   UNL     1      10.571  -2.988  11.187  1.00  0.00     0.003 A 
HETATM   32  C   UNL     1       9.706  -2.281  10.345  1.00  0.00     0.037 A 
ENDBRANCH  26  27
ENDBRANCH  25  26
ENDBRANCH   5  25
TORSDOF 5
