REMARK  8 active torsions:
REMARK  status: ('A' for Active; 'I' for Inactive)
REMARK    1  A    between atoms: C_7  and  C_8 
REMARK    2  A    between atoms: C_9  and  O_10 
REMARK    3  A    between atoms: C_12  and  N_13 
REMARK    4  A    between atoms: C_14  and  N_15 
REMARK       I    between atoms: N_15  and  C_16 
REMARK    5  A    between atoms: C_16  and  C_17 
REMARK    6  A    between atoms: C_19  and  O_20 
REMARK    7  A    between atoms: O_20  and  C_21 
REMARK    8  A    between atoms: C_21  and  C_22 
ROOT
HETATM    1  C   UNL     1       8.113  -1.379  -2.427  1.00  0.00     0.050 A 
HETATM    2  C   UNL     1       8.045  -2.777  -2.507  1.00  0.00     0.082 A 
HETATM    3  C   UNL     1       9.141  -3.575  -2.181  1.00  0.00     0.067 A 
HETATM    4  C   UNL     1      10.320  -2.992  -1.708  1.00  0.00     0.036 A 
HETATM    5  C   UNL     1      10.407  -1.601  -1.627  1.00  0.00     0.030 A 
HETATM    6  C   UNL     1       9.314  -0.801  -1.990  1.00  0.00     0.021 A 
ENDROOT
BRANCH   4   7
HETATM    7  N   UNL     1      11.388  -3.857  -1.402  1.00  0.00    -0.337 N 
HETATM    8  C   UNL     1      12.544  -3.620  -0.746  1.00  0.00     0.157 C 
HETATM    9  S   UNL     1      13.917  -4.472  -1.188  1.00  0.00    -0.047 SA
HETATM   10  H   UNL     1      11.370  -4.739  -1.903  1.00  0.00     0.168 HD
BRANCH   8  11
HETATM   11  N   UNL     1      12.638  -2.794   0.332  1.00  0.00    -0.201 NA
HETATM   12  C   UNL     1      11.677  -2.768   1.338  1.00  0.00     0.237 C 
HETATM   13  O   UNL     1      10.501  -2.453   1.205  1.00  0.00    -0.274 OA
HETATM   14  H   UNL     1      13.584  -2.881   0.675  1.00  0.00     0.139 HD
BRANCH  12  15
HETATM   15  C   UNL     1      12.154  -3.121   2.705  1.00  0.00     0.029 A 
HETATM   16  C   UNL     1      13.425  -2.771   3.185  1.00  0.00     0.053 A 
HETATM   17  C   UNL     1      13.828  -3.201   4.452  1.00  0.00     0.069 A 
HETATM   18  C   UNL     1      12.947  -3.941   5.245  1.00  0.00     0.037 A 
HETATM   19  C   UNL     1      11.671  -4.263   4.785  1.00  0.00     0.004 A 
HETATM   20  C   UNL     1      11.275  -3.854   3.515  1.00  0.00     0.017 A 
BRANCH  17  21
HETATM   21  O   UNL     1      15.043  -2.968   5.032  1.00  0.00    -0.351 OA
BRANCH  21  22
HETATM   22  C   UNL     1      16.065  -2.381   4.228  1.00  0.00     0.179 C 
BRANCH  22  23
HETATM   23  C   UNL     1      17.417  -2.487   4.953  1.00  0.00     0.002 C 
HETATM   24  C   UNL     1      17.388  -1.773   6.305  1.00  0.00     0.011 C 
HETATM   25  C   UNL     1      17.824  -3.950   5.144  1.00  0.00     0.011 C 
ENDBRANCH  22  23
ENDBRANCH  21  22
ENDBRANCH  17  21
ENDBRANCH  12  15
ENDBRANCH   8  11
ENDBRANCH   4   7
BRANCH   2  26
HETATM   26  O   UNL     1       6.912  -3.445  -2.903  1.00  0.00    -0.360 OA
HETATM   27  H   UNL     1       6.175  -2.799  -2.949  1.00  0.00     0.217 HD
ENDBRANCH   2  26
BRANCH   1  28
HETATM   28  C   UNL     1       6.957  -0.561  -2.769  1.00  0.00     0.183 A 
HETATM   29  O   UNL     1       7.188   0.743  -3.121  1.00  0.00    -0.288 OA
HETATM   30  C   UNL     1       5.943   1.237  -3.393  1.00  0.00     0.112 A 
HETATM   31  C   UNL     1       5.032   0.215  -3.181  1.00  0.00     0.094 A 
HETATM   32  C   UNL     1       5.616   2.529  -3.803  1.00  0.00    -0.025 A 
HETATM   33  C   UNL     1       3.665   0.473  -3.346  1.00  0.00     0.041 A 
HETATM   34  N   UNL     1       5.689  -0.936  -2.825  1.00  0.00    -0.221 NA
HETATM   35  C   UNL     1       3.268   1.767  -3.725  1.00  0.00    -0.059 A 
HETATM   36  C   UNL     1       1.810   2.099  -3.873  1.00  0.00     0.048 C 
HETATM   37  C   UNL     1       4.235   2.765  -3.952  1.00  0.00     0.016 A 
HETATM   38  C   UNL     1       6.617   3.610  -4.057  1.00  0.00     0.051 C 
ENDBRANCH   1  28
TORSDOF 8
