REMARK  3 active torsions:
REMARK  status: ('A' for Active; 'I' for Inactive)
REMARK    1  A    between atoms: C_9  and  C_10 
REMARK       I    between atoms: C_10  and  N_11 
REMARK    2  A    between atoms: N_11  and  C_12 
REMARK    3  A    between atoms: C_12  and  C_13 
ROOT
HETATM    1  C   UNL     1       5.555  -3.484   0.166  1.00  0.00     0.258 C 
HETATM    2  N   UNL     1       4.266  -3.916   0.372  1.00  0.00    -0.342 N 
HETATM    3  O   UNL     1       6.504  -4.241   0.002  1.00  0.00    -0.267 OA
HETATM    4  H   UNL     1       3.554  -3.186   0.344  1.00  0.00     0.164 HD
ENDROOT
BRANCH   1   5
HETATM    5  C   UNL     1       5.721  -2.039   0.159  1.00  0.00     0.105 A 
HETATM    6  C   UNL     1       4.731  -1.073   0.115  1.00  0.00     0.169 A 
HETATM    7  N   UNL     1       3.364  -1.179   0.071  1.00  0.00    -0.233 NA
HETATM    8  N   UNL     1       5.385   0.164   0.092  1.00  0.00    -0.219 N 
HETATM    9  C   UNL     1       2.699  -0.062  -0.009  1.00  0.00     0.035 A 
HETATM   10  C   UNL     1       1.194  -0.121  -0.083  1.00  0.00     0.070 C 
HETATM   11  C   UNL     1       3.313   1.303  -0.041  1.00  0.00     0.053 A 
HETATM   12  C   UNL     1       4.655   1.359   0.015  1.00  0.00     0.036 A 
HETATM   13  C   UNL     1       5.416   2.649  -0.009  1.00  0.00     0.070 C 
HETATM   14  N   UNL     1       6.730   0.017   0.145  1.00  0.00    -0.170 NA
HETATM   15  C   UNL     1       6.935  -1.304   0.172  1.00  0.00     0.071 A 
HETATM   16  C   UNL     1       8.321  -1.836   0.218  1.00  0.00     0.073 C 
ENDBRANCH   1   5
BRANCH   2  17
HETATM   17  C   UNL     1       3.807  -5.303   0.214  1.00  0.00     0.079 C 
HETATM   18  C   UNL     1       3.801  -5.661  -1.285  1.00  0.00     0.046 C 
HETATM   19  C   UNL     1       4.691  -6.323   0.963  1.00  0.00     0.046 C 
BRANCH  17  20
HETATM   20  C   UNL     1       2.387  -5.384   0.773  1.00  0.00     0.128 A 
HETATM   21  S   UNL     1       2.030  -4.963   2.412  1.00  0.00    -0.031 SA
HETATM   22  C   UNL     1       0.404  -5.414   2.107  1.00  0.00     0.187 A 
HETATM   23  N   UNL     1      -0.532  -5.377   3.075  1.00  0.00    -0.377 N 
HETATM   24  N   UNL     1       0.185  -5.808   0.875  1.00  0.00    -0.124 NA
HETATM   25  H   UNL     1      -0.216  -5.421   4.037  1.00  0.00     0.158 HD
HETATM   26  H   UNL     1      -1.370  -5.918   2.892  1.00  0.00     0.158 HD
HETATM   27  N   UNL     1       1.327  -5.791   0.101  1.00  0.00    -0.142 NA
ENDBRANCH  17  20
ENDBRANCH   2  17
TORSDOF 3
