REMARK  5 active torsions:
REMARK  status: ('A' for Active; 'I' for Inactive)
REMARK    1  A    between atoms: C_2  and  O_3 
REMARK    2  A    between atoms: O_3  and  C_4 
REMARK    3  A    between atoms: C_7  and  C_8 
REMARK       I    between atoms: N_11  and  C_12 
REMARK    4  A    between atoms: C_12  and  C_13 
REMARK    5  A    between atoms: C_16  and  C_17 
ROOT
HETATM    1  C   UNL     1       8.376  -1.866  -2.145  1.00  0.00    -0.049 C 
HETATM    2  C   UNL     1       9.411  -0.796  -1.891  1.00  0.00     0.059 C 
HETATM    3  C   UNL     1      10.652  -0.962  -2.766  1.00  0.00     0.131 C 
HETATM    4  N   UNL     1      11.129  -2.341  -2.803  1.00  0.00    -0.344 N 
HETATM    5  C   UNL     1      12.500  -2.517  -3.032  1.00  0.00     0.254 C 
HETATM    6  O   UNL     1      13.318  -1.600  -3.029  1.00  0.00    -0.267 OA
HETATM    7  C   UNL     1      10.147  -3.354  -3.183  1.00  0.00     0.154 C 
HETATM    8  C   UNL     1       8.756  -3.019  -2.731  1.00  0.00     0.001 C 
ENDROOT
BRANCH   5   9
HETATM    9  C   UNL     1      13.004  -3.868  -3.360  1.00  0.00     0.032 A 
HETATM   10  C   UNL     1      13.594  -4.067  -4.611  1.00  0.00     0.018 A 
HETATM   11  C   UNL     1      14.049  -5.339  -4.967  1.00  0.00     0.016 A 
HETATM   12  C   UNL     1      13.924  -6.418  -4.078  1.00  0.00     0.014 A 
HETATM   13  C   UNL     1      13.367  -6.191  -2.808  1.00  0.00     0.016 A 
HETATM   14  C   UNL     1      12.919  -4.917  -2.442  1.00  0.00     0.018 A 
BRANCH  12  15
HETATM   15  C   UNL     1      14.346  -7.759  -4.470  1.00  0.00     0.181 A 
HETATM   16  N   UNL     1      15.006  -8.039  -5.606  1.00  0.00    -0.152 NA
HETATM   17  N   UNL     1      15.131  -9.371  -5.538  1.00  0.00    -0.263 N 
HETATM   18  H   UNL     1      15.605  -9.864  -6.286  1.00  0.00     0.190 HD
HETATM   19  C   UNL     1      14.552  -9.872  -4.410  1.00  0.00     0.118 A 
HETATM   20  C   UNL     1      14.500 -11.314  -4.095  1.00  0.00     0.093 C 
HETATM   21  N   UNL     1      14.057  -8.875  -3.711  1.00  0.00    -0.212 NA
ENDBRANCH  12  15
ENDBRANCH   5   9
BRANCH   1  22
HETATM   22  C   UNL     1       6.975  -1.611  -1.721  1.00  0.00    -0.030 A 
HETATM   23  C   UNL     1       6.686  -0.730  -0.666  1.00  0.00     0.014 A 
HETATM   24  C   UNL     1       5.366  -0.453  -0.281  1.00  0.00     0.037 A 
HETATM   25  C   UNL     1       4.301  -1.055  -0.944  1.00  0.00     0.068 A 
HETATM   26  C   UNL     1       4.569  -1.939  -1.987  1.00  0.00     0.037 A 
HETATM   27  C   UNL     1       5.887  -2.205  -2.378  1.00  0.00     0.014 A 
BRANCH  25  28
HETATM   28  O   UNL     1       2.974  -0.875  -0.671  1.00  0.00    -0.352 OA
BRANCH  28  29
HETATM   29  C   UNL     1       2.637   0.159   0.251  1.00  0.00     0.171 C 
HETATM   30  C   UNL     1       1.123   0.245   0.325  1.00  0.00     0.034 C 
ENDBRANCH  28  29
ENDBRANCH  25  28
ENDBRANCH   1  22
TORSDOF 5
