REMARK  5 active torsions:
REMARK  status: ('A' for Active; 'I' for Inactive)
REMARK    1  A    between atoms: C_9  and  C_10 
REMARK       I    between atoms: C_10  and  N_11 
REMARK    2  A    between atoms: N_11  and  C_12 
REMARK    3  A    between atoms: C_12  and  C_13 
REMARK    4  A    between atoms: C_16  and  N_17 
REMARK       I    between atoms: N_17  and  C_18 
REMARK    5  A    between atoms: C_18  and  C_19 
ROOT
HETATM    1  C   UNL     1       5.545   3.370   0.002  1.00  0.00     0.273 C 
HETATM    2  N   UNL     1       6.410   4.441  -0.036  1.00  0.00    -0.351 N 
HETATM    3  O   UNL     1       5.927   2.202   0.021  1.00  0.00    -0.266 OA
HETATM    4  H   UNL     1       5.984   5.358   0.065  1.00  0.00     0.163 HD
ENDROOT
BRANCH   2   5
HETATM    5  C   UNL     1       7.827   4.261   0.116  1.00  0.00     0.161 C 
BRANCH   5   6
HETATM    6  C   UNL     1       8.572   5.551  -0.088  1.00  0.00    -0.040 A 
HETATM    7  C   UNL     1       8.816   6.411   0.989  1.00  0.00     0.011 A 
HETATM    8  C   UNL     1       9.516   7.609   0.804  1.00  0.00     0.030 A 
HETATM    9  C   UNL     1       9.980   7.972  -0.461  1.00  0.00     0.034 A 
HETATM   10  C   UNL     1       9.716   7.123  -1.543  1.00  0.00     0.030 A 
HETATM   11  C   UNL     1       9.014   5.927  -1.361  1.00  0.00     0.011 A 
BRANCH   9  12
HETATM   12  N   UNL     1      10.712   9.147  -0.729  1.00  0.00    -0.327 N 
HETATM   13  C   UNL     1      11.094  10.132   0.169  1.00  0.00     0.225 C 
HETATM   14  O   UNL     1      10.844  10.150   1.370  1.00  0.00    -0.273 OA
HETATM   15  H   UNL     1      11.007   9.269  -1.689  1.00  0.00     0.169 HD
BRANCH  13  16
HETATM   16  C   UNL     1      11.901  11.250  -0.502  1.00  0.00     0.070 C 
HETATM   17  C   UNL     1      11.030  12.038  -1.479  1.00  0.00     0.019 C 
HETATM   18  C   UNL     1      12.508  12.191   0.538  1.00  0.00     0.019 C 
ENDBRANCH  13  16
ENDBRANCH   9  12
ENDBRANCH   5   6
ENDBRANCH   2   5
BRANCH   1  19
HETATM   19  C   UNL     1       4.128   3.762   0.039  1.00  0.00     0.157 A 
HETATM   20  C   UNL     1       2.994   2.897   0.087  1.00  0.00     0.029 A 
HETATM   21  C   UNL     1       2.780   1.504   0.109  1.00  0.00     0.023 A 
HETATM   22  C   UNL     1       1.893   3.744   0.121  1.00  0.00     0.063 A 
HETATM   23  C   UNL     1       1.468   1.005   0.166  1.00  0.00    -0.061 A 
HETATM   24  C   UNL     1       1.217  -0.475   0.194  1.00  0.00     0.048 C 
HETATM   25  C   UNL     1       0.386   1.895   0.198  1.00  0.00     0.009 A 
HETATM   26  C   UNL     1       0.576   3.281   0.176  1.00  0.00     0.032 A 
HETATM   27  N   UNL     1       2.411   5.008   0.091  1.00  0.00    -0.277 N 
HETATM   28  H   UNL     1       1.896   5.881   0.104  1.00  0.00     0.189 HD
HETATM   29  N   UNL     1       3.754   5.061   0.047  1.00  0.00    -0.168 NA
ENDBRANCH   1  19
TORSDOF 5
