REMARK  6 active torsions:
REMARK  status: ('A' for Active; 'I' for Inactive)
REMARK    1  A    between atoms: C_2  and  C_3 
REMARK    2  A    between atoms: C_3  and  C_4 
REMARK    3  A    between atoms: C_3  and  C_10 
REMARK    4  A    between atoms: C_10  and  C_11 
REMARK       I    between atoms: C_11  and  N_12 
REMARK    5  A    between atoms: N_12  and  C_13 
REMARK    6  A    between atoms: C_20  and  C_21 
REMARK       I    between atoms: C_21  and  N_22 
ROOT
HETATM    1  C   UNL     1       4.335   5.076   2.936  1.00  0.00     0.035 A 
HETATM    2  C   UNL     1       5.500   5.854   2.981  1.00  0.00     0.046 A 
HETATM    3  C   UNL     1       5.439   7.174   3.478  1.00  0.00     0.030 A 
HETATM    4  C   UNL     1       4.215   7.673   3.905  1.00  0.00     0.063 A 
HETATM    5  N   UNL     1       4.467   8.954   4.308  1.00  0.00    -0.277 N 
HETATM    6  H   UNL     1       3.800   9.625   4.673  1.00  0.00     0.189 HD
HETATM    7  N   UNL     1       5.751   9.331   4.200  1.00  0.00    -0.168 NA
HETATM    8  C   UNL     1       6.367   8.238   3.692  1.00  0.00     0.156 A 
HETATM    9  C   UNL     1       3.036   6.925   3.880  1.00  0.00     0.034 A 
HETATM   10  C   UNL     1       3.126   5.614   3.395  1.00  0.00     0.032 A 
ENDROOT
BRANCH   1  11
HETATM   11  N   UNL     1       4.303   3.744   2.466  1.00  0.00    -0.327 N 
HETATM   12  C   UNL     1       5.277   3.100   1.730  1.00  0.00     0.222 C 
HETATM   13  O   UNL     1       6.327   3.606   1.338  1.00  0.00    -0.273 OA
HETATM   14  H   UNL     1       3.409   3.282   2.547  1.00  0.00     0.169 HD
BRANCH  12  15
HETATM   15  C   UNL     1       5.038   1.617   1.461  1.00  0.00     0.112 C 
BRANCH  15  16
HETATM   16  C   UNL     1       3.593   1.098   1.333  1.00  0.00     0.027 C 
BRANCH  16  17
HETATM   17  C   UNL     1       3.555  -0.365   0.831  1.00  0.00     0.005 C 
HETATM   18  C   UNL     1       4.313  -1.343   1.719  1.00  0.00     0.006 C 
ENDBRANCH  16  17
BRANCH  16  19
HETATM   19  C   UNL     1       2.688   1.937   0.442  1.00  0.00    -0.054 A 
HETATM   20  C   UNL     1       3.142   2.520  -0.750  1.00  0.00     0.007 A 
HETATM   21  C   UNL     1       2.286   3.298  -1.532  1.00  0.00     0.001 A 
HETATM   22  C   UNL     1       0.963   3.491  -1.142  1.00  0.00     0.000 A 
HETATM   23  C   UNL     1       0.491   2.902   0.028  1.00  0.00     0.001 A 
HETATM   24  C   UNL     1       1.346   2.128   0.813  1.00  0.00     0.007 A 
ENDBRANCH  16  19
ENDBRANCH  15  16
ENDBRANCH  12  15
ENDBRANCH   1  11
BRANCH   8  25
HETATM   25  C   UNL     1       7.814   8.231   3.432  1.00  0.00     0.270 C 
HETATM   26  N   UNL     1       8.436   9.417   3.713  1.00  0.00    -0.365 N 
HETATM   27  H   UNL     1       7.881  10.182   4.077  1.00  0.00     0.159 HD
HETATM   28  H   UNL     1       9.431   9.501   3.579  1.00  0.00     0.159 HD
HETATM   29  O   UNL     1       8.446   7.269   3.010  1.00  0.00    -0.266 OA
ENDBRANCH   8  25
TORSDOF 6
