REMARK  11 active torsions:
REMARK  status: ('A' for Active; 'I' for Inactive)
REMARK    1  A    between atoms: C_2  and  O_3 
REMARK    2  A    between atoms: O_3  and  C_4 
REMARK    3  A    between atoms: C_7  and  N_8 
REMARK    4  A    between atoms: C_9  and  S_10 
REMARK    5  A    between atoms: S_10  and  C_11 
REMARK    6  A    between atoms: C_11  and  C_12 
REMARK       I    between atoms: C_12  and  N_13 
REMARK    7  A    between atoms: N_13  and  C_14 
REMARK    8  A    between atoms: C_15  and  C_16 
REMARK    9  A    between atoms: C_16  and  O_17 
REMARK   10  A    between atoms: O_17  and  C_18 
REMARK   11  A    between atoms: C_29  and  N_30 
ROOT
HETATM    1  N   UNL     1       8.655   2.137  -2.057  1.00  0.00    -0.276 N 
HETATM    2  C   UNL     1       9.474   0.988  -2.222  1.00  0.00     0.177 C 
HETATM    3  N   UNL     1      10.495   0.891  -3.031  1.00  0.00    -0.204 NA
HETATM    4  C   UNL     1      10.791   2.027  -3.695  1.00  0.00     0.162 A 
HETATM    5  C   UNL     1      10.219   3.262  -3.581  1.00  0.00     0.081 A 
HETATM    6  C   UNL     1       9.087   3.370  -2.713  1.00  0.00     0.124 C 
HETATM    7  N   UNL     1      11.820   2.180  -4.578  1.00  0.00    -0.260 N 
HETATM    8  H   UNL     1      12.478   1.475  -4.896  1.00  0.00     0.191 HD
HETATM    9  N   UNL     1      11.954   3.457  -5.004  1.00  0.00    -0.177 NA
HETATM   10  C   UNL     1      10.965   4.128  -4.392  1.00  0.00     0.068 A 
HETATM   11  C   UNL     1      10.820   5.584  -4.621  1.00  0.00     0.073 C 
ENDROOT
BRANCH   2  12
HETATM   12  S   UNL     1       9.273  -0.404  -1.140  1.00  0.00    -0.082 SA
BRANCH  12  13
HETATM   13  C   UNL     1      10.276  -1.706  -1.914  1.00  0.00     0.185 C 
BRANCH  13  14
HETATM   14  C   UNL     1      11.788  -1.497  -1.998  1.00  0.00     0.231 C 
HETATM   15  N   UNL     1      12.324  -0.453  -1.257  1.00  0.00    -0.326 N 
HETATM   16  H   UNL     1      11.642   0.251  -1.011  1.00  0.00     0.169 HD
HETATM   17  O   UNL     1      12.455  -2.222  -2.739  1.00  0.00    -0.272 OA
BRANCH  15  18
HETATM   18  C   UNL     1      13.651   0.001  -1.464  1.00  0.00     0.051 A 
HETATM   19  C   UNL     1      14.783  -0.830  -1.523  1.00  0.00     0.066 A 
HETATM   20  C   UNL     1      16.020  -0.285  -1.916  1.00  0.00     0.020 A 
HETATM   21  C   UNL     1      16.138   1.072  -2.217  1.00  0.00     0.001 A 
HETATM   22  C   UNL     1      15.035   1.908  -2.078  1.00  0.00     0.002 A 
HETATM   23  C   UNL     1      13.805   1.380  -1.684  1.00  0.00     0.030 A 
BRANCH  19  24
HETATM   24  C   UNL     1      14.753  -2.215  -0.980  1.00  0.00     0.295 C 
HETATM   25  O   UNL     1      14.054  -2.559  -0.039  1.00  0.00    -0.259 OA
BRANCH  24  26
HETATM   26  O   UNL     1      15.686  -2.979  -1.606  1.00  0.00    -0.318 OA
BRANCH  26  27
HETATM   27  C   UNL     1      15.904  -4.277  -1.037  1.00  0.00     0.174 C 
HETATM   28  C   UNL     1      14.874  -5.273  -1.533  1.00  0.00     0.034 C 
ENDBRANCH  26  27
ENDBRANCH  24  26
ENDBRANCH  19  24
ENDBRANCH  15  18
ENDBRANCH  13  14
ENDBRANCH  12  13
ENDBRANCH   2  12
BRANCH   1  29
HETATM   29  C   UNL     1       7.291   2.028  -1.638  1.00  0.00     0.043 A 
HETATM   30  C   UNL     1       6.931   1.786  -0.309  1.00  0.00     0.033 A 
HETATM   31  C   UNL     1       5.584   1.818   0.073  1.00  0.00     0.039 A 
HETATM   32  C   UNL     1       4.586   2.130  -0.853  1.00  0.00     0.068 A 
HETATM   33  C   UNL     1       4.929   2.340  -2.185  1.00  0.00     0.039 A 
HETATM   34  C   UNL     1       6.270   2.288  -2.572  1.00  0.00     0.033 A 
BRANCH  32  35
HETATM   35  O   UNL     1       3.311   2.175  -0.364  1.00  0.00    -0.352 OA
BRANCH  35  36
HETATM   36  C   UNL     1       2.450   3.127  -0.996  1.00  0.00     0.171 C 
HETATM   37  C   UNL     1       1.203   3.279  -0.144  1.00  0.00     0.034 C 
ENDBRANCH  35  36
ENDBRANCH  32  35
ENDBRANCH   1  29
BRANCH   6  38
HETATM   38  N   UNL     1       8.477   4.523  -2.515  1.00  0.00    -0.384 N 
HETATM   39  H   UNL     1       8.781   5.375  -2.961  1.00  0.00     0.157 HD
HETATM   40  H   UNL     1       7.692   4.568  -1.876  1.00  0.00     0.157 HD
ENDBRANCH   6  38
TORSDOF 11
