REMARK  6 active torsions:
REMARK  status: ('A' for Active; 'I' for Inactive)
REMARK    1  A    between atoms: N_4  and  C_5 
REMARK    2  A    between atoms: C_14  and  C_15 
REMARK       I    between atoms: C_15  and  N_16 
REMARK    3  A    between atoms: N_16  and  C_17 
REMARK    4  A    between atoms: C_17  and  C_18 
REMARK    5  A    between atoms: C_18  and  O_19 
REMARK    6  A    between atoms: C_18  and  C_20 
ROOT
HETATM    1  C   UNL     1       2.782  -2.448   0.015  1.00  0.00     0.255 C 
HETATM    2  N   UNL     1       3.484  -3.590  -0.302  1.00  0.00    -0.354 N 
HETATM    3  O   UNL     1       1.574  -2.464   0.225  1.00  0.00    -0.268 OA
HETATM    4  H   UNL     1       4.401  -3.452  -0.700  1.00  0.00     0.162 HD
ENDROOT
BRANCH   1   5
HETATM    5  C   UNL     1       3.551  -1.206   0.032  1.00  0.00     0.082 C 
HETATM    6  C   UNL     1       3.002   0.102  -0.026  1.00  0.00     0.069 C 
HETATM    7  C   UNL     1       1.572   0.497  -0.116  1.00  0.00     0.073 C 
HETATM    8  N   UNL     1       3.943   1.043   0.031  1.00  0.00    -0.171 NA
HETATM    9  N   UNL     1       5.122   0.377   0.017  1.00  0.00    -0.237 N 
HETATM   10  C   UNL     1       4.922  -0.993   0.189  1.00  0.00     0.050 C 
HETATM   11  C   UNL     1       5.997  -1.943   0.585  1.00  0.00     0.071 C 
BRANCH   9  12
HETATM   12  C   UNL     1       6.326   1.125  -0.168  1.00  0.00     0.058 A 
HETATM   13  C   UNL     1       6.303   2.514   0.054  1.00  0.00     0.033 A 
HETATM   14  C   UNL     1       7.452   3.287  -0.134  1.00  0.00     0.021 A 
HETATM   15  C   UNL     1       8.627   2.679  -0.565  1.00  0.00     0.011 A 
HETATM   16 BR   UNL     1      10.181   3.720  -0.833  1.00  0.00    -0.051 Br
HETATM   17  C   UNL     1       8.660   1.308  -0.814  1.00  0.00     0.021 A 
HETATM   18  C   UNL     1       7.511   0.531  -0.619  1.00  0.00     0.033 A 
ENDBRANCH   9  12
ENDBRANCH   1   5
BRANCH   2  19
HETATM   19  C   UNL     1       2.839  -4.865  -0.618  1.00  0.00     0.159 C 
BRANCH  19  20
HETATM   20  C   UNL     1       1.804  -5.379   0.413  1.00  0.00     0.169 C 
BRANCH  20  21
HETATM   21  O   UNL     1       0.515  -4.818   0.161  1.00  0.00    -0.389 OA
HETATM   22  H   UNL     1       0.628  -3.845   0.232  1.00  0.00     0.210 HD
ENDBRANCH  20  21
BRANCH  20  23
HETATM   23  C   UNL     1       1.652  -6.886   0.337  1.00  0.00    -0.028 A 
HETATM   24  C   UNL     1       2.101  -7.698   1.392  1.00  0.00     0.013 A 
HETATM   25  C   UNL     1       1.969  -9.086   1.323  1.00  0.00     0.043 A 
HETATM   26  C   UNL     1       1.389  -9.666   0.201  1.00  0.00     0.116 A 
HETATM   27  F   UNL     1       1.263 -10.998   0.138  1.00  0.00    -0.206 F 
HETATM   28  C   UNL     1       0.935  -8.885  -0.854  1.00  0.00     0.043 A 
HETATM   29  C   UNL     1       1.064  -7.498  -0.786  1.00  0.00     0.013 A 
ENDBRANCH  20  23
ENDBRANCH  19  20
ENDBRANCH   2  19
TORSDOF 6
