REMARK  6 active torsions:
REMARK  status: ('A' for Active; 'I' for Inactive)
REMARK       I    between atoms: C_2  and  N_3 
REMARK    1  A    between atoms: N_3  and  C_4 
REMARK    2  A    between atoms: C_7  and  N_8 
REMARK       I    between atoms: N_8  and  C_9 
REMARK    3  A    between atoms: C_9  and  C_10 
REMARK    4  A    between atoms: C_10  and  S_11 
REMARK    5  A    between atoms: S_11  and  C_12 
REMARK    6  A    between atoms: C_15  and  C_16 
ROOT
HETATM    1  N   UNL     1       0.431  -5.743   0.222  1.00  0.00    -0.327 N 
HETATM    2  C   UNL     1      -0.946  -5.873   0.207  1.00  0.00     0.231 C 
HETATM    3  O   UNL     1      -1.577  -6.873  -0.125  1.00  0.00    -0.272 OA
HETATM    4  H   UNL     1       0.786  -4.894   0.669  1.00  0.00     0.169 HD
ENDROOT
BRANCH   2   5
HETATM    5  C   UNL     1      -1.669  -4.603   0.634  1.00  0.00     0.185 C 
BRANCH   5   6
HETATM    6  S   UNL     1      -1.754  -4.466   2.441  1.00  0.00    -0.083 SA
BRANCH   6   7
HETATM    7  C   UNL     1      -0.174  -3.895   2.816  1.00  0.00     0.167 A 
HETATM    8  N   UNL     1       0.798  -3.625   1.979  1.00  0.00    -0.235 NA
HETATM    9  C   UNL     1       1.841  -3.233   2.786  1.00  0.00     0.149 A 
HETATM   10  C   UNL     1       1.508  -3.291   4.131  1.00  0.00     0.062 A 
HETATM   11  N   UNL     1       0.194  -3.705   4.112  1.00  0.00    -0.333 N 
HETATM   12  H   UNL     1      -0.410  -3.850   4.907  1.00  0.00     0.168 HD
BRANCH  10  13
HETATM   13  C   UNL     1       2.277  -3.002   5.343  1.00  0.00    -0.008 A 
HETATM   14  C   UNL     1       3.476  -2.277   5.266  1.00  0.00     0.014 A 
HETATM   15  C   UNL     1       4.228  -2.005   6.412  1.00  0.00     0.001 A 
HETATM   16  C   UNL     1       3.792  -2.453   7.655  1.00  0.00     0.000 A 
HETATM   17  C   UNL     1       2.605  -3.174   7.752  1.00  0.00     0.001 A 
HETATM   18  C   UNL     1       1.854  -3.448   6.604  1.00  0.00     0.014 A 
ENDBRANCH  10  13
ENDBRANCH   6   7
ENDBRANCH   5   6
ENDBRANCH   2   5
BRANCH   1  19
HETATM   19  C   UNL     1       1.398  -6.676  -0.192  1.00  0.00     0.034 A 
HETATM   20  C   UNL     1       1.104  -7.883  -0.822  1.00  0.00     0.032 A 
HETATM   21  C   UNL     1       2.134  -8.743  -1.237  1.00  0.00     0.032 A 
HETATM   22  C   UNL     1       3.471  -8.408  -1.026  1.00  0.00     0.034 A 
HETATM   23  C   UNL     1       3.764  -7.202  -0.380  1.00  0.00     0.032 A 
HETATM   24  C   UNL     1       2.738  -6.344   0.030  1.00  0.00     0.032 A 
BRANCH  22  25
HETATM   25  N   UNL     1       4.563  -9.201  -1.434  1.00  0.00    -0.328 N 
HETATM   26  C   UNL     1       4.522 -10.411  -2.103  1.00  0.00     0.218 C 
HETATM   27  C   UNL     1       5.897 -10.951  -2.411  1.00  0.00     0.117 C 
HETATM   28  O   UNL     1       3.522 -11.042  -2.425  1.00  0.00    -0.274 OA
HETATM   29  H   UNL     1       5.479  -8.831  -1.217  1.00  0.00     0.169 HD
ENDBRANCH  22  25
ENDBRANCH   1  19
TORSDOF 6
