REMARK  11 active torsions:
REMARK  status: ('A' for Active; 'I' for Inactive)
REMARK       I    between atoms: N_6  and  C_7 
REMARK    1  A    between atoms: C_7  and  C_8 
REMARK    2  A    between atoms: C_10  and  S_11 
REMARK    3  A    between atoms: S_11  and  N_12 
REMARK    4  A    between atoms: N_12  and  C_13 
REMARK    5  A    between atoms: C_15  and  O_16 
REMARK    6  A    between atoms: C_23  and  N_24 
REMARK    7  A    between atoms: N_24  and  C_25 
REMARK    8  A    between atoms: C_25  and  C_26 
REMARK    9  A    between atoms: C_26  and  C_27 
REMARK   10  A    between atoms: C_29  and  O_30 
REMARK   11  A    between atoms: C_32  and  O_33 
ROOT
HETATM    1  C   UNL     1       6.128  -1.415   3.874  1.00  0.00     0.033 A 
HETATM    2  C   UNL     1       7.035  -1.570   4.920  1.00  0.00     0.044 A 
HETATM    3  C   UNL     1       7.165  -2.815   5.567  1.00  0.00     0.102 A 
HETATM    4  C   UNL     1       6.382  -3.932   5.203  1.00  0.00     0.031 A 
HETATM    5  C   UNL     1       5.409  -3.708   4.215  1.00  0.00     0.026 A 
HETATM    6  C   UNL     1       5.292  -2.481   3.547  1.00  0.00     0.019 A 
ENDROOT
BRANCH   4   7
HETATM    7  N   UNL     1       6.433  -5.144   5.904  1.00  0.00    -0.291 NA
HETATM    8  H   UNL     1       7.312  -5.247   6.432  1.00  0.00     0.127 HD
BRANCH   7   9
HETATM    9  C   UNL     1       6.131  -6.424   5.242  1.00  0.00     0.097 C 
BRANCH   9  10
HETATM   10  C   UNL     1       7.403  -7.032   4.632  1.00  0.00     0.053 C 
BRANCH  10  11
HETATM   11  C   UNL     1       7.128  -8.308   3.873  1.00  0.00    -0.054 A 
HETATM   12  C   UNL     1       6.826  -9.497   4.556  1.00  0.00     0.046 A 
HETATM   13  C   UNL     1       6.562 -10.681   3.854  1.00  0.00     0.102 A 
HETATM   14  C   UNL     1       6.607 -10.680   2.446  1.00  0.00     0.101 A 
HETATM   15  C   UNL     1       6.910  -9.496   1.768  1.00  0.00     0.040 A 
HETATM   16  C   UNL     1       7.167  -8.319   2.476  1.00  0.00     0.010 A 
BRANCH  13  17
HETATM   17  O   UNL     1       6.252 -11.881   4.444  1.00  0.00    -0.353 OA
HETATM   18  C   UNL     1       6.230 -11.942   5.862  1.00  0.00     0.210 C 
ENDBRANCH  13  17
BRANCH  14  19
HETATM   19  O   UNL     1       6.335 -11.877   1.832  1.00  0.00    -0.353 OA
HETATM   20  C   UNL     1       6.497 -11.949   0.423  1.00  0.00     0.210 C 
ENDBRANCH  14  19
ENDBRANCH  10  11
ENDBRANCH   9  10
ENDBRANCH   7   9
ENDBRANCH   4   7
BRANCH   3  21
HETATM   21  S   UNL     1       8.482  -2.953   6.770  1.00  0.00     0.265 S 
HETATM   22  O   UNL     1       8.846  -4.354   6.850  1.00  0.00    -0.200 OA
HETATM   23  O   UNL     1       9.473  -1.952   6.427  1.00  0.00    -0.200 OA
BRANCH  21  24
HETATM   24  N   UNL     1       7.725  -2.562   8.225  1.00  0.00    -0.280 N 
HETATM   25  H   UNL     1       7.134  -3.322   8.564  1.00  0.00     0.179 HD
BRANCH  24  26
HETATM   26  C   UNL     1       7.237  -1.238   8.405  1.00  0.00     0.045 A 
HETATM   27  C   UNL     1       5.868  -0.981   8.294  1.00  0.00     0.066 A 
HETATM   28  C   UNL     1       5.399   0.327   8.430  1.00  0.00     0.070 A 
HETATM   29  C   UNL     1       6.306   1.361   8.681  1.00  0.00     0.037 A 
HETATM   30  C   UNL     1       7.672   1.101   8.788  1.00  0.00     0.005 A 
HETATM   31  C   UNL     1       8.139  -0.201   8.640  1.00  0.00     0.030 A 
BRANCH  28  32
HETATM   32  O   UNL     1       4.096   0.728   8.333  1.00  0.00    -0.356 OA
HETATM   33  C   UNL     1       3.119  -0.284   8.119  1.00  0.00     0.210 C 
ENDBRANCH  28  32
ENDBRANCH  24  26
ENDBRANCH  21  24
ENDBRANCH   3  21
BRANCH   1  34
HETATM   34  C   UNL     1       5.973  -0.131   3.132  1.00  0.00     0.253 C 
HETATM   35  N   UNL     1       7.054   0.757   3.035  1.00  0.00    -0.345 N 
HETATM   36  C   UNL     1       6.741   2.075   2.470  1.00  0.00     0.154 C 
HETATM   37  C   UNL     1       8.403   0.281   2.694  1.00  0.00     0.154 C 
HETATM   38  C   UNL     1       6.851   2.053   0.936  1.00  0.00     0.254 C 
HETATM   39  N   UNL     1       8.258   1.584   0.538  1.00  0.00    -0.072 N 
HETATM   40  C   UNL     1       8.439   1.568  -0.952  1.00  0.00     0.269 C 
HETATM   41  H   UNL     1       8.921   2.272   0.917  1.00  0.00     0.279 HD
HETATM   42  C   UNL     1       8.597   0.232   1.164  1.00  0.00     0.254 C 
HETATM   43  O   UNL     1       4.899   0.123   2.591  1.00  0.00    -0.267 OA
ENDBRANCH   1  34
TORSDOF 11
