REMARK  7 active torsions:
REMARK  status: ('A' for Active; 'I' for Inactive)
REMARK    1  A    between atoms: C_2  and  O_3 
REMARK    2  A    between atoms: O_3  and  C_4 
REMARK    3  A    between atoms: C_7  and  N_8 
REMARK    4  A    between atoms: N_8  and  C_9 
REMARK    5  A    between atoms: C_9  and  C_10 
REMARK       I    between atoms: C_10  and  N_11 
REMARK    6  A    between atoms: N_11  and  N_12 
REMARK    7  A    between atoms: C_13  and  C_14 
ROOT
HETATM    1  C   UNL     1      10.729  -3.344   0.316  1.00  0.00     0.255 C 
HETATM    2  N   UNL     1      11.204  -2.047   0.528  1.00  0.00    -0.246 N 
HETATM    3  O   UNL     1      11.429  -4.330   0.092  1.00  0.00    -0.270 OA
HETATM    4  H   UNL     1      10.544  -1.282   0.423  1.00  0.00     0.192 HD
ENDROOT
BRANCH   2   5
HETATM    5  N   UNL     1      12.509  -1.667   0.301  1.00  0.00    -0.184 NA
HETATM    6  C   UNL     1      13.445  -2.487   0.666  1.00  0.00     0.153 C 
BRANCH   6   7
HETATM    7  C   UNL     1      14.838  -2.192   0.374  1.00  0.00     0.018 A 
HETATM    8  C   UNL     1      15.405  -1.097  -0.362  1.00  0.00     0.004 A 
HETATM    9  C   UNL     1      16.788  -1.281  -0.384  1.00  0.00     0.043 A 
HETATM   10  C   UNL     1      14.878   0.033  -1.025  1.00  0.00     0.014 A 
HETATM   11  C   UNL     1      17.665  -0.401  -1.031  1.00  0.00     0.030 A 
HETATM   12  N   UNL     1      17.056  -2.433   0.313  1.00  0.00    -0.358 N 
HETATM   13  C   UNL     1      17.113   0.707  -1.680  1.00  0.00     0.002 A 
HETATM   14  C   UNL     1      15.738   0.924  -1.677  1.00  0.00     0.001 A 
HETATM   15  H   UNL     1      17.983  -2.809   0.450  1.00  0.00     0.166 HD
HETATM   16  C   UNL     1      15.895  -3.000   0.776  1.00  0.00     0.018 A 
HETATM   17  C   UNL     1      15.913  -4.269   1.550  1.00  0.00     0.069 C 
ENDBRANCH   6   7
ENDBRANCH   2   5
BRANCH   1  18
HETATM   18  C   UNL     1       9.202  -3.435   0.391  1.00  0.00     0.224 C 
BRANCH  18  19
HETATM   19  N   UNL     1       8.745  -3.429   1.780  1.00  0.00    -0.381 N 
HETATM   20  H   UNL     1       9.254  -2.810   2.406  1.00  0.00     0.160 HD
BRANCH  19  21
HETATM   21  C   UNL     1       7.398  -3.581   2.096  1.00  0.00     0.028 A 
HETATM   22  C   UNL     1       6.431  -4.021   1.186  1.00  0.00     0.032 A 
HETATM   23  C   UNL     1       5.105  -4.259   1.578  1.00  0.00     0.039 A 
HETATM   24  C   UNL     1       4.723  -4.085   2.905  1.00  0.00     0.068 A 
HETATM   25  C   UNL     1       5.677  -3.661   3.827  1.00  0.00     0.039 A 
HETATM   26  C   UNL     1       6.999  -3.425   3.430  1.00  0.00     0.032 A 
BRANCH  24  27
HETATM   27  O   UNL     1       3.475  -4.301   3.420  1.00  0.00    -0.352 OA
BRANCH  27  28
HETATM   28  C   UNL     1       2.510  -4.886   2.546  1.00  0.00     0.171 C 
HETATM   29  C   UNL     1       1.249  -5.154   3.348  1.00  0.00     0.034 C 
ENDBRANCH  27  28
ENDBRANCH  24  27
ENDBRANCH  19  21
ENDBRANCH  18  19
ENDBRANCH   1  18
TORSDOF 7
