REMARK  3 active torsions:
REMARK  status: ('A' for Active; 'I' for Inactive)
REMARK    1  A    between atoms: N_4  and  C_5 
REMARK    2  A    between atoms: C_15  and  C_16 
REMARK       I    between atoms: C_16  and  N_17 
REMARK    3  A    between atoms: N_17  and  C_18 
ROOT
HETATM    1  C   UNL     1       1.178  -0.354  -0.329  1.00  0.00     0.073 C 
HETATM    2  C   UNL     1       2.645  -0.162  -0.219  1.00  0.00     0.069 A 
HETATM    3  N   UNL     1       3.458  -1.215  -0.059  1.00  0.00    -0.170 NA
HETATM    4  N   UNL     1       4.726  -0.700  -0.041  1.00  0.00    -0.216 N 
HETATM    5  C   UNL     1       4.675   0.686  -0.047  1.00  0.00     0.145 A 
HETATM    6  C   UNL     1       3.359   1.050  -0.208  1.00  0.00     0.087 A 
HETATM    7  N   UNL     1       5.664   1.596   0.131  1.00  0.00    -0.349 N 
HETATM    8  C   UNL     1       5.318   2.937   0.164  1.00  0.00     0.111 A 
HETATM    9  C   UNL     1       4.069   3.420  -0.025  1.00  0.00     0.098 A 
HETATM   10  C   UNL     1       2.955   2.439  -0.270  1.00  0.00     0.205 A 
HETATM   11  O   UNL     1       1.801   2.800  -0.486  1.00  0.00    -0.286 OA
HETATM   12  H   UNL     1       6.587   1.360   0.494  1.00  0.00     0.167 HD
ENDROOT
BRANCH   9  13
HETATM   13  C   UNL     1       3.864   4.901   0.060  1.00  0.00     0.261 C 
HETATM   14  N   UNL     1       2.576   5.319  -0.200  1.00  0.00    -0.323 N 
HETATM   15  H   UNL     1       1.901   4.596  -0.455  1.00  0.00     0.169 HD
HETATM   16  O   UNL     1       4.811   5.631   0.340  1.00  0.00    -0.267 OA
BRANCH  14  17
HETATM   17  C   UNL     1       2.062   6.630  -0.146  1.00  0.00     0.035 A 
HETATM   18  C   UNL     1       2.798   7.745   0.266  1.00  0.00     0.032 A 
HETATM   19  C   UNL     1       2.203   9.010   0.306  1.00  0.00     0.044 A 
HETATM   20  C   UNL     1       0.875   9.159  -0.071  1.00  0.00     0.116 A 
HETATM   21  F   UNL     1       0.307  10.372  -0.031  1.00  0.00    -0.206 F 
HETATM   22  C   UNL     1       0.127   8.066  -0.486  1.00  0.00     0.044 A 
HETATM   23  C   UNL     1       0.720   6.802  -0.520  1.00  0.00     0.032 A 
ENDBRANCH  14  17
ENDBRANCH   9  13
BRANCH   4  24
HETATM   24  C   UNL     1       5.849  -1.575  -0.031  1.00  0.00     0.060 A 
HETATM   25  C   UNL     1       7.126  -1.143  -0.411  1.00  0.00     0.031 A 
HETATM   26  C   UNL     1       8.204  -2.032  -0.385  1.00  0.00     0.002 A 
HETATM   27  C   UNL     1       8.015  -3.355   0.010  1.00  0.00     0.000 A 
HETATM   28  C   UNL     1       6.744  -3.800   0.366  1.00  0.00     0.002 A 
HETATM   29  C   UNL     1       5.662  -2.918   0.337  1.00  0.00     0.031 A 
ENDBRANCH   4  24
TORSDOF 3
