REMARK  5 active torsions:
REMARK  status: ('A' for Active; 'I' for Inactive)
REMARK    1  A    between atoms: O_2  and  C_3 
REMARK    2  A    between atoms: C_5  and  C_15 
REMARK    3  A    between atoms: C_8  and  C_9 
REMARK       I    between atoms: C_15  and  N_17 
REMARK    4  A    between atoms: N_17  and  C_18 
REMARK    5  A    between atoms: C_20  and  C_21 
ROOT
HETATM    1  C   UNL     1       3.559  -2.535  -5.145  1.00  0.00     0.080 A 
HETATM    2  C   UNL     1       4.682  -1.718  -5.336  1.00  0.00     0.054 A 
HETATM    3  C   UNL     1       5.923  -2.062  -4.781  1.00  0.00     0.034 A 
HETATM    4  C   UNL     1       6.049  -3.238  -4.040  1.00  0.00     0.018 A 
HETATM    5  C   UNL     1       4.932  -4.052  -3.836  1.00  0.00     0.016 A 
HETATM    6  C   UNL     1       3.679  -3.714  -4.378  1.00  0.00     0.010 A 
ENDROOT
BRANCH   3   7
HETATM    7  C   UNL     1       7.083  -1.167  -5.047  1.00  0.00     0.252 C 
HETATM    8  O   UNL     1       7.100  -0.483  -6.065  1.00  0.00    -0.268 OA
HETATM    9  N   UNL     1       8.078  -1.148  -4.089  1.00  0.00    -0.352 N 
HETATM   10  H   UNL     1       7.921  -1.596  -3.195  1.00  0.00     0.163 HD
BRANCH   9  11
HETATM   11  C   UNL     1       9.246  -0.332  -4.236  1.00  0.00     0.094 A 
HETATM   12  C   UNL     1      10.476  -0.892  -4.888  1.00  0.00     0.037 A 
HETATM   13  C   UNL     1      10.489  -0.594  -3.408  1.00  0.00     0.043 A 
BRANCH  13  14
HETATM   14  C   UNL     1      11.313   0.560  -2.886  1.00  0.00    -0.052 A 
HETATM   15  C   UNL     1      10.736   1.587  -2.120  1.00  0.00     0.007 A 
HETATM   16  C   UNL     1      11.503   2.648  -1.629  1.00  0.00     0.001 A 
HETATM   17  C   UNL     1      12.869   2.699  -1.888  1.00  0.00     0.000 A 
HETATM   18  C   UNL     1      13.468   1.688  -2.635  1.00  0.00     0.001 A 
HETATM   19  C   UNL     1      12.696   0.631  -3.123  1.00  0.00     0.007 A 
ENDBRANCH  13  14
ENDBRANCH   9  11
ENDBRANCH   3   7
BRANCH   1  20
HETATM   20  O   UNL     1       2.322  -2.249  -5.667  1.00  0.00    -0.355 OA
HETATM   21  C   UNL     1       2.253  -1.274  -6.701  1.00  0.00     0.210 C 
ENDBRANCH   1  20
BRANCH   6  22
HETATM   22  C   UNL     1       2.543  -4.596  -4.137  1.00  0.00     0.013 A 
HETATM   23  C   UNL     1       1.179  -4.312  -3.889  1.00  0.00     0.152 A 
HETATM   24  N   UNL     1       0.443  -5.414  -3.714  1.00  0.00    -0.187 NA
HETATM   25  N   UNL     1       1.328  -6.409  -3.874  1.00  0.00    -0.289 N 
HETATM   26  H   UNL     1       0.994  -7.364  -3.803  1.00  0.00     0.188 HD
HETATM   27  C   UNL     1       2.599  -5.975  -4.119  1.00  0.00     0.123 A 
ENDBRANCH   6  22
TORSDOF 5
