REMARK  3 active torsions:
REMARK  status: ('A' for Active; 'I' for Inactive)
REMARK    1  A    between atoms: C_2  and  C_3 
REMARK    2  A    between atoms: C_10  and  O_11 
REMARK    3  A    between atoms: C_10  and  C_12 
ROOT
HETATM    1  C   UNL     1       3.145   1.085   1.015  1.00  0.00    -0.058 A 
HETATM    2  C   UNL     1       2.696   2.372   0.680  1.00  0.00     0.020 A 
HETATM    3  C   UNL     1       2.913   3.409   1.577  1.00  0.00     0.018 A 
HETATM    4  C   UNL     1       3.584   3.172   2.776  1.00  0.00     0.045 A 
HETATM    5  N   UNL     1       3.705   4.345   3.505  1.00  0.00    -0.323 N 
HETATM    6  C   UNL     1       3.112   5.422   2.842  1.00  0.00     0.266 A 
HETATM    7  O   UNL     1       3.101   6.566   3.272  1.00  0.00    -0.269 OA
HETATM    8  C   UNL     1       2.553   4.878   1.477  1.00  0.00     0.199 A 
HETATM    9  C   UNL     1       4.040   1.922   3.136  1.00  0.00     0.031 A 
HETATM   10  C   UNL     1       3.809   0.871   2.244  1.00  0.00     0.009 A 
HETATM   11  H   UNL     1       4.146   4.440   4.407  1.00  0.00     0.169 HD
ENDROOT
BRANCH   8  12
HETATM   12  O   UNL     1       3.253   5.464   0.384  1.00  0.00    -0.371 OA
HETATM   13  H   UNL     1       4.151   5.095   0.403  1.00  0.00     0.212 HD
ENDBRANCH   8  12
BRANCH   8  14
HETATM   14  C   UNL     1       1.044   4.938   1.355  1.00  0.00     0.025 A 
HETATM   15  C   UNL     1       0.302   5.124   0.125  1.00  0.00     0.003 A 
HETATM   16  C   UNL     1      -1.056   5.077   0.432  1.00  0.00     0.043 A 
HETATM   17  C   UNL     1       0.661   5.314  -1.229  1.00  0.00     0.014 A 
HETATM   18  C   UNL     1      -2.066   5.205  -0.531  1.00  0.00     0.030 A 
HETATM   19  N   UNL     1      -1.156   4.892   1.786  1.00  0.00    -0.359 N 
HETATM   20  C   UNL     1      -1.678   5.389  -1.860  1.00  0.00     0.002 A 
HETATM   21  C   UNL     1      -0.333   5.445  -2.207  1.00  0.00     0.001 A 
HETATM   22  H   UNL     1      -2.033   4.828   2.283  1.00  0.00     0.166 HD
HETATM   23  C   UNL     1       0.085   4.787   2.360  1.00  0.00     0.016 A 
HETATM   24  C   UNL     1       0.208   4.545   3.824  1.00  0.00     0.069 C 
ENDBRANCH   8  14
BRANCH   1  25
HETATM   25  C   UNL     1       2.884  -0.070   0.079  1.00  0.00     0.034 C 
HETATM   26  C   UNL     1       1.476  -0.622   0.244  1.00  0.00     0.010 C 
ENDBRANCH   1  25
TORSDOF 3
